MODEL 1
REMARK VINA RESULT:      -6.1      0.000      0.000
REMARK  Name = 
REMARK  10 active torsions:
REMARK  status: ('A' for Active; 'I' for Inactive)
REMARK    1  A    between atoms: C_1  and  O_2
REMARK    2  A    between atoms: O_2  and  C_3
REMARK    3  A    between atoms: C_5  and  O_6
REMARK    4  A    between atoms: O_6  and  C_7
REMARK    5  A    between atoms: C_8  and  C_9
REMARK    6  A    between atoms: C_11  and  C_12
REMARK    7  A    between atoms: C_11  and  O_13
REMARK    8  A    between atoms: C_17  and  C_18
REMARK    9  A    between atoms: C_22  and  O_23
REMARK   10  A    between atoms: O_23  and  C_24
REMARK                            x       y       z     vdW  Elec       q    Type
REMARK                         _______ _______ _______ _____ _____    ______ ____
ROOT
ATOM      1  C   UNL     1       2.427   7.426  18.923  0.00  0.00    +0.000 C 
ATOM      2  C   UNL     1       1.519   8.016  17.831  0.00  0.00    +0.000 C 
ATOM      3  C   UNL     1       1.085   9.451  18.118  0.00  0.00    +0.000 C 
ATOM      4  C   UNL     1       2.262  10.428  17.950  0.00  0.00    +0.000 C 
ATOM      5  C   UNL     1       0.430   9.481  19.506  0.00  0.00    +0.000 C 
ATOM      6  C   UNL     1      -0.054  10.879  19.917  0.00  0.00    +0.000 C 
ATOM      7  C   UNL     1      -0.773  10.832  21.257  0.00  0.00    +0.000 C 
ATOM      8  C   UNL     1       0.126  10.228  22.341  0.00  0.00    +0.000 C 
ATOM      9  C   UNL     1      -0.638  10.176  23.663  0.00  0.00    +0.000 C 
ATOM     10  C   UNL     1       0.652   8.837  21.931  0.00  0.00    +0.000 C 
ATOM     11  C   UNL     1       1.355   8.848  20.559  0.00  0.00    +0.000 C 
ATOM     12  O   UNL     1       1.712   7.496  20.183  0.00  0.00    +0.000 OA
ENDROOT
BRANCH   1  16
ATOM     13  C   UNL     1       4.012   3.465  17.830  0.00  0.00    +0.000 A 
ATOM     14  C   UNL     1       2.897   3.563  18.650  0.00  0.00    +0.000 A 
ATOM     15  C   UNL     1       2.407   4.807  19.076  0.00  0.00    +0.000 A 
ATOM     16  C   UNL     1       3.008   6.017  18.637  0.00  0.00    +0.000 A 
ATOM     17  C   UNL     1       4.153   5.894  17.798  0.00  0.00    +0.000 A 
ATOM     18  C   UNL     1       4.651   4.628  17.422  0.00  0.00    +0.000 A 
BRANCH  13  20
ATOM     19  C   UNL     1       3.806   1.151  18.321  0.00  0.00    +0.000 C 
ATOM     20  O   UNL     1       4.390   2.184  17.539  0.00  0.00    +0.000 OA
ENDBRANCH  13  20
BRANCH  15  21
ATOM     21  O   UNL     1       1.303   4.873  19.883  0.00  0.00    +0.000 OA
ATOM     22  C   UNL     1       0.963   3.724  20.650  0.00  0.00    +0.000 C 
ENDBRANCH  15  21
BRANCH  17  23
ATOM     23  O   UNL     1       4.704   7.071  17.340  0.00  0.00    +0.000 OA
ATOM     24  C   UNL     1       6.113   7.093  17.125  0.00  0.00    +0.000 C 
ENDBRANCH  17  23
ENDBRANCH   1  16
BRANCH   3  25
ATOM     25  O   UNL     1       0.099   9.833  17.151  0.00  0.00    +0.000 OA
ATOM     26  H   UNL     1       0.021   9.113  16.503  0.00  0.00    +0.000 HD
ENDBRANCH   3  25
TORSDOF 5
ENDMDL
MODEL 2
REMARK VINA RESULT:      -6.0      4.408      9.706
REMARK  Name = 
REMARK  10 active torsions:
REMARK  status: ('A' for Active; 'I' for Inactive)
REMARK    1  A    between atoms: C_1  and  O_2
REMARK    2  A    between atoms: O_2  and  C_3
REMARK    3  A    between atoms: C_5  and  O_6
REMARK    4  A    between atoms: O_6  and  C_7
REMARK    5  A    between atoms: C_8  and  C_9
REMARK    6  A    between atoms: C_11  and  C_12
REMARK    7  A    between atoms: C_11  and  O_13
REMARK    8  A    between atoms: C_17  and  C_18
REMARK    9  A    between atoms: C_22  and  O_23
REMARK   10  A    between atoms: O_23  and  C_24
REMARK                            x       y       z     vdW  Elec       q    Type
REMARK                         _______ _______ _______ _____ _____    ______ ____
ROOT
ATOM      1  C   UNL     1      -1.714  12.167  21.186  0.00  0.00    +0.000 C 
ATOM      2  C   UNL     1      -1.537  12.905  19.849  0.00  0.00    +0.000 C 
ATOM      3  C   UNL     1      -1.390  11.965  18.655  0.00  0.00    +0.000 C 
ATOM      4  C   UNL     1      -2.725  11.275  18.328  0.00  0.00    +0.000 C 
ATOM      5  C   UNL     1      -0.233  11.000  18.950  0.00  0.00    +0.000 C 
ATOM      6  C   UNL     1       0.020   9.995  17.818  0.00  0.00    +0.000 C 
ATOM      7  C   UNL     1       1.231   9.126  18.124  0.00  0.00    +0.000 C 
ATOM      8  C   UNL     1       1.062   8.403  19.465  0.00  0.00    +0.000 C 
ATOM      9  C   UNL     1       2.306   7.562  19.748  0.00  0.00    +0.000 C 
ATOM     10  C   UNL     1       0.771   9.394  20.611  0.00  0.00    +0.000 C 
ATOM     11  C   UNL     1      -0.430  10.312  20.311  0.00  0.00    +0.000 C 
ATOM     12  O   UNL     1      -0.569  11.294  21.368  0.00  0.00    +0.000 OA
ENDROOT
BRANCH   1  16
ATOM     13  C   UNL     1      -2.685  14.858  24.534  0.00  0.00    +0.000 A 
ATOM     14  C   UNL     1      -1.386  14.793  24.051  0.00  0.00    +0.000 A 
ATOM     15  C   UNL     1      -1.025  13.897  23.034  0.00  0.00    +0.000 A 
ATOM     16  C   UNL     1      -1.995  13.057  22.424  0.00  0.00    +0.000 A 
ATOM     17  C   UNL     1      -3.322  13.137  22.937  0.00  0.00    +0.000 A 
ATOM     18  C   UNL     1      -3.646  14.016  23.992  0.00  0.00    +0.000 A 
BRANCH  13  20
ATOM     19  C   UNL     1      -3.635  16.909  25.260  0.00  0.00    +0.000 C 
ATOM     20  O   UNL     1      -2.866  15.751  25.554  0.00  0.00    +0.000 OA
ENDBRANCH  13  20
BRANCH  15  21
ATOM     21  O   UNL     1       0.265  13.858  22.575  0.00  0.00    +0.000 OA
ATOM     22  C   UNL     1       0.824  15.053  22.043  0.00  0.00    +0.000 C 
ENDBRANCH  15  21
BRANCH  17  23
ATOM     23  O   UNL     1      -4.267  12.352  22.312  0.00  0.00    +0.000 OA
ATOM     24  C   UNL     1      -5.577  12.893  22.170  0.00  0.00    +0.000 C 
ENDBRANCH  17  23
ENDBRANCH   1  16
BRANCH   3  25
ATOM     25  O   UNL     1      -1.041  12.742  17.503  0.00  0.00    +0.000 OA
ATOM     26  H   UNL     1      -0.137  12.498  17.240  0.00  0.00    +0.000 HD
ENDBRANCH   3  25
TORSDOF 5
ENDMDL
MODEL 3
REMARK VINA RESULT:      -5.9      1.959      4.479
REMARK  Name = 
REMARK  10 active torsions:
REMARK  status: ('A' for Active; 'I' for Inactive)
REMARK    1  A    between atoms: C_1  and  O_2
REMARK    2  A    between atoms: O_2  and  C_3
REMARK    3  A    between atoms: C_5  and  O_6
REMARK    4  A    between atoms: O_6  and  C_7
REMARK    5  A    between atoms: C_8  and  C_9
REMARK    6  A    between atoms: C_11  and  C_12
REMARK    7  A    between atoms: C_11  and  O_13
REMARK    8  A    between atoms: C_17  and  C_18
REMARK    9  A    between atoms: C_22  and  O_23
REMARK   10  A    between atoms: O_23  and  C_24
REMARK                            x       y       z     vdW  Elec       q    Type
REMARK                         _______ _______ _______ _____ _____    ______ ____
ROOT
ATOM      1  C   UNL     1       3.392   5.840  18.030  0.00  0.00    +0.000 C 
ATOM      2  C   UNL     1       3.551   5.241  19.438  0.00  0.00    +0.000 C 
ATOM      3  C   UNL     1       2.349   5.499  20.343  0.00  0.00    +0.000 C 
ATOM      4  C   UNL     1       1.137   4.661  19.903  0.00  0.00    +0.000 C 
ATOM      5  C   UNL     1       2.095   7.013  20.375  0.00  0.00    +0.000 C 
ATOM      6  C   UNL     1       0.903   7.408  21.258  0.00  0.00    +0.000 C 
ATOM      7  C   UNL     1       0.755   8.921  21.324  0.00  0.00    +0.000 C 
ATOM      8  C   UNL     1       0.614   9.520  19.921  0.00  0.00    +0.000 C 
ATOM      9  C   UNL     1       0.492  11.040  20.027  0.00  0.00    +0.000 C 
ATOM     10  C   UNL     1       1.785   9.105  19.006  0.00  0.00    +0.000 C 
ATOM     11  C   UNL     1       1.980   7.577  18.949  0.00  0.00    +0.000 C 
ATOM     12  O   UNL     1       3.166   7.266  18.177  0.00  0.00    +0.000 OA
ENDROOT
BRANCH   1  16
ATOM     13  C   UNL     1       6.665   4.676  15.324  0.00  0.00    +0.000 A 
ATOM     14  C   UNL     1       6.722   5.886  16.000  0.00  0.00    +0.000 A 
ATOM     15  C   UNL     1       5.667   6.322  16.815  0.00  0.00    +0.000 A 
ATOM     16  C   UNL     1       4.519   5.510  17.018  0.00  0.00    +0.000 A 
ATOM     17  C   UNL     1       4.479   4.273  16.312  0.00  0.00    +0.000 A 
ATOM     18  C   UNL     1       5.537   3.881  15.464  0.00  0.00    +0.000 A 
BRANCH  13  20
ATOM     19  C   UNL     1       7.802   5.064  13.275  0.00  0.00    +0.000 C 
ATOM     20  O   UNL     1       7.753   4.414  14.538  0.00  0.00    +0.000 OA
ENDBRANCH  13  20
BRANCH  15  21
ATOM     21  O   UNL     1       5.752   7.520  17.472  0.00  0.00    +0.000 OA
ATOM     22  C   UNL     1       7.034   8.125  17.600  0.00  0.00    +0.000 C 
ENDBRANCH  15  21
BRANCH  17  23
ATOM     23  O   UNL     1       3.384   3.470  16.548  0.00  0.00    +0.000 OA
ATOM     24  C   UNL     1       3.563   2.358  17.421  0.00  0.00    +0.000 C 
ENDBRANCH  17  23
ENDBRANCH   1  16
BRANCH   3  25
ATOM     25  O   UNL     1       2.677   5.073  21.671  0.00  0.00    +0.000 OA
ATOM     26  H   UNL     1       3.343   5.686  22.026  0.00  0.00    +0.000 HD
ENDBRANCH   3  25
TORSDOF 5
ENDMDL
MODEL 4
REMARK VINA RESULT:      -5.9      1.262      1.569
REMARK  Name = 
REMARK  10 active torsions:
REMARK  status: ('A' for Active; 'I' for Inactive)
REMARK    1  A    between atoms: C_1  and  O_2
REMARK    2  A    between atoms: O_2  and  C_3
REMARK    3  A    between atoms: C_5  and  O_6
REMARK    4  A    between atoms: O_6  and  C_7
REMARK    5  A    between atoms: C_8  and  C_9
REMARK    6  A    between atoms: C_11  and  C_12
REMARK    7  A    between atoms: C_11  and  O_13
REMARK    8  A    between atoms: C_17  and  C_18
REMARK    9  A    between atoms: C_22  and  O_23
REMARK   10  A    between atoms: O_23  and  C_24
REMARK                            x       y       z     vdW  Elec       q    Type
REMARK                         _______ _______ _______ _____ _____    ______ ____
ROOT
ATOM      1  C   UNL     1       2.885   7.804  18.404  0.00  0.00    +0.000 C 
ATOM      2  C   UNL     1       1.757   8.362  17.519  0.00  0.00    +0.000 C 
ATOM      3  C   UNL     1       1.131   9.639  18.072  0.00  0.00    +0.000 C 
ATOM      4  C   UNL     1       2.097  10.829  17.940  0.00  0.00    +0.000 C 
ATOM      5  C   UNL     1       0.666   9.358  19.508  0.00  0.00    +0.000 C 
ATOM      6  C   UNL     1       0.013  10.573  20.182  0.00  0.00    +0.000 C 
ATOM      7  C   UNL     1      -0.509  10.211  21.564  0.00  0.00    +0.000 C 
ATOM      8  C   UNL     1       0.611   9.639  22.441  0.00  0.00    +0.000 C 
ATOM      9  C   UNL     1       0.044   9.266  23.810  0.00  0.00    +0.000 C 
ATOM     10  C   UNL     1       1.304   8.438  21.764  0.00  0.00    +0.000 C 
ATOM     11  C   UNL     1       1.812   8.767  20.347  0.00  0.00    +0.000 C 
ATOM     12  O   UNL     1       2.337   7.568  19.726  0.00  0.00    +0.000 OA
ENDROOT
BRANCH   1  16
ATOM     13  C   UNL     1       5.069   4.461  16.549  0.00  0.00    +0.000 A 
ATOM     14  C   UNL     1       3.769   4.276  16.996  0.00  0.00    +0.000 A 
ATOM     15  C   UNL     1       3.067   5.297  17.655  0.00  0.00    +0.000 A 
ATOM     16  C   UNL     1       3.650   6.579  17.841  0.00  0.00    +0.000 A 
ATOM     17  C   UNL     1       4.986   6.747  17.377  0.00  0.00    +0.000 A 
ATOM     18  C   UNL     1       5.684   5.687  16.758  0.00  0.00    +0.000 A 
BRANCH  13  20
ATOM     19  C   UNL     1       6.196   3.537  14.674  0.00  0.00    +0.000 C 
ATOM     20  O   UNL     1       5.629   3.359  15.965  0.00  0.00    +0.000 OA
ENDBRANCH  13  20
BRANCH  15  21
ATOM     21  O   UNL     1       1.784   5.086  18.083  0.00  0.00    +0.000 OA
ATOM     22  C   UNL     1       1.557   4.060  19.042  0.00  0.00    +0.000 C 
ENDBRANCH  15  21
BRANCH  17  23
ATOM     23  O   UNL     1       5.530   8.005  17.521  0.00  0.00    +0.000 OA
ATOM     24  C   UNL     1       6.951   8.107  17.527  0.00  0.00    +0.000 C 
ENDBRANCH  17  23
ENDBRANCH   1  16
BRANCH   3  25
ATOM     25  O   UNL     1      -0.021   9.962  17.284  0.00  0.00    +0.000 OA
ATOM     26  H   UNL     1      -0.444   9.129  17.017  0.00  0.00    +0.000 HD
ENDBRANCH   3  25
TORSDOF 5
ENDMDL
MODEL 5
REMARK VINA RESULT:      -5.9      4.470      7.788
REMARK  Name = 
REMARK  10 active torsions:
REMARK  status: ('A' for Active; 'I' for Inactive)
REMARK    1  A    between atoms: C_1  and  O_2
REMARK    2  A    between atoms: O_2  and  C_3
REMARK    3  A    between atoms: C_5  and  O_6
REMARK    4  A    between atoms: O_6  and  C_7
REMARK    5  A    between atoms: C_8  and  C_9
REMARK    6  A    between atoms: C_11  and  C_12
REMARK    7  A    between atoms: C_11  and  O_13
REMARK    8  A    between atoms: C_17  and  C_18
REMARK    9  A    between atoms: C_22  and  O_23
REMARK   10  A    between atoms: O_23  and  C_24
REMARK                            x       y       z     vdW  Elec       q    Type
REMARK                         _______ _______ _______ _____ _____    ______ ____
ROOT
ATOM      1  C   UNL     1      -1.906  12.493  21.720  0.00  0.00    +0.000 C 
ATOM      2  C   UNL     1      -1.543  13.985  21.629  0.00  0.00    +0.000 C 
ATOM      3  C   UNL     1      -2.149  14.823  22.751  0.00  0.00    +0.000 C 
ATOM      4  C   UNL     1      -1.458  14.530  24.094  0.00  0.00    +0.000 C 
ATOM      5  C   UNL     1      -3.666  14.588  22.754  0.00  0.00    +0.000 C 
ATOM      6  C   UNL     1      -4.399  15.381  23.845  0.00  0.00    +0.000 C 
ATOM      7  C   UNL     1      -5.904  15.180  23.744  0.00  0.00    +0.000 C 
ATOM      8  C   UNL     1      -6.265  13.693  23.817  0.00  0.00    +0.000 C 
ATOM      9  C   UNL     1      -7.779  13.530  23.687  0.00  0.00    +0.000 C 
ATOM     10  C   UNL     1      -5.510  12.872  22.751  0.00  0.00    +0.000 C 
ATOM     11  C   UNL     1      -3.984  13.084  22.808  0.00  0.00    +0.000 C 
ATOM     12  O   UNL     1      -3.353  12.386  21.707  0.00  0.00    +0.000 OA
ENDROOT
BRANCH   1  16
ATOM     13  C   UNL     1       0.276  10.001  18.818  0.00  0.00    +0.000 A 
ATOM     14  C   UNL     1      -0.790  10.783  18.397  0.00  0.00    +0.000 A 
ATOM     15  C   UNL     1      -1.552  11.535  19.304  0.00  0.00    +0.000 A 
ATOM     16  C   UNL     1      -1.224  11.561  20.685  0.00  0.00    +0.000 A 
ATOM     17  C   UNL     1      -0.128  10.749  21.097  0.00  0.00    +0.000 A 
ATOM     18  C   UNL     1       0.592   9.968  20.169  0.00  0.00    +0.000 A 
BRANCH  13  20
ATOM     19  C   UNL     1       2.087   8.612  18.164  0.00  0.00    +0.000 C 
ATOM     20  O   UNL     1       0.890   9.296  17.820  0.00  0.00    +0.000 OA
ENDBRANCH  13  20
BRANCH  15  21
ATOM     21  O   UNL     1      -2.597  12.300  18.858  0.00  0.00    +0.000 OA
ATOM     22  C   UNL     1      -3.706  11.637  18.261  0.00  0.00    +0.000 C 
ENDBRANCH  15  21
BRANCH  17  23
ATOM     23  O   UNL     1       0.213  10.813  22.431  0.00  0.00    +0.000 OA
ATOM     24  C   UNL     1      -0.046   9.662  23.229  0.00  0.00    +0.000 C 
ENDBRANCH  17  23
ENDBRANCH   1  16
BRANCH   3  25
ATOM     25  O   UNL     1      -1.912  16.207  22.466  0.00  0.00    +0.000 OA
ATOM     26  H   UNL     1      -1.030  16.284  22.066  0.00  0.00    +0.000 HD
ENDBRANCH   3  25
TORSDOF 5
ENDMDL
MODEL 6
REMARK VINA RESULT:      -5.8      1.985      3.824
REMARK  Name = 
REMARK  10 active torsions:
REMARK  status: ('A' for Active; 'I' for Inactive)
REMARK    1  A    between atoms: C_1  and  O_2
REMARK    2  A    between atoms: O_2  and  C_3
REMARK    3  A    between atoms: C_5  and  O_6
REMARK    4  A    between atoms: O_6  and  C_7
REMARK    5  A    between atoms: C_8  and  C_9
REMARK    6  A    between atoms: C_11  and  C_12
REMARK    7  A    between atoms: C_11  and  O_13
REMARK    8  A    between atoms: C_17  and  C_18
REMARK    9  A    between atoms: C_22  and  O_23
REMARK   10  A    between atoms: O_23  and  C_24
REMARK                            x       y       z     vdW  Elec       q    Type
REMARK                         _______ _______ _______ _____ _____    ______ ____
ROOT
ATOM      1  C   UNL     1       3.233   5.591  18.052  0.00  0.00    +0.000 C 
ATOM      2  C   UNL     1       3.396   5.107  19.503  0.00  0.00    +0.000 C 
ATOM      3  C   UNL     1       2.251   5.537  20.415  0.00  0.00    +0.000 C 
ATOM      4  C   UNL     1       0.963   4.763  20.087  0.00  0.00    +0.000 C 
ATOM      5  C   UNL     1       2.115   7.063  20.318  0.00  0.00    +0.000 C 
ATOM      6  C   UNL     1       0.988   7.627  21.196  0.00  0.00    +0.000 C 
ATOM      7  C   UNL     1       0.958   9.147  21.130  0.00  0.00    +0.000 C 
ATOM      8  C   UNL     1       0.813   9.631  19.683  0.00  0.00    +0.000 C 
ATOM      9  C   UNL     1       0.811  11.159  19.656  0.00  0.00    +0.000 C 
ATOM     10  C   UNL     1       1.916   9.046  18.776  0.00  0.00    +0.000 C 
ATOM     11  C   UNL     1       1.992   7.508  18.851  0.00  0.00    +0.000 C 
ATOM     12  O   UNL     1       3.122   7.037  18.076  0.00  0.00    +0.000 OA
ENDROOT
BRANCH   1  16
ATOM     13  C   UNL     1       6.175   4.374  15.009  0.00  0.00    +0.000 A 
ATOM     14  C   UNL     1       5.099   3.550  15.301  0.00  0.00    +0.000 A 
ATOM     15  C   UNL     1       4.181   3.871  16.313  0.00  0.00    +0.000 A 
ATOM     16  C   UNL     1       4.295   5.085  17.041  0.00  0.00    +0.000 A 
ATOM     17  C   UNL     1       5.409   5.916  16.728  0.00  0.00    +0.000 A 
ATOM     18  C   UNL     1       6.341   5.545  15.736  0.00  0.00    +0.000 A 
BRANCH  13  20
ATOM     19  C   UNL     1       6.398   3.591  12.779  0.00  0.00    +0.000 C 
ATOM     20  O   UNL     1       7.001   3.902  14.027  0.00  0.00    +0.000 OA
ENDBRANCH  13  20
BRANCH  15  21
ATOM     21  O   UNL     1       3.127   3.038  16.577  0.00  0.00    +0.000 OA
ATOM     22  C   UNL     1       3.291   2.048  17.586  0.00  0.00    +0.000 C 
ENDBRANCH  15  21
BRANCH  17  23
ATOM     23  O   UNL     1       5.489   7.113  17.408  0.00  0.00    +0.000 OA
ATOM     24  C   UNL     1       6.775   7.714  17.524  0.00  0.00    +0.000 C 
ENDBRANCH  17  23
ENDBRANCH   1  16
BRANCH   3  25
ATOM     25  O   UNL     1       2.593   5.205  21.766  0.00  0.00    +0.000 OA
ATOM     26  H   UNL     1       3.517   4.904  21.775  0.00  0.00    +0.000 HD
ENDBRANCH   3  25
TORSDOF 5
ENDMDL
MODEL 7
REMARK VINA RESULT:      -5.8      5.401      8.473
REMARK  Name = 
REMARK  10 active torsions:
REMARK  status: ('A' for Active; 'I' for Inactive)
REMARK    1  A    between atoms: C_1  and  O_2
REMARK    2  A    between atoms: O_2  and  C_3
REMARK    3  A    between atoms: C_5  and  O_6
REMARK    4  A    between atoms: O_6  and  C_7
REMARK    5  A    between atoms: C_8  and  C_9
REMARK    6  A    between atoms: C_11  and  C_12
REMARK    7  A    between atoms: C_11  and  O_13
REMARK    8  A    between atoms: C_17  and  C_18
REMARK    9  A    between atoms: C_22  and  O_23
REMARK   10  A    between atoms: O_23  and  C_24
REMARK                            x       y       z     vdW  Elec       q    Type
REMARK                         _______ _______ _______ _____ _____    ______ ____
ROOT
ATOM      1  C   UNL     1      -3.206  12.319  20.176  0.00  0.00    +0.000 C 
ATOM      2  C   UNL     1      -2.582  13.725  20.175  0.00  0.00    +0.000 C 
ATOM      3  C   UNL     1      -2.602  14.395  21.546  0.00  0.00    +0.000 C 
ATOM      4  C   UNL     1      -1.597  13.729  22.501  0.00  0.00    +0.000 C 
ATOM      5  C   UNL     1      -4.051  14.397  22.052  0.00  0.00    +0.000 C 
ATOM      6  C   UNL     1      -4.209  15.049  23.433  0.00  0.00    +0.000 C 
ATOM      7  C   UNL     1      -5.673  15.103  23.843  0.00  0.00    +0.000 C 
ATOM      8  C   UNL     1      -6.300  13.705  23.828  0.00  0.00    +0.000 C 
ATOM      9  C   UNL     1      -7.774  13.804  24.221  0.00  0.00    +0.000 C 
ATOM     10  C   UNL     1      -6.120  13.018  22.458  0.00  0.00    +0.000 C 
ATOM     11  C   UNL     1      -4.649  12.980  22.001  0.00  0.00    +0.000 C 
ATOM     12  O   UNL     1      -4.568  12.437  20.661  0.00  0.00    +0.000 OA
ENDROOT
BRANCH   1  16
ATOM     13  C   UNL     1      -2.698  10.243  16.325  0.00  0.00    +0.000 A 
ATOM     14  C   UNL     1      -3.852  10.972  16.573  0.00  0.00    +0.000 A 
ATOM     15  C   UNL     1      -4.079  11.587  17.813  0.00  0.00    +0.000 A 
ATOM     16  C   UNL     1      -3.106  11.528  18.845  0.00  0.00    +0.000 A 
ATOM     17  C   UNL     1      -1.930  10.772  18.572  0.00  0.00    +0.000 A 
ATOM     18  C   UNL     1      -1.748  10.126  17.330  0.00  0.00    +0.000 A 
BRANCH  13  20
ATOM     19  C   UNL     1      -3.586  10.132  14.125  0.00  0.00    +0.000 C 
ATOM     20  O   UNL     1      -2.645   9.670  15.085  0.00  0.00    +0.000 OA
ENDBRANCH  13  20
BRANCH  15  21
ATOM     21  O   UNL     1      -5.227  12.303  18.027  0.00  0.00    +0.000 OA
ATOM     22  C   UNL     1      -6.474  11.640  17.848  0.00  0.00    +0.000 C 
ENDBRANCH  15  21
BRANCH  17  23
ATOM     23  O   UNL     1      -0.970  10.756  19.561  0.00  0.00    +0.000 OA
ATOM     24  C   UNL     1       0.220  10.016  19.306  0.00  0.00    +0.000 C 
ENDBRANCH  17  23
ENDBRANCH   1  16
BRANCH   3  25
ATOM     25  O   UNL     1      -2.180  15.756  21.395  0.00  0.00    +0.000 OA
ATOM     26  H   UNL     1      -1.867  15.873  20.482  0.00  0.00    +0.000 HD
ENDBRANCH   3  25
TORSDOF 5
ENDMDL
MODEL 8
REMARK VINA RESULT:      -5.7      2.560      7.175
REMARK  Name = 
REMARK  10 active torsions:
REMARK  status: ('A' for Active; 'I' for Inactive)
REMARK    1  A    between atoms: C_1  and  O_2
REMARK    2  A    between atoms: O_2  and  C_3
REMARK    3  A    between atoms: C_5  and  O_6
REMARK    4  A    between atoms: O_6  and  C_7
REMARK    5  A    between atoms: C_8  and  C_9
REMARK    6  A    between atoms: C_11  and  C_12
REMARK    7  A    between atoms: C_11  and  O_13
REMARK    8  A    between atoms: C_17  and  C_18
REMARK    9  A    between atoms: C_22  and  O_23
REMARK   10  A    between atoms: O_23  and  C_24
REMARK                            x       y       z     vdW  Elec       q    Type
REMARK                         _______ _______ _______ _____ _____    ______ ____
ROOT
ATOM      1  C   UNL     1       4.447   4.981  17.985  0.00  0.00    +0.000 C 
ATOM      2  C   UNL     1       5.897   5.231  18.431  0.00  0.00    +0.000 C 
ATOM      3  C   UNL     1       6.763   5.859  17.343  0.00  0.00    +0.000 C 
ATOM      4  C   UNL     1       6.371   7.327  17.103  0.00  0.00    +0.000 C 
ATOM      5  C   UNL     1       6.679   4.968  16.095  0.00  0.00    +0.000 C 
ATOM      6  C   UNL     1       7.513   5.494  14.919  0.00  0.00    +0.000 C 
ATOM      7  C   UNL     1       7.464   4.528  13.744  0.00  0.00    +0.000 C 
ATOM      8  C   UNL     1       6.018   4.265  13.310  0.00  0.00    +0.000 C 
ATOM      9  C   UNL     1       6.009   3.273  12.147  0.00  0.00    +0.000 C 
ATOM     10  C   UNL     1       5.153   3.770  14.488  0.00  0.00    +0.000 C 
ATOM     11  C   UNL     1       5.213   4.713  15.706  0.00  0.00    +0.000 C 
ATOM     12  O   UNL     1       4.483   4.128  16.812  0.00  0.00    +0.000 OA
ENDROOT
BRANCH   1  16
ATOM     13  C   UNL     1       1.827   3.683  21.278  0.00  0.00    +0.000 A 
ATOM     14  C   UNL     1       2.701   2.780  20.690  0.00  0.00    +0.000 A 
ATOM     15  C   UNL     1       3.499   3.138  19.594  0.00  0.00    +0.000 A 
ATOM     16  C   UNL     1       3.477   4.462  19.078  0.00  0.00    +0.000 A 
ATOM     17  C   UNL     1       2.571   5.372  19.694  0.00  0.00    +0.000 A 
ATOM     18  C   UNL     1       1.748   4.971  20.767  0.00  0.00    +0.000 A 
BRANCH  13  20
ATOM     19  C   UNL     1       1.155   1.763  22.503  0.00  0.00    +0.000 C 
ATOM     20  O   UNL     1       1.090   3.169  22.309  0.00  0.00    +0.000 OA
ENDBRANCH  13  20
BRANCH  15  21
ATOM     21  O   UNL     1       4.354   2.226  19.035  0.00  0.00    +0.000 OA
ATOM     22  C   UNL     1       3.792   1.099  18.372  0.00  0.00    +0.000 C 
ENDBRANCH  15  21
BRANCH  17  23
ATOM     23  O   UNL     1       2.588   6.666  19.218  0.00  0.00    +0.000 OA
ATOM     24  C   UNL     1       1.972   7.667  20.024  0.00  0.00    +0.000 C 
ENDBRANCH  17  23
ENDBRANCH   1  16
BRANCH   3  25
ATOM     25  O   UNL     1       8.124   5.870  17.791  0.00  0.00    +0.000 OA
ATOM     26  H   UNL     1       8.415   6.797  17.843  0.00  0.00    +0.000 HD
ENDBRANCH   3  25
TORSDOF 5
ENDMDL
MODEL 9
REMARK VINA RESULT:      -5.7      4.229      9.213
REMARK  Name = 
REMARK  10 active torsions:
REMARK  status: ('A' for Active; 'I' for Inactive)
REMARK    1  A    between atoms: C_1  and  O_2
REMARK    2  A    between atoms: O_2  and  C_3
REMARK    3  A    between atoms: C_5  and  O_6
REMARK    4  A    between atoms: O_6  and  C_7
REMARK    5  A    between atoms: C_8  and  C_9
REMARK    6  A    between atoms: C_11  and  C_12
REMARK    7  A    between atoms: C_11  and  O_13
REMARK    8  A    between atoms: C_17  and  C_18
REMARK    9  A    between atoms: C_22  and  O_23
REMARK   10  A    between atoms: O_23  and  C_24
REMARK                            x       y       z     vdW  Elec       q    Type
REMARK                         _______ _______ _______ _____ _____    ______ ____
ROOT
ATOM      1  C   UNL     1      -1.708  12.094  21.026  0.00  0.00    +0.000 C 
ATOM      2  C   UNL     1      -1.607  12.784  19.656  0.00  0.00    +0.000 C 
ATOM      3  C   UNL     1      -1.472  11.803  18.494  0.00  0.00    +0.000 C 
ATOM      4  C   UNL     1      -2.793  11.056  18.246  0.00  0.00    +0.000 C 
ATOM      5  C   UNL     1      -0.271  10.890  18.782  0.00  0.00    +0.000 C 
ATOM      6  C   UNL     1      -0.026   9.849  17.680  0.00  0.00    +0.000 C 
ATOM      7  C   UNL     1       1.225   9.034  17.973  0.00  0.00    +0.000 C 
ATOM      8  C   UNL     1       1.132   8.361  19.346  0.00  0.00    +0.000 C 
ATOM      9  C   UNL     1       2.415   7.573  19.614  0.00  0.00    +0.000 C 
ATOM     10  C   UNL     1       0.849   9.386  20.463  0.00  0.00    +0.000 C 
ATOM     11  C   UNL     1      -0.394  10.251  20.175  0.00  0.00    +0.000 C 
ATOM     12  O   UNL     1      -0.528  11.269  21.197  0.00  0.00    +0.000 OA
ENDROOT
BRANCH   1  16
ATOM     13  C   UNL     1      -2.278  14.571  24.623  0.00  0.00    +0.000 A 
ATOM     14  C   UNL     1      -3.337  13.834  24.114  0.00  0.00    +0.000 A 
ATOM     15  C   UNL     1      -3.212  13.090  22.931  0.00  0.00    +0.000 A 
ATOM     16  C   UNL     1      -1.974  13.024  22.239  0.00  0.00    +0.000 A 
ATOM     17  C   UNL     1      -0.900  13.791  22.776  0.00  0.00    +0.000 A 
ATOM     18  C   UNL     1      -1.068  14.566  23.943  0.00  0.00    +0.000 A 
BRANCH  13  20
ATOM     19  C   UNL     1      -1.566  16.156  26.241  0.00  0.00    +0.000 C 
ATOM     20  O   UNL     1      -2.571  15.275  25.758  0.00  0.00    +0.000 OA
ENDBRANCH  13  20
BRANCH  15  21
ATOM     21  O   UNL     1      -4.275  12.369  22.455  0.00  0.00    +0.000 OA
ATOM     22  C   UNL     1      -5.408  13.084  21.974  0.00  0.00    +0.000 C 
ENDBRANCH  15  21
BRANCH  17  23
ATOM     23  O   UNL     1       0.310  13.687  22.124  0.00  0.00    +0.000 OA
ATOM     24  C   UNL     1       0.955  14.900  21.745  0.00  0.00    +0.000 C 
ENDBRANCH  17  23
ENDBRANCH   1  16
BRANCH   3  25
ATOM     25  O   UNL     1      -1.193  12.544  17.300  0.00  0.00    +0.000 OA
ATOM     26  H   UNL     1      -0.349  12.224  16.939  0.00  0.00    +0.000 HD
ENDBRANCH   3  25
TORSDOF 5
ENDMDL
