MODEL 1
REMARK VINA RESULT:      -7.5      0.000      0.000
REMARK  Name = 
REMARK  6 active torsions:
REMARK  status: ('A' for Active; 'I' for Inactive)
REMARK    1  A    between atoms: C_1  and  C_2
REMARK    2  A    between atoms: N_4  and  C_5
REMARK    3  A    between atoms: C_8  and  O_9
REMARK    4  A    between atoms: O_9  and  C_10
REMARK    5  A    between atoms: N_12  and  C_13
REMARK    6  A    between atoms: C_19  and  O_20
REMARK                            x       y       z     vdW  Elec       q    Type
REMARK                         _______ _______ _______ _____ _____    ______ ____
ROOT
ATOM      1  C   UNL     1       3.176   5.323  19.333  0.00  0.00    +0.000 C 
ATOM      2  O   UNL     1       2.702   4.386  18.696  0.00  0.00    +0.000 OA
ATOM      3  N   UNL     1       4.505   5.688  19.297  0.00  0.00    +0.000 N 
ATOM      4  H   UNL     1       4.885   6.157  20.107  0.00  0.00    +0.000 HD
ENDROOT
BRANCH   3   5
ATOM      5  C   UNL     1       5.409   5.257  18.305  0.00  0.00    +0.000 A 
ATOM      6  C   UNL     1       4.994   5.034  16.986  0.00  0.00    +0.000 A 
ATOM      7  C   UNL     1       5.907   4.619  16.020  0.00  0.00    +0.000 A 
ATOM      8 CL   UNL     1       5.377   4.381  14.401  0.00  0.00    +0.000 Cl
ATOM      9  C   UNL     1       7.243   4.415  16.357  0.00  0.00    +0.000 A 
ATOM     10  C   UNL     1       7.675   4.651  17.665  0.00  0.00    +0.000 A 
ATOM     11  C   UNL     1       6.762   5.091  18.627  0.00  0.00    +0.000 A 
BRANCH  11  12
ATOM     12  O   UNL     1       7.174   5.345  19.907  0.00  0.00    +0.000 OA
ATOM     13  H   UNL     1       8.060   4.963  20.028  0.00  0.00    +0.000 HD
ENDBRANCH  11  12
ENDBRANCH   3   5
BRANCH   1  14
ATOM     14  O   UNL     1       2.453   6.140  20.198  0.00  0.00    +0.000 OA
BRANCH  14  18
ATOM     15  C   UNL     1       0.978   9.907  19.004  0.00  0.00    +0.000 A 
ATOM     16  C   UNL     1       0.851   9.444  20.318  0.00  0.00    +0.000 A 
ATOM     17  C   UNL     1       1.366   8.197  20.691  0.00  0.00    +0.000 A 
ATOM     18  C   UNL     1       2.015   7.406  19.749  0.00  0.00    +0.000 A 
ATOM     19  C   UNL     1       2.213   7.890  18.454  0.00  0.00    +0.000 A 
ATOM     20  C   UNL     1       1.663   9.119  18.074  0.00  0.00    +0.000 A 
BRANCH  15  24
ATOM     21  C   UNL     1       0.027  13.480  18.272  0.00  0.00    +0.000 C 
ATOM     22  C   UNL     1       0.917  12.391  18.812  0.00  0.00    +0.000 C 
ATOM     23  O   UNL     1       1.951  12.673  19.411  0.00  0.00    +0.000 OA
ATOM     24  N   UNL     1       0.429  11.125  18.552  0.00  0.00    +0.000 N 
ATOM     25  H   UNL     1      -0.365  11.054  17.927  0.00  0.00    +0.000 HD
ENDBRANCH  15  24
ENDBRANCH  14  18
ENDBRANCH   1  14
TORSDOF 5
ENDMDL
MODEL 2
REMARK VINA RESULT:      -7.4      1.063      1.063
REMARK  Name = 
REMARK  6 active torsions:
REMARK  status: ('A' for Active; 'I' for Inactive)
REMARK    1  A    between atoms: C_1  and  C_2
REMARK    2  A    between atoms: N_4  and  C_5
REMARK    3  A    between atoms: C_8  and  O_9
REMARK    4  A    between atoms: O_9  and  C_10
REMARK    5  A    between atoms: N_12  and  C_13
REMARK    6  A    between atoms: C_19  and  O_20
REMARK                            x       y       z     vdW  Elec       q    Type
REMARK                         _______ _______ _______ _____ _____    ______ ____
ROOT
ATOM      1  C   UNL     1       3.164   5.034  19.479  0.00  0.00    +0.000 C 
ATOM      2  O   UNL     1       2.797   4.006  18.918  0.00  0.00    +0.000 OA
ATOM      3  N   UNL     1       4.429   5.569  19.363  0.00  0.00    +0.000 N 
ATOM      4  H   UNL     1       4.772   6.133  20.129  0.00  0.00    +0.000 HD
ENDROOT
BRANCH   3   5
ATOM      5  C   UNL     1       5.346   5.201  18.357  0.00  0.00    +0.000 A 
ATOM      6  C   UNL     1       4.936   5.000  17.034  0.00  0.00    +0.000 A 
ATOM      7  C   UNL     1       5.861   4.648  16.055  0.00  0.00    +0.000 A 
ATOM      8 CL   UNL     1       5.335   4.434  14.431  0.00  0.00    +0.000 Cl
ATOM      9  C   UNL     1       7.204   4.487  16.382  0.00  0.00    +0.000 A 
ATOM     10  C   UNL     1       7.631   4.703  17.695  0.00  0.00    +0.000 A 
ATOM     11  C   UNL     1       6.705   5.080  18.672  0.00  0.00    +0.000 A 
BRANCH  11  12
ATOM     12  O   UNL     1       7.111   5.314  19.957  0.00  0.00    +0.000 OA
ATOM     13  H   UNL     1       7.300   6.264  20.053  0.00  0.00    +0.000 HD
ENDBRANCH  11  12
ENDBRANCH   3   5
BRANCH   1  14
ATOM     14  O   UNL     1       2.369   5.799  20.329  0.00  0.00    +0.000 OA
BRANCH  14  18
ATOM     15  C   UNL     1       1.106   9.694  19.317  0.00  0.00    +0.000 A 
ATOM     16  C   UNL     1       0.960   9.181  20.609  0.00  0.00    +0.000 A 
ATOM     17  C   UNL     1       1.405   7.891  20.922  0.00  0.00    +0.000 A 
ATOM     18  C   UNL     1       2.002   7.108  19.940  0.00  0.00    +0.000 A 
ATOM     19  C   UNL     1       2.220   7.637  18.667  0.00  0.00    +0.000 A 
ATOM     20  C   UNL     1       1.739   8.912  18.347  0.00  0.00    +0.000 A 
BRANCH  15  24
ATOM     21  C   UNL     1      -0.831  12.697  18.114  0.00  0.00    +0.000 C 
ATOM     22  C   UNL     1      -0.681  11.279  18.603  0.00  0.00    +0.000 C 
ATOM     23  O   UNL     1      -1.659  10.542  18.683  0.00  0.00    +0.000 OA
ATOM     24  N   UNL     1       0.625  10.961  18.923  0.00  0.00    +0.000 N 
ATOM     25  H   UNL     1       1.297  11.718  18.935  0.00  0.00    +0.000 HD
ENDBRANCH  15  24
ENDBRANCH  14  18
ENDBRANCH   1  14
TORSDOF 5
ENDMDL
MODEL 3
REMARK VINA RESULT:      -7.4      3.453      7.767
REMARK  Name = 
REMARK  6 active torsions:
REMARK  status: ('A' for Active; 'I' for Inactive)
REMARK    1  A    between atoms: C_1  and  C_2
REMARK    2  A    between atoms: N_4  and  C_5
REMARK    3  A    between atoms: C_8  and  O_9
REMARK    4  A    between atoms: O_9  and  C_10
REMARK    5  A    between atoms: N_12  and  C_13
REMARK    6  A    between atoms: C_19  and  O_20
REMARK                            x       y       z     vdW  Elec       q    Type
REMARK                         _______ _______ _______ _____ _____    ______ ____
ROOT
ATOM      1  C   UNL     1       2.704   6.378  19.464  0.00  0.00    +0.000 C 
ATOM      2  O   UNL     1       1.733   5.715  19.817  0.00  0.00    +0.000 OA
ATOM      3  N   UNL     1       2.659   7.729  19.192  0.00  0.00    +0.000 N 
ATOM      4  H   UNL     1       3.339   8.099  18.543  0.00  0.00    +0.000 HD
ENDROOT
BRANCH   3   5
ATOM      5  C   UNL     1       1.601   8.572  19.586  0.00  0.00    +0.000 A 
ATOM      6  C   UNL     1       1.106   8.561  20.896  0.00  0.00    +0.000 A 
ATOM      7  C   UNL     1       0.067   9.411  21.264  0.00  0.00    +0.000 A 
ATOM      8 CL   UNL     1      -0.502   9.397  22.888  0.00  0.00    +0.000 Cl
ATOM      9  C   UNL     1      -0.495  10.279  20.333  0.00  0.00    +0.000 A 
ATOM     10  C   UNL     1       0.000  10.315  19.027  0.00  0.00    +0.000 A 
ATOM     11  C   UNL     1       1.059   9.478  18.665  0.00  0.00    +0.000 A 
BRANCH  11  12
ATOM     12  O   UNL     1       1.568   9.515  17.395  0.00  0.00    +0.000 OA
ATOM     13  H   UNL     1       0.948   9.058  16.800  0.00  0.00    +0.000 HD
ENDBRANCH  11  12
ENDBRANCH   3   5
BRANCH   1  14
ATOM     14  O   UNL     1       3.984   5.866  19.266  0.00  0.00    +0.000 OA
BRANCH  14  18
ATOM     15  C   UNL     1       5.311   4.681  15.441  0.00  0.00    +0.000 A 
ATOM     16  C   UNL     1       4.890   3.754  16.399  0.00  0.00    +0.000 A 
ATOM     17  C   UNL     1       4.437   4.176  17.655  0.00  0.00    +0.000 A 
ATOM     18  C   UNL     1       4.400   5.533  17.957  0.00  0.00    +0.000 A 
ATOM     19  C   UNL     1       4.747   6.471  16.982  0.00  0.00    +0.000 A 
ATOM     20  C   UNL     1       5.236   6.044  15.743  0.00  0.00    +0.000 A 
BRANCH  15  24
ATOM     21  C   UNL     1       7.239   4.247  12.232  0.00  0.00    +0.000 C 
ATOM     22  C   UNL     1       7.037   4.731  13.644  0.00  0.00    +0.000 C 
ATOM     23  O   UNL     1       7.894   5.415  14.195  0.00  0.00    +0.000 OA
ATOM     24  N   UNL     1       5.833   4.318  14.183  0.00  0.00    +0.000 N 
ATOM     25  H   UNL     1       5.296   3.643  13.653  0.00  0.00    +0.000 HD
ENDBRANCH  15  24
ENDBRANCH  14  18
ENDBRANCH   1  14
TORSDOF 5
ENDMDL
MODEL 4
REMARK VINA RESULT:      -7.3      3.610      8.085
REMARK  Name = 
REMARK  6 active torsions:
REMARK  status: ('A' for Active; 'I' for Inactive)
REMARK    1  A    between atoms: C_1  and  C_2
REMARK    2  A    between atoms: N_4  and  C_5
REMARK    3  A    between atoms: C_8  and  O_9
REMARK    4  A    between atoms: O_9  and  C_10
REMARK    5  A    between atoms: N_12  and  C_13
REMARK    6  A    between atoms: C_19  and  O_20
REMARK                            x       y       z     vdW  Elec       q    Type
REMARK                         _______ _______ _______ _____ _____    ______ ____
ROOT
ATOM      1  C   UNL     1       2.853   6.437  18.453  0.00  0.00    +0.000 C 
ATOM      2  O   UNL     1       1.816   5.900  18.075  0.00  0.00    +0.000 OA
ATOM      3  N   UNL     1       2.927   7.734  18.916  0.00  0.00    +0.000 N 
ATOM      4  H   UNL     1       3.808   8.219  18.814  0.00  0.00    +0.000 HD
ENDROOT
BRANCH   3   5
ATOM      5  C   UNL     1       1.805   8.489  19.314  0.00  0.00    +0.000 A 
ATOM      6  C   UNL     1       1.229   8.328  20.581  0.00  0.00    +0.000 A 
ATOM      7  C   UNL     1       0.128   9.092  20.956  0.00  0.00    +0.000 A 
ATOM      8 CL   UNL     1      -0.542   8.895  22.528  0.00  0.00    +0.000 Cl
ATOM      9  C   UNL     1      -0.415  10.023  20.075  0.00  0.00    +0.000 A 
ATOM     10  C   UNL     1       0.161  10.208  18.816  0.00  0.00    +0.000 A 
ATOM     11  C   UNL     1       1.280   9.457  18.449  0.00  0.00    +0.000 A 
BRANCH  11  12
ATOM     12  O   UNL     1       1.867   9.641  17.227  0.00  0.00    +0.000 OA
ATOM     13  H   UNL     1       1.194   9.974  16.608  0.00  0.00    +0.000 HD
ENDBRANCH  11  12
ENDBRANCH   3   5
BRANCH   1  14
ATOM     14  O   UNL     1       4.106   5.830  18.452  0.00  0.00    +0.000 OA
BRANCH  14  18
ATOM     15  C   UNL     1       5.780   4.233  14.926  0.00  0.00    +0.000 A 
ATOM     16  C   UNL     1       5.228   3.418  15.918  0.00  0.00    +0.000 A 
ATOM     17  C   UNL     1       4.662   3.976  17.071  0.00  0.00    +0.000 A 
ATOM     18  C   UNL     1       4.644   5.357  17.234  0.00  0.00    +0.000 A 
ATOM     19  C   UNL     1       5.125   6.183  16.216  0.00  0.00    +0.000 A 
ATOM     20  C   UNL     1       5.725   5.621  15.084  0.00  0.00    +0.000 A 
BRANCH  15  24
ATOM     21  C   UNL     1       6.763   2.782  11.588  0.00  0.00    +0.000 C 
ATOM     22  C   UNL     1       5.806   3.394  12.579  0.00  0.00    +0.000 C 
ATOM     23  O   UNL     1       4.624   3.546  12.288  0.00  0.00    +0.000 OA
ATOM     24  N   UNL     1       6.418   3.732  13.771  0.00  0.00    +0.000 N 
ATOM     25  H   UNL     1       7.427   3.671  13.808  0.00  0.00    +0.000 HD
ENDBRANCH  15  24
ENDBRANCH  14  18
ENDBRANCH   1  14
TORSDOF 5
ENDMDL
MODEL 5
REMARK VINA RESULT:      -7.3      3.606      8.419
REMARK  Name = 
REMARK  6 active torsions:
REMARK  status: ('A' for Active; 'I' for Inactive)
REMARK    1  A    between atoms: C_1  and  C_2
REMARK    2  A    between atoms: N_4  and  C_5
REMARK    3  A    between atoms: C_8  and  O_9
REMARK    4  A    between atoms: O_9  and  C_10
REMARK    5  A    between atoms: N_12  and  C_13
REMARK    6  A    between atoms: C_19  and  O_20
REMARK                            x       y       z     vdW  Elec       q    Type
REMARK                         _______ _______ _______ _____ _____    ______ ____
ROOT
ATOM      1  C   UNL     1      -0.385  11.052  19.361  0.00  0.00    +0.000 C 
ATOM      2  O   UNL     1      -0.196  12.196  18.957  0.00  0.00    +0.000 OA
ATOM      3  N   UNL     1      -1.484  10.288  19.031  0.00  0.00    +0.000 N 
ATOM      4  H   UNL     1      -1.772   9.573  19.685  0.00  0.00    +0.000 HD
ENDROOT
BRANCH   3   5
ATOM      5  C   UNL     1      -2.351  10.584  17.960  0.00  0.00    +0.000 A 
ATOM      6  C   UNL     1      -2.124  10.075  16.675  0.00  0.00    +0.000 A 
ATOM      7  C   UNL     1      -3.000  10.372  15.635  0.00  0.00    +0.000 A 
ATOM      8 CL   UNL     1      -2.714   9.710  14.073  0.00  0.00    +0.000 Cl
ATOM      9  C   UNL     1      -4.109  11.182  15.859  0.00  0.00    +0.000 A 
ATOM     10  C   UNL     1      -4.358  11.682  17.140  0.00  0.00    +0.000 A 
ATOM     11  C   UNL     1      -3.491  11.363  18.188  0.00  0.00    +0.000 A 
BRANCH  11  12
ATOM     12  O   UNL     1      -3.733  11.829  19.452  0.00  0.00    +0.000 OA
ATOM     13  H   UNL     1      -2.885  12.085  19.855  0.00  0.00    +0.000 HD
ENDBRANCH  11  12
ENDBRANCH   3   5
BRANCH   1  14
ATOM     14  O   UNL     1       0.467  10.365  20.222  0.00  0.00    +0.000 OA
BRANCH  14  18
ATOM     15  C   UNL     1       2.558   7.099  18.563  0.00  0.00    +0.000 A 
ATOM     16  C   UNL     1       2.274   8.250  17.822  0.00  0.00    +0.000 A 
ATOM     17  C   UNL     1       1.594   9.327  18.403  0.00  0.00    +0.000 A 
ATOM     18  C   UNL     1       1.197   9.257  19.734  0.00  0.00    +0.000 A 
ATOM     19  C   UNL     1       1.540   8.144  20.504  0.00  0.00    +0.000 A 
ATOM     20  C   UNL     1       2.185   7.054  19.909  0.00  0.00    +0.000 A 
BRANCH  15  24
ATOM     21  C   UNL     1       3.550   3.716  17.229  0.00  0.00    +0.000 C 
ATOM     22  C   UNL     1       2.570   4.770  17.676  0.00  0.00    +0.000 C 
ATOM     23  O   UNL     1       1.368   4.527  17.706  0.00  0.00    +0.000 OA
ATOM     24  N   UNL     1       3.185   5.958  18.019  0.00  0.00    +0.000 N 
ATOM     25  H   UNL     1       4.172   6.047  17.809  0.00  0.00    +0.000 HD
ENDBRANCH  15  24
ENDBRANCH  14  18
ENDBRANCH   1  14
TORSDOF 5
ENDMDL
MODEL 6
REMARK VINA RESULT:      -7.2      3.405      7.652
REMARK  Name = 
REMARK  6 active torsions:
REMARK  status: ('A' for Active; 'I' for Inactive)
REMARK    1  A    between atoms: C_1  and  C_2
REMARK    2  A    between atoms: N_4  and  C_5
REMARK    3  A    between atoms: C_8  and  O_9
REMARK    4  A    between atoms: O_9  and  C_10
REMARK    5  A    between atoms: N_12  and  C_13
REMARK    6  A    between atoms: C_19  and  O_20
REMARK                            x       y       z     vdW  Elec       q    Type
REMARK                         _______ _______ _______ _____ _____    ______ ____
ROOT
ATOM      1  C   UNL     1       2.691   5.904  19.754  0.00  0.00    +0.000 C 
ATOM      2  O   UNL     1       1.609   5.324  19.792  0.00  0.00    +0.000 OA
ATOM      3  N   UNL     1       2.832   7.275  19.745  0.00  0.00    +0.000 N 
ATOM      4  H   UNL     1       3.661   7.658  19.312  0.00  0.00    +0.000 HD
ENDROOT
BRANCH   3   5
ATOM      5  C   UNL     1       1.803   8.171  20.097  0.00  0.00    +0.000 A 
ATOM      6  C   UNL     1       1.399   8.332  21.428  0.00  0.00    +0.000 A 
ATOM      7  C   UNL     1       0.387   9.231  21.754  0.00  0.00    +0.000 A 
ATOM      8 CL   UNL     1      -0.070   9.431  23.400  0.00  0.00    +0.000 Cl
ATOM      9  C   UNL     1      -0.238   9.977  20.758  0.00  0.00    +0.000 A 
ATOM     10  C   UNL     1       0.167   9.841  19.428  0.00  0.00    +0.000 A 
ATOM     11  C   UNL     1       1.199   8.955  19.106  0.00  0.00    +0.000 A 
BRANCH  11  12
ATOM     12  O   UNL     1       1.620   8.825  17.811  0.00  0.00    +0.000 OA
ATOM     13  H   UNL     1       1.340   7.953  17.481  0.00  0.00    +0.000 HD
ENDBRANCH  11  12
ENDBRANCH   3   5
BRANCH   1  14
ATOM     14  O   UNL     1       3.929   5.269  19.694  0.00  0.00    +0.000 OA
BRANCH  14  18
ATOM     15  C   UNL     1       6.356   5.468  16.250  0.00  0.00    +0.000 A 
ATOM     16  C   UNL     1       6.801   4.878  17.437  0.00  0.00    +0.000 A 
ATOM     17  C   UNL     1       5.968   4.809  18.559  0.00  0.00    +0.000 A 
ATOM     18  C   UNL     1       4.680   5.330  18.498  0.00  0.00    +0.000 A 
ATOM     19  C   UNL     1       4.199   5.854  17.296  0.00  0.00    +0.000 A 
ATOM     20  C   UNL     1       5.047   5.956  16.189  0.00  0.00    +0.000 A 
BRANCH  15  24
ATOM     21  C   UNL     1       8.178   5.228  12.959  0.00  0.00    +0.000 C 
ATOM     22  C   UNL     1       7.090   4.880  13.942  0.00  0.00    +0.000 C 
ATOM     23  O   UNL     1       6.259   4.019  13.670  0.00  0.00    +0.000 OA
ATOM     24  N   UNL     1       7.166   5.622  15.105  0.00  0.00    +0.000 N 
ATOM     25  H   UNL     1       7.824   6.391  15.123  0.00  0.00    +0.000 HD
ENDBRANCH  15  24
ENDBRANCH  14  18
ENDBRANCH   1  14
TORSDOF 5
ENDMDL
MODEL 7
REMARK VINA RESULT:      -7.2      3.307      7.616
REMARK  Name = 
REMARK  6 active torsions:
REMARK  status: ('A' for Active; 'I' for Inactive)
REMARK    1  A    between atoms: C_1  and  C_2
REMARK    2  A    between atoms: N_4  and  C_5
REMARK    3  A    between atoms: C_8  and  O_9
REMARK    4  A    between atoms: O_9  and  C_10
REMARK    5  A    between atoms: N_12  and  C_13
REMARK    6  A    between atoms: C_19  and  O_20
REMARK                            x       y       z     vdW  Elec       q    Type
REMARK                         _______ _______ _______ _____ _____    ______ ____
ROOT
ATOM      1  C   UNL     1       2.721   5.797  19.934  0.00  0.00    +0.000 C 
ATOM      2  O   UNL     1       1.683   5.283  20.342  0.00  0.00    +0.000 OA
ATOM      3  N   UNL     1       2.817   7.100  19.495  0.00  0.00    +0.000 N 
ATOM      4  H   UNL     1       3.541   7.316  18.823  0.00  0.00    +0.000 HD
ENDROOT
BRANCH   3   5
ATOM      5  C   UNL     1       1.844   8.087  19.751  0.00  0.00    +0.000 A 
ATOM      6  C   UNL     1       1.241   8.209  21.009  0.00  0.00    +0.000 A 
ATOM      7  C   UNL     1       0.290   9.198  21.242  0.00  0.00    +0.000 A 
ATOM      8 CL   UNL     1      -0.414   9.344  22.804  0.00  0.00    +0.000 Cl
ATOM      9  C   UNL     1      -0.076  10.076  20.224  0.00  0.00    +0.000 A 
ATOM     10  C   UNL     1       0.531   9.978  18.970  0.00  0.00    +0.000 A 
ATOM     11  C   UNL     1       1.503   8.999  18.744  0.00  0.00    +0.000 A 
BRANCH  11  12
ATOM     12  O   UNL     1       2.121   8.904  17.527  0.00  0.00    +0.000 OA
ATOM     13  H   UNL     1       3.075   9.049  17.652  0.00  0.00    +0.000 HD
ENDBRANCH  11  12
ENDBRANCH   3   5
BRANCH   1  14
ATOM     14  O   UNL     1       3.946   5.141  19.837  0.00  0.00    +0.000 OA
BRANCH  14  18
ATOM     15  C   UNL     1       5.518   4.143  16.052  0.00  0.00    +0.000 A 
ATOM     16  C   UNL     1       6.319   4.662  17.073  0.00  0.00    +0.000 A 
ATOM     17  C   UNL     1       5.774   4.968  18.326  0.00  0.00    +0.000 A 
ATOM     18  C   UNL     1       4.421   4.751  18.564  0.00  0.00    +0.000 A 
ATOM     19  C   UNL     1       3.628   4.163  17.577  0.00  0.00    +0.000 A 
ATOM     20  C   UNL     1       4.167   3.896  16.313  0.00  0.00    +0.000 A 
BRANCH  15  24
ATOM     21  C   UNL     1       7.121   4.109  12.640  0.00  0.00    +0.000 C 
ATOM     22  C   UNL     1       6.923   4.611  14.047  0.00  0.00    +0.000 C 
ATOM     23  O   UNL     1       7.556   5.580  14.456  0.00  0.00    +0.000 OA
ATOM     24  N   UNL     1       5.992   3.872  14.752  0.00  0.00    +0.000 N 
ATOM     25  H   UNL     1       5.657   3.018  14.322  0.00  0.00    +0.000 HD
ENDBRANCH  15  24
ENDBRANCH  14  18
ENDBRANCH   1  14
TORSDOF 5
ENDMDL
MODEL 8
REMARK VINA RESULT:      -7.2      3.559      8.400
REMARK  Name = 
REMARK  6 active torsions:
REMARK  status: ('A' for Active; 'I' for Inactive)
REMARK    1  A    between atoms: C_1  and  C_2
REMARK    2  A    between atoms: N_4  and  C_5
REMARK    3  A    between atoms: C_8  and  O_9
REMARK    4  A    between atoms: O_9  and  C_10
REMARK    5  A    between atoms: N_12  and  C_13
REMARK    6  A    between atoms: C_19  and  O_20
REMARK                            x       y       z     vdW  Elec       q    Type
REMARK                         _______ _______ _______ _____ _____    ______ ____
ROOT
ATOM      1  C   UNL     1      -0.248  11.241  19.297  0.00  0.00    +0.000 C 
ATOM      2  O   UNL     1      -0.257  12.446  19.064  0.00  0.00    +0.000 OA
ATOM      3  N   UNL     1      -1.239  10.369  18.899  0.00  0.00    +0.000 N 
ATOM      4  H   UNL     1      -1.377   9.532  19.448  0.00  0.00    +0.000 HD
ENDROOT
BRANCH   3   5
ATOM      5  C   UNL     1      -2.206  10.677  17.920  0.00  0.00    +0.000 A 
ATOM      6  C   UNL     1      -2.103  10.186  16.612  0.00  0.00    +0.000 A 
ATOM      7  C   UNL     1      -3.075  10.494  15.665  0.00  0.00    +0.000 A 
ATOM      8 CL   UNL     1      -2.940   9.854  14.074  0.00  0.00    +0.000 Cl
ATOM      9  C   UNL     1      -4.160  11.298  16.006  0.00  0.00    +0.000 A 
ATOM     10  C   UNL     1      -4.285  11.779  17.312  0.00  0.00    +0.000 A 
ATOM     11  C   UNL     1      -3.321  11.450  18.268  0.00  0.00    +0.000 A 
BRANCH  11  12
ATOM     12  O   UNL     1      -3.441  11.897  19.555  0.00  0.00    +0.000 OA
ATOM     13  H   UNL     1      -4.349  12.222  19.686  0.00  0.00    +0.000 HD
ENDBRANCH  11  12
ENDBRANCH   3   5
BRANCH   1  14
ATOM     14  O   UNL     1       0.748  10.578  20.010  0.00  0.00    +0.000 OA
BRANCH  14  18
ATOM     15  C   UNL     1       2.613   7.085  18.557  0.00  0.00    +0.000 A 
ATOM     16  C   UNL     1       2.162   7.190  19.875  0.00  0.00    +0.000 A 
ATOM     17  C   UNL     1       1.530   8.355  20.326  0.00  0.00    +0.000 A 
ATOM     18  C   UNL     1       1.343   9.422  19.455  0.00  0.00    +0.000 A 
ATOM     19  C   UNL     1       1.722   9.301  18.117  0.00  0.00    +0.000 A 
ATOM     20  C   UNL     1       2.388   8.151  17.680  0.00  0.00    +0.000 A 
BRANCH  15  24
ATOM     21  C   UNL     1       3.794   3.733  17.301  0.00  0.00    +0.000 C 
ATOM     22  C   UNL     1       2.755   4.755  17.682  0.00  0.00    +0.000 C 
ATOM     23  O   UNL     1       1.561   4.475  17.638  0.00  0.00    +0.000 OA
ATOM     24  N   UNL     1       3.309   5.964  18.058  0.00  0.00    +0.000 N 
ATOM     25  H   UNL     1       4.303   6.084  17.910  0.00  0.00    +0.000 HD
ENDBRANCH  15  24
ENDBRANCH  14  18
ENDBRANCH   1  14
TORSDOF 5
ENDMDL
MODEL 9
REMARK VINA RESULT:      -7.2      3.520      7.856
REMARK  Name = 
REMARK  6 active torsions:
REMARK  status: ('A' for Active; 'I' for Inactive)
REMARK    1  A    between atoms: C_1  and  C_2
REMARK    2  A    between atoms: N_4  and  C_5
REMARK    3  A    between atoms: C_8  and  O_9
REMARK    4  A    between atoms: O_9  and  C_10
REMARK    5  A    between atoms: N_12  and  C_13
REMARK    6  A    between atoms: C_19  and  O_20
REMARK                            x       y       z     vdW  Elec       q    Type
REMARK                         _______ _______ _______ _____ _____    ______ ____
ROOT
ATOM      1  C   UNL     1       2.711   6.408  19.029  0.00  0.00    +0.000 C 
ATOM      2  O   UNL     1       1.668   5.771  18.906  0.00  0.00    +0.000 OA
ATOM      3  N   UNL     1       2.768   7.776  19.181  0.00  0.00    +0.000 N 
ATOM      4  H   UNL     1       3.606   8.249  18.870  0.00  0.00    +0.000 HD
ENDROOT
BRANCH   3   5
ATOM      5  C   UNL     1       1.658   8.572  19.531  0.00  0.00    +0.000 A 
ATOM      6  C   UNL     1       1.095   8.517  20.812  0.00  0.00    +0.000 A 
ATOM      7  C   UNL     1       0.007   9.321  21.139  0.00  0.00    +0.000 A 
ATOM      8 CL   UNL     1      -0.647   9.254  22.729  0.00  0.00    +0.000 Cl
ATOM      9  C   UNL     1      -0.538  10.185  20.194  0.00  0.00    +0.000 A 
ATOM     10  C   UNL     1       0.025  10.265  18.917  0.00  0.00    +0.000 A 
ATOM     11  C   UNL     1       1.133   9.475  18.598  0.00  0.00    +0.000 A 
BRANCH  11  12
ATOM     12  O   UNL     1       1.707   9.556  17.359  0.00  0.00    +0.000 OA
ATOM     13  H   UNL     1       1.287  10.287  16.871  0.00  0.00    +0.000 HD
ENDBRANCH  11  12
ENDBRANCH   3   5
BRANCH   1  14
ATOM     14  O   UNL     1       3.987   5.849  19.016  0.00  0.00    +0.000 OA
BRANCH  14  18
ATOM     15  C   UNL     1       5.499   4.638  15.269  0.00  0.00    +0.000 A 
ATOM     16  C   UNL     1       5.341   5.986  15.603  0.00  0.00    +0.000 A 
ATOM     17  C   UNL     1       4.854   6.360  16.861  0.00  0.00    +0.000 A 
ATOM     18  C   UNL     1       4.524   5.383  17.795  0.00  0.00    +0.000 A 
ATOM     19  C   UNL     1       4.748   4.037  17.499  0.00  0.00    +0.000 A 
ATOM     20  C   UNL     1       5.198   3.665  16.227  0.00  0.00    +0.000 A 
BRANCH  15  24
ATOM     21  C   UNL     1       7.144   4.037  11.931  0.00  0.00    +0.000 C 
ATOM     22  C   UNL     1       7.040   4.636  13.310  0.00  0.00    +0.000 C 
ATOM     23  O   UNL     1       7.889   5.426  13.711  0.00  0.00    +0.000 OA
ATOM     24  N   UNL     1       5.927   4.195  14.000  0.00  0.00    +0.000 N 
ATOM     25  H   UNL     1       5.396   3.438  13.587  0.00  0.00    +0.000 HD
ENDBRANCH  15  24
ENDBRANCH  14  18
ENDBRANCH   1  14
TORSDOF 5
ENDMDL
