MODEL 1
REMARK VINA RESULT:      -5.5      0.000      0.000
REMARK  Name = 
REMARK  3 active torsions:
REMARK  status: ('A' for Active; 'I' for Inactive)
REMARK    1  A    between atoms: C_2  and  C_3
REMARK    2  A    between atoms: C_2  and  C_5
REMARK    3  A    between atoms: C_8  and  C_9
REMARK                            x       y       z     vdW  Elec       q    Type
REMARK                         _______ _______ _______ _____ _____    ______ ____
ROOT
ATOM      1  C   UNL     1       4.212   4.748  17.436  0.00  0.00    +0.000 C 
ATOM      2  C   UNL     1       4.475   4.890  18.950  0.00  0.00    +0.000 C 
ATOM      3  C   UNL     1       3.264   4.675  19.809  0.00  0.00    +0.000 C 
ATOM      4  C   UNL     1       2.094   4.192  19.358  0.00  0.00    +0.000 C 
ATOM      5  C   UNL     1       0.922   3.974  20.271  0.00  0.00    +0.000 C 
ATOM      6  C   UNL     1       1.889   3.817  17.913  0.00  0.00    +0.000 C 
ATOM      7  C   UNL     1       3.191   3.643  17.127  0.00  0.00    +0.000 C 
ENDROOT
BRANCH   1   9
ATOM      8  C   UNL     1       5.528   4.264  15.338  0.00  0.00    +0.000 C 
ATOM      9  C   UNL     1       5.497   4.569  16.648  0.00  0.00    +0.000 C 
BRANCH   9  10
ATOM     10  C   UNL     1       6.820   4.729  17.321  0.00  0.00    +0.000 C 
ATOM     11  O   UNL     1       7.882   4.384  16.819  0.00  0.00    +0.000 OA
ENDBRANCH   9  10
ENDBRANCH   1   9
TORSDOF 2
ENDMDL
MODEL 2
REMARK VINA RESULT:      -5.5      2.769      4.727
REMARK  Name = 
REMARK  3 active torsions:
REMARK  status: ('A' for Active; 'I' for Inactive)
REMARK    1  A    between atoms: C_2  and  C_3
REMARK    2  A    between atoms: C_2  and  C_5
REMARK    3  A    between atoms: C_8  and  C_9
REMARK                            x       y       z     vdW  Elec       q    Type
REMARK                         _______ _______ _______ _____ _____    ______ ____
ROOT
ATOM      1  C   UNL     1       2.763   3.915  18.992  0.00  0.00    +0.000 C 
ATOM      2  C   UNL     1       2.544   5.442  19.013  0.00  0.00    +0.000 C 
ATOM      3  C   UNL     1       3.441   6.207  18.085  0.00  0.00    +0.000 C 
ATOM      4  C   UNL     1       4.222   5.638  17.151  0.00  0.00    +0.000 C 
ATOM      5  C   UNL     1       5.081   6.457  16.232  0.00  0.00    +0.000 C 
ATOM      6  C   UNL     1       4.269   4.146  16.950  0.00  0.00    +0.000 C 
ATOM      7  C   UNL     1       3.094   3.397  17.584  0.00  0.00    +0.000 C 
ENDROOT
BRANCH   1   9
ATOM      8  C   UNL     1       0.753   2.393  18.907  0.00  0.00    +0.000 C 
ATOM      9  C   UNL     1       1.599   3.163  19.613  0.00  0.00    +0.000 C 
BRANCH   9  10
ATOM     10  C   UNL     1       1.344   3.254  21.081  0.00  0.00    +0.000 C 
ATOM     11  O   UNL     1       2.122   2.837  21.930  0.00  0.00    +0.000 OA
ENDBRANCH   9  10
ENDBRANCH   1   9
TORSDOF 2
ENDMDL
MODEL 3
REMARK VINA RESULT:      -5.4      0.890      1.444
REMARK  Name = 
REMARK  3 active torsions:
REMARK  status: ('A' for Active; 'I' for Inactive)
REMARK    1  A    between atoms: C_2  and  C_3
REMARK    2  A    between atoms: C_2  and  C_5
REMARK    3  A    between atoms: C_8  and  C_9
REMARK                            x       y       z     vdW  Elec       q    Type
REMARK                         _______ _______ _______ _____ _____    ______ ____
ROOT
ATOM      1  C   UNL     1       4.388   3.989  17.681  0.00  0.00    +0.000 C 
ATOM      2  C   UNL     1       3.123   4.864  17.574  0.00  0.00    +0.000 C 
ATOM      3  C   UNL     1       2.065   4.550  18.591  0.00  0.00    +0.000 C 
ATOM      4  C   UNL     1       2.251   3.738  19.646  0.00  0.00    +0.000 C 
ATOM      5  C   UNL     1       1.162   3.479  20.646  0.00  0.00    +0.000 C 
ATOM      6  C   UNL     1       3.568   3.054  19.905  0.00  0.00    +0.000 C 
ATOM      7  C   UNL     1       4.745   3.664  19.140  0.00  0.00    +0.000 C 
ENDROOT
BRANCH   1   9
ATOM      8  C   UNL     1       5.468   5.103  15.692  0.00  0.00    +0.000 C 
ATOM      9  C   UNL     1       5.564   4.588  16.930  0.00  0.00    +0.000 C 
BRANCH   9  10
ATOM     10  C   UNL     1       6.915   4.630  17.563  0.00  0.00    +0.000 C 
ATOM     11  O   UNL     1       7.953   4.386  16.959  0.00  0.00    +0.000 OA
ENDBRANCH   9  10
ENDBRANCH   1   9
TORSDOF 2
ENDMDL
MODEL 4
REMARK VINA RESULT:      -5.4      1.200      1.670
REMARK  Name = 
REMARK  3 active torsions:
REMARK  status: ('A' for Active; 'I' for Inactive)
REMARK    1  A    between atoms: C_2  and  C_3
REMARK    2  A    between atoms: C_2  and  C_5
REMARK    3  A    between atoms: C_8  and  C_9
REMARK                            x       y       z     vdW  Elec       q    Type
REMARK                         _______ _______ _______ _____ _____    ______ ____
ROOT
ATOM      1  C   UNL     1       4.502   4.670  17.685  0.00  0.00    +0.000 C 
ATOM      2  C   UNL     1       4.259   3.223  17.210  0.00  0.00    +0.000 C 
ATOM      3  C   UNL     1       2.983   2.614  17.712  0.00  0.00    +0.000 C 
ATOM      4  C   UNL     1       2.014   3.303  18.338  0.00  0.00    +0.000 C 
ATOM      5  C   UNL     1       0.744   2.645  18.796  0.00  0.00    +0.000 C 
ATOM      6  C   UNL     1       2.127   4.782  18.600  0.00  0.00    +0.000 C 
ATOM      7  C   UNL     1       3.199   5.481  17.760  0.00  0.00    +0.000 C 
ENDROOT
BRANCH   1   9
ATOM      8  C   UNL     1       5.274   6.153  15.795  0.00  0.00    +0.000 C 
ATOM      9  C   UNL     1       5.559   5.375  16.853  0.00  0.00    +0.000 C 
BRANCH   9  10
ATOM     10  C   UNL     1       7.005   5.223  17.193  0.00  0.00    +0.000 C 
ATOM     11  O   UNL     1       7.772   4.493  16.579  0.00  0.00    +0.000 OA
ENDBRANCH   9  10
ENDBRANCH   1   9
TORSDOF 2
ENDMDL
MODEL 5
REMARK VINA RESULT:      -5.4      1.407      1.640
REMARK  Name = 
REMARK  3 active torsions:
REMARK  status: ('A' for Active; 'I' for Inactive)
REMARK    1  A    between atoms: C_2  and  C_3
REMARK    2  A    between atoms: C_2  and  C_5
REMARK    3  A    between atoms: C_8  and  C_9
REMARK                            x       y       z     vdW  Elec       q    Type
REMARK                         _______ _______ _______ _____ _____    ______ ____
ROOT
ATOM      1  C   UNL     1       4.368   4.587  17.176  0.00  0.00    +0.000 C 
ATOM      2  C   UNL     1       3.193   5.438  17.699  0.00  0.00    +0.000 C 
ATOM      3  C   UNL     1       2.001   4.642  18.140  0.00  0.00    +0.000 C 
ATOM      4  C   UNL     1       1.998   3.305  18.283  0.00  0.00    +0.000 C 
ATOM      5  C   UNL     1       0.780   2.563  18.752  0.00  0.00    +0.000 C 
ATOM      6  C   UNL     1       3.219   2.469  18.005  0.00  0.00    +0.000 C 
ATOM      7  C   UNL     1       4.522   3.272  17.955  0.00  0.00    +0.000 C 
ENDROOT
BRANCH   1   9
ATOM      8  C   UNL     1       5.732   6.682  16.833  0.00  0.00    +0.000 C 
ATOM      9  C   UNL     1       5.667   5.372  17.129  0.00  0.00    +0.000 C 
BRANCH   9  10
ATOM     10  C   UNL     1       6.964   4.694  17.420  0.00  0.00    +0.000 C 
ATOM     11  O   UNL     1       7.826   4.488  16.574  0.00  0.00    +0.000 OA
ENDBRANCH   9  10
ENDBRANCH   1   9
TORSDOF 2
ENDMDL
MODEL 6
REMARK VINA RESULT:      -5.3      2.728      4.877
REMARK  Name = 
REMARK  3 active torsions:
REMARK  status: ('A' for Active; 'I' for Inactive)
REMARK    1  A    between atoms: C_2  and  C_3
REMARK    2  A    between atoms: C_2  and  C_5
REMARK    3  A    between atoms: C_8  and  C_9
REMARK                            x       y       z     vdW  Elec       q    Type
REMARK                         _______ _______ _______ _____ _____    ______ ____
ROOT
ATOM      1  C   UNL     1       2.311   4.592  18.655  0.00  0.00    +0.000 C 
ATOM      2  C   UNL     1       3.321   3.713  17.890  0.00  0.00    +0.000 C 
ATOM      3  C   UNL     1       4.261   4.477  17.006  0.00  0.00    +0.000 C 
ATOM      4  C   UNL     1       4.386   5.816  17.017  0.00  0.00    +0.000 C 
ATOM      5  C   UNL     1       5.364   6.526  16.126  0.00  0.00    +0.000 C 
ATOM      6  C   UNL     1       3.573   6.686  17.938  0.00  0.00    +0.000 C 
ATOM      7  C   UNL     1       2.928   5.927  19.100  0.00  0.00    +0.000 C 
ENDROOT
BRANCH   1   9
ATOM      8  C   UNL     1       0.752   2.881  19.658  0.00  0.00    +0.000 C 
ATOM      9  C   UNL     1       1.671   3.850  19.815  0.00  0.00    +0.000 C 
BRANCH   9  10
ATOM     10  C   UNL     1       2.051   4.182  21.219  0.00  0.00    +0.000 C 
ATOM     11  O   UNL     1       2.295   3.337  22.072  0.00  0.00    +0.000 OA
ENDBRANCH   9  10
ENDBRANCH   1   9
TORSDOF 2
ENDMDL
MODEL 7
REMARK VINA RESULT:      -5.3      0.672      1.646
REMARK  Name = 
REMARK  3 active torsions:
REMARK  status: ('A' for Active; 'I' for Inactive)
REMARK    1  A    between atoms: C_2  and  C_3
REMARK    2  A    between atoms: C_2  and  C_5
REMARK    3  A    between atoms: C_8  and  C_9
REMARK                            x       y       z     vdW  Elec       q    Type
REMARK                         _______ _______ _______ _____ _____    ______ ____
ROOT
ATOM      1  C   UNL     1       4.691   4.295  17.827  0.00  0.00    +0.000 C 
ATOM      2  C   UNL     1       3.441   3.711  17.139  0.00  0.00    +0.000 C 
ATOM      3  C   UNL     1       2.251   3.565  18.039  0.00  0.00    +0.000 C 
ATOM      4  C   UNL     1       2.173   4.082  19.278  0.00  0.00    +0.000 C 
ATOM      5  C   UNL     1       0.945   3.925  20.126  0.00  0.00    +0.000 C 
ATOM      6  C   UNL     1       3.303   4.870  19.886  0.00  0.00    +0.000 C 
ATOM      7  C   UNL     1       4.331   5.369  18.866  0.00  0.00    +0.000 C 
ENDROOT
BRANCH   1   9
ATOM      8  C   UNL     1       5.385   5.410  15.673  0.00  0.00    +0.000 C 
ATOM      9  C   UNL     1       5.714   4.798  16.825  0.00  0.00    +0.000 C 
BRANCH   9  10
ATOM     10  C   UNL     1       7.173   4.627  17.090  0.00  0.00    +0.000 C 
ATOM     11  O   UNL     1       7.639   4.429  18.206  0.00  0.00    +0.000 OA
ENDBRANCH   9  10
ENDBRANCH   1   9
TORSDOF 2
ENDMDL
MODEL 8
REMARK VINA RESULT:      -5.3      2.828      4.837
REMARK  Name = 
REMARK  3 active torsions:
REMARK  status: ('A' for Active; 'I' for Inactive)
REMARK    1  A    between atoms: C_2  and  C_3
REMARK    2  A    between atoms: C_2  and  C_5
REMARK    3  A    between atoms: C_8  and  C_9
REMARK                            x       y       z     vdW  Elec       q    Type
REMARK                         _______ _______ _______ _____ _____    ______ ____
ROOT
ATOM      1  C   UNL     1       3.361   4.379  19.397  0.00  0.00    +0.000 C 
ATOM      2  C   UNL     1       3.313   5.897  19.127  0.00  0.00    +0.000 C 
ATOM      3  C   UNL     1       4.060   6.330  17.900  0.00  0.00    +0.000 C 
ATOM      4  C   UNL     1       4.555   5.484  16.980  0.00  0.00    +0.000 C 
ATOM      5  C   UNL     1       5.273   5.977  15.757  0.00  0.00    +0.000 C 
ATOM      6  C   UNL     1       4.401   3.991  17.103  0.00  0.00    +0.000 C 
ATOM      7  C   UNL     1       3.320   3.559  18.098  0.00  0.00    +0.000 C 
ENDROOT
BRANCH   1   9
ATOM      8  C   UNL     1       1.080   4.522  20.467  0.00  0.00    +0.000 C 
ATOM      9  C   UNL     1       2.289   3.939  20.378  0.00  0.00    +0.000 C 
BRANCH   9  10
ATOM     10  C   UNL     1       2.546   2.803  21.311  0.00  0.00    +0.000 C 
ATOM     11  O   UNL     1       1.771   2.465  22.197  0.00  0.00    +0.000 OA
ENDBRANCH   9  10
ENDBRANCH   1   9
TORSDOF 2
ENDMDL
MODEL 9
REMARK VINA RESULT:      -5.3      1.625      1.976
REMARK  Name = 
REMARK  3 active torsions:
REMARK  status: ('A' for Active; 'I' for Inactive)
REMARK    1  A    between atoms: C_2  and  C_3
REMARK    2  A    between atoms: C_2  and  C_5
REMARK    3  A    between atoms: C_8  and  C_9
REMARK                            x       y       z     vdW  Elec       q    Type
REMARK                         _______ _______ _______ _____ _____    ______ ____
ROOT
ATOM      1  C   UNL     1       3.790   3.922  17.463  0.00  0.00    +0.000 C 
ATOM      2  C   UNL     1       2.608   4.856  17.795  0.00  0.00    +0.000 C 
ATOM      3  C   UNL     1       1.774   4.408  18.958  0.00  0.00    +0.000 C 
ATOM      4  C   UNL     1       2.115   3.411  19.792  0.00  0.00    +0.000 C 
ATOM      5  C   UNL     1       1.251   3.022  20.956  0.00  0.00    +0.000 C 
ATOM      6  C   UNL     1       3.396   2.635  19.627  0.00  0.00    +0.000 C 
ATOM      7  C   UNL     1       4.426   3.323  18.728  0.00  0.00    +0.000 C 
ENDROOT
BRANCH   1   9
ATOM      8  C   UNL     1       5.714   3.922  15.832  0.00  0.00    +0.000 C 
ATOM      9  C   UNL     1       4.821   4.597  16.576  0.00  0.00    +0.000 C 
BRANCH   9  10
ATOM     10  C   UNL     1       4.882   6.086  16.496  0.00  0.00    +0.000 C 
ATOM     11  O   UNL     1       5.247   6.696  15.499  0.00  0.00    +0.000 OA
ENDBRANCH   9  10
ENDBRANCH   1   9
TORSDOF 2
ENDMDL
