MODEL 1
REMARK VINA RESULT:      -6.6      0.000      0.000
REMARK  Name = 
REMARK  4 active torsions:
REMARK  status: ('A' for Active; 'I' for Inactive)
REMARK    1  A    between atoms: N_1  and  N_2
REMARK    2  A    between atoms: N_4  and  C_5
REMARK    3  A    between atoms: C_5  and  C_6
REMARK    4  A    between atoms: C_6  and  O_8
REMARK                            x       y       z     vdW  Elec       q    Type
REMARK                         _______ _______ _______ _____ _____    ______ ____
ROOT
ATOM      1  N   UNL     1       4.025   3.777  18.244  0.00  0.00    +0.000 NA
ATOM      2  C   UNL     1       5.147   3.905  17.580  0.00  0.00    +0.000 C 
ATOM      3  N   UNL     1       6.307   4.285  18.208  0.00  0.00    +0.000 N 
ATOM      4  N   UNL     1       5.269   3.612  16.242  0.00  0.00    +0.000 N 
ATOM      5  C   UNL     1       6.161   4.198  15.411  0.00  0.00    +0.000 A 
ATOM      6  C   UNL     1       6.171   3.963  14.016  0.00  0.00    +0.000 A 
ATOM      7  C   UNL     1       7.190   4.744  13.523  0.00  0.00    +0.000 A 
ATOM      8  N   UNL     1       7.716   5.392  14.597  0.00  0.00    +0.000 N 
ATOM      9  N   UNL     1       7.125   5.062  15.757  0.00  0.00    +0.000 NA
ATOM     10  H   UNL     1       6.946   4.672  17.497  0.00  0.00    +0.000 HD
ATOM     11  H   UNL     1       4.446   3.148  15.885  0.00  0.00    +0.000 HD
ATOM     12  H   UNL     1       8.476   6.065  14.617  0.00  0.00    +0.000 HD
ENDROOT
BRANCH   1  13
ATOM     13  N   UNL     1       2.937   3.447  17.496  0.00  0.00    +0.000 N 
ATOM     14  H   UNL     1       2.293   4.244  17.500  0.00  0.00    +0.000 HD
ATOM     15  H   UNL     1       3.205   3.334  16.515  0.00  0.00    +0.000 HD
ENDBRANCH   1  13
BRANCH   3  16
ATOM     16  C   UNL     1       6.251   5.171  19.374  0.00  0.00    +0.000 C 
BRANCH  16  17
ATOM     17  C   UNL     1       7.625   5.805  19.563  0.00  0.00    +0.000 C 
ATOM     18  O   UNL     1       8.144   6.599  18.796  0.00  0.00    +0.000 OA
BRANCH  17  19
ATOM     19  O   UNL     1       8.214   5.401  20.723  0.00  0.00    +0.000 OA
ATOM     20  H   UNL     1       9.188   5.523  20.626  0.00  0.00    +0.000 HD
ENDBRANCH  17  19
ENDBRANCH  16  17
ENDBRANCH   3  16
TORSDOF 4
ENDMDL
MODEL 2
REMARK VINA RESULT:      -6.5      1.602      1.910
REMARK  Name = 
REMARK  4 active torsions:
REMARK  status: ('A' for Active; 'I' for Inactive)
REMARK    1  A    between atoms: N_1  and  N_2
REMARK    2  A    between atoms: N_4  and  C_5
REMARK    3  A    between atoms: C_5  and  C_6
REMARK    4  A    between atoms: C_6  and  O_8
REMARK                            x       y       z     vdW  Elec       q    Type
REMARK                         _______ _______ _______ _____ _____    ______ ____
ROOT
ATOM      1  N   UNL     1       5.773   4.369  18.887  0.00  0.00    +0.000 NA
ATOM      2  C   UNL     1       6.548   4.476  17.837  0.00  0.00    +0.000 C 
ATOM      3  N   UNL     1       7.731   5.170  17.892  0.00  0.00    +0.000 N 
ATOM      4  N   UNL     1       6.281   3.861  16.636  0.00  0.00    +0.000 N 
ATOM      5  C   UNL     1       6.684   4.328  15.433  0.00  0.00    +0.000 A 
ATOM      6  C   UNL     1       6.283   3.737  14.212  0.00  0.00    +0.000 A 
ATOM      7  C   UNL     1       6.871   4.498  13.229  0.00  0.00    +0.000 A 
ATOM      8  N   UNL     1       7.562   5.474  13.876  0.00  0.00    +0.000 N 
ATOM      9  N   UNL     1       7.484   5.382  15.214  0.00  0.00    +0.000 NA
ATOM     10  H   UNL     1       7.989   5.443  16.932  0.00  0.00    +0.000 HD
ATOM     11  H   UNL     1       5.515   3.206  16.715  0.00  0.00    +0.000 HD
ATOM     12  H   UNL     1       8.109   6.230  13.476  0.00  0.00    +0.000 HD
ENDROOT
BRANCH   1  13
ATOM     13  N   UNL     1       4.604   3.701  18.686  0.00  0.00    +0.000 N 
ATOM     14  H   UNL     1       4.588   2.890  19.312  0.00  0.00    +0.000 HD
ATOM     15  H   UNL     1       3.813   4.276  18.988  0.00  0.00    +0.000 HD
ENDBRANCH   1  13
BRANCH   3  16
ATOM     16  C   UNL     1       7.866   6.315  18.797  0.00  0.00    +0.000 C 
BRANCH  16  17
ATOM     17  C   UNL     1       7.773   7.594  17.971  0.00  0.00    +0.000 C 
ATOM     18  O   UNL     1       8.441   8.598  18.156  0.00  0.00    +0.000 OA
BRANCH  17  19
ATOM     19  O   UNL     1       6.866   7.482  16.962  0.00  0.00    +0.000 OA
ATOM     20  H   UNL     1       6.044   7.950  17.242  0.00  0.00    +0.000 HD
ENDBRANCH  17  19
ENDBRANCH  16  17
ENDBRANCH   3  16
TORSDOF 4
ENDMDL
MODEL 3
REMARK VINA RESULT:      -6.4      3.553      4.303
REMARK  Name = 
REMARK  4 active torsions:
REMARK  status: ('A' for Active; 'I' for Inactive)
REMARK    1  A    between atoms: N_1  and  N_2
REMARK    2  A    between atoms: N_4  and  C_5
REMARK    3  A    between atoms: C_5  and  C_6
REMARK    4  A    between atoms: C_6  and  O_8
REMARK                            x       y       z     vdW  Elec       q    Type
REMARK                         _______ _______ _______ _____ _____    ______ ____
ROOT
ATOM      1  N   UNL     1       4.223   2.357  20.207  0.00  0.00    +0.000 NA
ATOM      2  C   UNL     1       4.448   3.427  19.485  0.00  0.00    +0.000 C 
ATOM      3  N   UNL     1       3.469   4.369  19.285  0.00  0.00    +0.000 N 
ATOM      4  N   UNL     1       5.673   3.723  18.935  0.00  0.00    +0.000 N 
ATOM      5  C   UNL     1       5.846   4.445  17.804  0.00  0.00    +0.000 A 
ATOM      6  C   UNL     1       7.114   4.621  17.199  0.00  0.00    +0.000 A 
ATOM      7  C   UNL     1       6.879   5.380  16.077  0.00  0.00    +0.000 A 
ATOM      8  N   UNL     1       5.538   5.609  16.055  0.00  0.00    +0.000 N 
ATOM      9  N   UNL     1       4.891   5.071  17.102  0.00  0.00    +0.000 NA
ATOM     10  H   UNL     1       3.706   4.904  18.436  0.00  0.00    +0.000 HD
ATOM     11  H   UNL     1       6.395   3.108  19.281  0.00  0.00    +0.000 HD
ATOM     12  H   UNL     1       4.998   6.122  15.366  0.00  0.00    +0.000 HD
ENDROOT
BRANCH   1  13
ATOM     13  N   UNL     1       5.258   1.476  20.283  0.00  0.00    +0.000 N 
ATOM     14  H   UNL     1       4.923   0.631  20.755  0.00  0.00    +0.000 HD
ATOM     15  H   UNL     1       5.523   1.162  19.347  0.00  0.00    +0.000 HD
ENDBRANCH   1  13
BRANCH   3  16
ATOM     16  C   UNL     1       2.061   3.965  19.252  0.00  0.00    +0.000 C 
BRANCH  16  17
ATOM     17  C   UNL     1       1.865   2.996  18.091  0.00  0.00    +0.000 C 
ATOM     18  O   UNL     1       1.991   3.279  16.912  0.00  0.00    +0.000 OA
BRANCH  17  19
ATOM     19  O   UNL     1       1.557   1.742  18.524  0.00  0.00    +0.000 OA
ATOM     20  H   UNL     1       2.161   1.108  18.069  0.00  0.00    +0.000 HD
ENDBRANCH  17  19
ENDBRANCH  16  17
ENDBRANCH   3  16
TORSDOF 4
ENDMDL
MODEL 4
REMARK VINA RESULT:      -6.3      2.652      5.098
REMARK  Name = 
REMARK  4 active torsions:
REMARK  status: ('A' for Active; 'I' for Inactive)
REMARK    1  A    between atoms: N_1  and  N_2
REMARK    2  A    between atoms: N_4  and  C_5
REMARK    3  A    between atoms: C_5  and  C_6
REMARK    4  A    between atoms: C_6  and  O_8
REMARK                            x       y       z     vdW  Elec       q    Type
REMARK                         _______ _______ _______ _____ _____    ______ ____
ROOT
ATOM      1  N   UNL     1       7.138   5.154  18.292  0.00  0.00    +0.000 NA
ATOM      2  C   UNL     1       6.139   4.344  18.044  0.00  0.00    +0.000 C 
ATOM      3  N   UNL     1       5.692   4.137  16.762  0.00  0.00    +0.000 N 
ATOM      4  N   UNL     1       5.510   3.601  19.015  0.00  0.00    +0.000 N 
ATOM      5  C   UNL     1       4.219   3.205  18.956  0.00  0.00    +0.000 A 
ATOM      6  C   UNL     1       3.572   2.551  20.031  0.00  0.00    +0.000 A 
ATOM      7  C   UNL     1       2.284   2.334  19.603  0.00  0.00    +0.000 A 
ATOM      8  N   UNL     1       2.215   2.853  18.348  0.00  0.00    +0.000 N 
ATOM      9  N   UNL     1       3.381   3.367  17.922  0.00  0.00    +0.000 NA
ATOM     10  H   UNL     1       4.722   3.789  16.812  0.00  0.00    +0.000 HD
ATOM     11  H   UNL     1       6.008   3.639  19.893  0.00  0.00    +0.000 HD
ATOM     12  H   UNL     1       1.416   2.889  17.723  0.00  0.00    +0.000 HD
ENDROOT
BRANCH   1  13
ATOM     13  N   UNL     1       7.449   5.313  19.608  0.00  0.00    +0.000 N 
ATOM     14  H   UNL     1       8.435   5.066  19.735  0.00  0.00    +0.000 HD
ATOM     15  H   UNL     1       7.394   6.302  19.865  0.00  0.00    +0.000 HD
ENDBRANCH   1  13
BRANCH   3  16
ATOM     16  C   UNL     1       5.794   5.209  15.769  0.00  0.00    +0.000 C 
BRANCH  16  17
ATOM     17  C   UNL     1       6.741   4.754  14.664  0.00  0.00    +0.000 C 
ATOM     18  O   UNL     1       7.708   5.382  14.266  0.00  0.00    +0.000 OA
BRANCH  17  19
ATOM     19  O   UNL     1       6.401   3.528  14.178  0.00  0.00    +0.000 OA
ATOM     20  H   UNL     1       6.718   3.474  13.246  0.00  0.00    +0.000 HD
ENDBRANCH  17  19
ENDBRANCH  16  17
ENDBRANCH   3  16
TORSDOF 4
ENDMDL
MODEL 5
REMARK VINA RESULT:      -6.2      2.517      3.475
REMARK  Name = 
REMARK  4 active torsions:
REMARK  status: ('A' for Active; 'I' for Inactive)
REMARK    1  A    between atoms: N_1  and  N_2
REMARK    2  A    between atoms: N_4  and  C_5
REMARK    3  A    between atoms: C_5  and  C_6
REMARK    4  A    between atoms: C_6  and  O_8
REMARK                            x       y       z     vdW  Elec       q    Type
REMARK                         _______ _______ _______ _____ _____    ______ ____
ROOT
ATOM      1  N   UNL     1       6.858   5.343  19.831  0.00  0.00    +0.000 NA
ATOM      2  C   UNL     1       6.257   5.312  18.667  0.00  0.00    +0.000 C 
ATOM      3  N   UNL     1       4.895   5.169  18.572  0.00  0.00    +0.000 N 
ATOM      4  N   UNL     1       6.917   5.482  17.472  0.00  0.00    +0.000 N 
ATOM      5  C   UNL     1       6.515   4.948  16.296  0.00  0.00    +0.000 A 
ATOM      6  C   UNL     1       7.288   5.039  15.114  0.00  0.00    +0.000 A 
ATOM      7  C   UNL     1       6.567   4.368  14.156  0.00  0.00    +0.000 A 
ATOM      8  N   UNL     1       5.447   3.915  14.780  0.00  0.00    +0.000 N 
ATOM      9  N   UNL     1       5.379   4.272  16.073  0.00  0.00    +0.000 NA
ATOM     10  H   UNL     1       4.674   4.807  17.631  0.00  0.00    +0.000 HD
ATOM     11  H   UNL     1       7.871   5.783  17.613  0.00  0.00    +0.000 HD
ATOM     12  H   UNL     1       4.687   3.365  14.392  0.00  0.00    +0.000 HD
ENDROOT
BRANCH   1  13
ATOM     13  N   UNL     1       8.215   5.435  19.786  0.00  0.00    +0.000 N 
ATOM     14  H   UNL     1       8.464   6.127  19.073  0.00  0.00    +0.000 HD
ATOM     15  H   UNL     1       8.571   5.826  20.662  0.00  0.00    +0.000 HD
ENDBRANCH   1  13
BRANCH   3  16
ATOM     16  C   UNL     1       4.167   4.406  19.590  0.00  0.00    +0.000 C 
BRANCH  16  17
ATOM     17  C   UNL     1       4.471   2.925  19.392  0.00  0.00    +0.000 C 
ATOM     18  O   UNL     1       4.888   2.173  20.257  0.00  0.00    +0.000 OA
BRANCH  17  19
ATOM     19  O   UNL     1       4.193   2.515  18.123  0.00  0.00    +0.000 OA
ATOM     20  H   UNL     1       4.806   2.988  17.512  0.00  0.00    +0.000 HD
ENDBRANCH  17  19
ENDBRANCH  16  17
ENDBRANCH   3  16
TORSDOF 4
ENDMDL
MODEL 6
REMARK VINA RESULT:      -6.2      3.556      4.254
REMARK  Name = 
REMARK  4 active torsions:
REMARK  status: ('A' for Active; 'I' for Inactive)
REMARK    1  A    between atoms: N_1  and  N_2
REMARK    2  A    between atoms: N_4  and  C_5
REMARK    3  A    between atoms: C_5  and  C_6
REMARK    4  A    between atoms: C_6  and  O_8
REMARK                            x       y       z     vdW  Elec       q    Type
REMARK                         _______ _______ _______ _____ _____    ______ ____
ROOT
ATOM      1  N   UNL     1       4.162   2.398  20.037  0.00  0.00    +0.000 NA
ATOM      2  C   UNL     1       4.384   3.429  19.259  0.00  0.00    +0.000 C 
ATOM      3  N   UNL     1       3.379   4.307  18.937  0.00  0.00    +0.000 N 
ATOM      4  N   UNL     1       5.627   3.747  18.765  0.00  0.00    +0.000 N 
ATOM      5  C   UNL     1       5.840   4.400  17.600  0.00  0.00    +0.000 A 
ATOM      6  C   UNL     1       7.134   4.598  17.062  0.00  0.00    +0.000 A 
ATOM      7  C   UNL     1       6.938   5.270  15.879  0.00  0.00    +0.000 A 
ATOM      8  N   UNL     1       5.593   5.431  15.760  0.00  0.00    +0.000 N 
ATOM      9  N   UNL     1       4.904   4.933  16.801  0.00  0.00    +0.000 NA
ATOM     10  H   UNL     1       3.645   4.796  18.068  0.00  0.00    +0.000 HD
ATOM     11  H   UNL     1       6.353   3.191  19.195  0.00  0.00    +0.000 HD
ATOM     12  H   UNL     1       5.074   5.872  15.006  0.00  0.00    +0.000 HD
ENDROOT
BRANCH   1  13
ATOM     13  N   UNL     1       5.227   1.575  20.236  0.00  0.00    +0.000 N 
ATOM     14  H   UNL     1       6.083   2.130  20.131  0.00  0.00    +0.000 HD
ATOM     15  H   UNL     1       5.246   1.251  21.206  0.00  0.00    +0.000 HD
ENDBRANCH   1  13
BRANCH   3  16
ATOM     16  C   UNL     1       1.995   3.834  18.846  0.00  0.00    +0.000 C 
BRANCH  16  17
ATOM     17  C   UNL     1       1.283   4.177  20.150  0.00  0.00    +0.000 C 
ATOM     18  O   UNL     1       1.339   5.255  20.717  0.00  0.00    +0.000 OA
BRANCH  17  19
ATOM     19  O   UNL     1       0.535   3.135  20.608  0.00  0.00    +0.000 OA
ATOM     20  H   UNL     1      -0.182   3.506  21.176  0.00  0.00    +0.000 HD
ENDBRANCH  17  19
ENDBRANCH  16  17
ENDBRANCH   3  16
TORSDOF 4
ENDMDL
MODEL 7
REMARK VINA RESULT:      -6.2      1.112      1.304
REMARK  Name = 
REMARK  4 active torsions:
REMARK  status: ('A' for Active; 'I' for Inactive)
REMARK    1  A    between atoms: N_1  and  N_2
REMARK    2  A    between atoms: N_4  and  C_5
REMARK    3  A    between atoms: C_5  and  C_6
REMARK    4  A    between atoms: C_6  and  O_8
REMARK                            x       y       z     vdW  Elec       q    Type
REMARK                         _______ _______ _______ _____ _____    ______ ____
ROOT
ATOM      1  N   UNL     1       4.977   4.059  18.193  0.00  0.00    +0.000 NA
ATOM      2  C   UNL     1       5.948   4.146  17.319  0.00  0.00    +0.000 C 
ATOM      3  N   UNL     1       7.193   4.598  17.680  0.00  0.00    +0.000 N 
ATOM      4  N   UNL     1       5.825   3.740  16.011  0.00  0.00    +0.000 N 
ATOM      5  C   UNL     1       6.524   4.266  14.980  0.00  0.00    +0.000 A 
ATOM      6  C   UNL     1       6.279   3.911  13.632  0.00  0.00    +0.000 A 
ATOM      7  C   UNL     1       7.160   4.662  12.892  0.00  0.00    +0.000 A 
ATOM      8  N   UNL     1       7.859   5.409  13.788  0.00  0.00    +0.000 N 
ATOM      9  N   UNL     1       7.509   5.172  15.063  0.00  0.00    +0.000 NA
ATOM     10  H   UNL     1       7.673   4.932  16.831  0.00  0.00    +0.000 HD
ATOM     11  H   UNL     1       4.964   3.233  15.857  0.00  0.00    +0.000 HD
ATOM     12  H   UNL     1       8.587   6.093  13.607  0.00  0.00    +0.000 HD
ENDROOT
BRANCH   1  13
ATOM     13  N   UNL     1       3.778   3.647  17.697  0.00  0.00    +0.000 N 
ATOM     14  H   UNL     1       3.748   2.624  17.742  0.00  0.00    +0.000 HD
ATOM     15  H   UNL     1       3.019   3.956  18.308  0.00  0.00    +0.000 HD
ENDBRANCH   1  13
BRANCH   3  16
ATOM     16  C   UNL     1       7.330   5.581  18.758  0.00  0.00    +0.000 C 
BRANCH  16  17
ATOM     17  C   UNL     1       7.710   6.923  18.141  0.00  0.00    +0.000 C 
ATOM     18  O   UNL     1       7.257   7.370  17.100  0.00  0.00    +0.000 OA
BRANCH  17  19
ATOM     19  O   UNL     1       8.610   7.598  18.909  0.00  0.00    +0.000 OA
ATOM     20  H   UNL     1       8.163   8.406  19.257  0.00  0.00    +0.000 HD
ENDBRANCH  17  19
ENDBRANCH  16  17
ENDBRANCH   3  16
TORSDOF 4
ENDMDL
MODEL 8
REMARK VINA RESULT:      -6.1      1.635      3.838
REMARK  Name = 
REMARK  4 active torsions:
REMARK  status: ('A' for Active; 'I' for Inactive)
REMARK    1  A    between atoms: N_1  and  N_2
REMARK    2  A    between atoms: N_4  and  C_5
REMARK    3  A    between atoms: C_5  and  C_6
REMARK    4  A    between atoms: C_6  and  O_8
REMARK                            x       y       z     vdW  Elec       q    Type
REMARK                         _______ _______ _______ _____ _____    ______ ____
ROOT
ATOM      1  N   UNL     1       6.673   4.223  15.467  0.00  0.00    +0.000 NA
ATOM      2  C   UNL     1       5.873   4.245  16.504  0.00  0.00    +0.000 C 
ATOM      3  N   UNL     1       6.273   4.788  17.700  0.00  0.00    +0.000 N 
ATOM      4  N   UNL     1       4.574   3.798  16.465  0.00  0.00    +0.000 N 
ATOM      5  C   UNL     1       3.907   3.297  17.530  0.00  0.00    +0.000 A 
ATOM      6  C   UNL     1       2.615   2.730  17.422  0.00  0.00    +0.000 A 
ATOM      7  C   UNL     1       2.291   2.321  18.694  0.00  0.00    +0.000 A 
ATOM      8  N   UNL     1       3.360   2.639  19.473  0.00  0.00    +0.000 N 
ATOM      9  N   UNL     1       4.345   3.252  18.796  0.00  0.00    +0.000 NA
ATOM     10  H   UNL     1       5.683   4.392  18.447  0.00  0.00    +0.000 HD
ATOM     11  H   UNL     1       4.275   3.602  15.520  0.00  0.00    +0.000 HD
ATOM     12  H   UNL     1       3.487   2.475  20.466  0.00  0.00    +0.000 HD
ENDROOT
BRANCH   1  13
ATOM     13  N   UNL     1       6.176   3.610  14.358  0.00  0.00    +0.000 N 
ATOM     14  H   UNL     1       6.063   4.318  13.626  0.00  0.00    +0.000 HD
ATOM     15  H   UNL     1       6.863   2.953  13.980  0.00  0.00    +0.000 HD
ENDBRANCH   1  13
BRANCH   3  16
ATOM     16  C   UNL     1       7.685   4.736  18.092  0.00  0.00    +0.000 C 
BRANCH  16  17
ATOM     17  C   UNL     1       7.960   5.886  19.054  0.00  0.00    +0.000 C 
ATOM     18  O   UNL     1       8.180   7.040  18.724  0.00  0.00    +0.000 OA
BRANCH  17  19
ATOM     19  O   UNL     1       7.902   5.485  20.354  0.00  0.00    +0.000 OA
ATOM     20  H   UNL     1       8.156   4.532  20.387  0.00  0.00    +0.000 HD
ENDBRANCH  17  19
ENDBRANCH  16  17
ENDBRANCH   3  16
TORSDOF 4
ENDMDL
MODEL 9
REMARK VINA RESULT:      -6.1      2.722      5.011
REMARK  Name = 
REMARK  4 active torsions:
REMARK  status: ('A' for Active; 'I' for Inactive)
REMARK    1  A    between atoms: N_1  and  N_2
REMARK    2  A    between atoms: N_4  and  C_5
REMARK    3  A    between atoms: C_5  and  C_6
REMARK    4  A    between atoms: C_6  and  O_8
REMARK                            x       y       z     vdW  Elec       q    Type
REMARK                         _______ _______ _______ _____ _____    ______ ____
ROOT
ATOM      1  N   UNL     1       7.901   4.950  18.614  0.00  0.00    +0.000 NA
ATOM      2  C   UNL     1       6.666   4.608  18.340  0.00  0.00    +0.000 C 
ATOM      3  N   UNL     1       6.327   4.086  17.117  0.00  0.00    +0.000 N 
ATOM      4  N   UNL     1       5.643   4.679  19.255  0.00  0.00    +0.000 N 
ATOM      5  C   UNL     1       4.344   4.870  18.933  0.00  0.00    +0.000 A 
ATOM      6  C   UNL     1       3.337   5.065  19.909  0.00  0.00    +0.000 A 
ATOM      7  C   UNL     1       2.173   5.244  19.199  0.00  0.00    +0.000 A 
ATOM      8  N   UNL     1       2.519   5.162  17.887  0.00  0.00    +0.000 N 
ATOM      9  N   UNL     1       3.826   4.914  17.697  0.00  0.00    +0.000 NA
ATOM     10  H   UNL     1       5.316   4.229  16.974  0.00  0.00    +0.000 HD
ATOM     11  H   UNL     1       5.987   4.873  20.185  0.00  0.00    +0.000 HD
ATOM     12  H   UNL     1       1.924   5.260  17.070  0.00  0.00    +0.000 HD
ENDROOT
BRANCH   1  13
ATOM     13  N   UNL     1       8.095   5.504  19.842  0.00  0.00    +0.000 N 
ATOM     14  H   UNL     1       8.655   4.852  20.401  0.00  0.00    +0.000 HD
ATOM     15  H   UNL     1       8.677   6.342  19.762  0.00  0.00    +0.000 HD
ENDBRANCH   1  13
BRANCH   3  16
ATOM     16  C   UNL     1       7.067   4.490  15.918  0.00  0.00    +0.000 C 
BRANCH  16  17
ATOM     17  C   UNL     1       6.062   4.893  14.844  0.00  0.00    +0.000 C 
ATOM     18  O   UNL     1       5.802   4.241  13.847  0.00  0.00    +0.000 OA
BRANCH  17  19
ATOM     19  O   UNL     1       5.449   6.073  15.140  0.00  0.00    +0.000 OA
ATOM     20  H   UNL     1       5.507   6.206  16.116  0.00  0.00    +0.000 HD
ENDBRANCH  17  19
ENDBRANCH  16  17
ENDBRANCH   3  16
TORSDOF 4
ENDMDL
