MODEL 1
REMARK VINA RESULT:      -8.6      0.000      0.000
REMARK  Name = 
REMARK  8 active torsions:
REMARK  status: ('A' for Active; 'I' for Inactive)
REMARK    1  A    between atoms: C_2  and  O_3
REMARK    2  A    between atoms: C_2  and  C_4
REMARK    3  A    between atoms: C_9  and  C_10
REMARK    4  A    between atoms: C_13  and  C_14
REMARK    5  A    between atoms: C_14  and  N_15
REMARK    6  A    between atoms: C_16  and  C_17
REMARK    7  A    between atoms: C_22  and  C_23
REMARK    8  A    between atoms: C_23  and  O_25
REMARK                            x       y       z     vdW  Elec       q    Type
REMARK                         _______ _______ _______ _____ _____    ______ ____
ROOT
ATOM      1  C   UNL     1       0.108  10.107  20.590  0.00  0.00    +0.000 C 
ENDROOT
BRANCH   1   2
ATOM      2  N   UNL     1      -0.015  11.398  19.933  0.00  0.00    +0.000 N 
ATOM      3  C   UNL     1      -0.953  11.796  19.001  0.00  0.00    +0.000 A 
ATOM      4  N   UNL     1      -0.777  13.060  18.651  0.00  0.00    +0.000 NA
ATOM      5  C   UNL     1       0.317  13.485  19.370  0.00  0.00    +0.000 A 
ATOM      6  C   UNL     1       0.940  14.733  19.459  0.00  0.00    +0.000 A 
ATOM      7  C   UNL     1       2.047  14.849  20.309  0.00  0.00    +0.000 A 
ATOM      8  C   UNL     1       2.492  13.722  20.986  0.00  0.00    +0.000 A 
ATOM      9  N   UNL     1       1.944  12.488  20.897  0.00  0.00    +0.000 NA
ATOM     10  C   UNL     1       0.847  12.450  20.118  0.00  0.00    +0.000 A 
BRANCH   3  11
ATOM     11  C   UNL     1      -2.073  10.940  18.408  0.00  0.00    +0.000 C 
ATOM     12  C   UNL     1      -2.519  11.231  16.987  0.00  0.00    +0.000 C 
ATOM     13  C   UNL     1      -1.719  10.006  17.265  0.00  0.00    +0.000 C 
ENDBRANCH   3  11
BRANCH   6  14
ATOM     14  C   UNL     1       0.441  15.900  18.708  0.00  0.00    +0.000 C 
ATOM     15  O   UNL     1       1.198  16.704  18.186  0.00  0.00    +0.000 OA
BRANCH  14  16
ATOM     16  O   UNL     1      -0.905  16.002  18.639  0.00  0.00    +0.000 OA
ATOM     17  H   UNL     1      -1.352  16.070  19.516  0.00  0.00    +0.000 HD
ENDBRANCH  14  16
ENDBRANCH   6  14
ENDBRANCH   1   2
BRANCH   1  21
ATOM     18  C   UNL     1       2.662   7.276  18.444  0.00  0.00    +0.000 A 
ATOM     19  C   UNL     1       2.160   8.442  17.823  0.00  0.00    +0.000 A 
ATOM     20  C   UNL     1       1.367   9.377  18.508  0.00  0.00    +0.000 A 
ATOM     21  C   UNL     1       1.030   9.167  19.847  0.00  0.00    +0.000 A 
ATOM     22  C   UNL     1       1.528   8.022  20.480  0.00  0.00    +0.000 A 
ATOM     23  C   UNL     1       2.337   7.105  19.797  0.00  0.00    +0.000 A 
BRANCH  18  29
ATOM     24  C   UNL     1       3.305   4.917  17.596  0.00  0.00    +0.000 A 
ATOM     25  C   UNL     1       4.208   4.087  16.894  0.00  0.00    +0.000 A 
ATOM     26  C   UNL     1       5.349   4.617  16.300  0.00  0.00    +0.000 A 
ATOM     27  C   UNL     1       5.588   5.980  16.383  0.00  0.00    +0.000 A 
ATOM     28  C   UNL     1       4.696   6.808  17.075  0.00  0.00    +0.000 A 
ATOM     29  C   UNL     1       3.528   6.313  17.704  0.00  0.00    +0.000 A 
BRANCH  24  31
ATOM     30  O   UNL     1       2.027   3.698  19.218  0.00  0.00    +0.000 OA
ATOM     31  C   UNL     1       2.091   4.244  18.135  0.00  0.00    +0.000 C 
BRANCH  31  32
ATOM     32  O   UNL     1       1.042   4.304  17.277  0.00  0.00    +0.000 OA
ATOM     33  H   UNL     1       1.269   4.205  16.333  0.00  0.00    +0.000 HD
ENDBRANCH  31  32
ENDBRANCH  24  31
ENDBRANCH  18  29
ENDBRANCH   1  21
TORSDOF 8
ENDMDL
MODEL 2
REMARK VINA RESULT:      -8.4      0.129      1.040
REMARK  Name = 
REMARK  8 active torsions:
REMARK  status: ('A' for Active; 'I' for Inactive)
REMARK    1  A    between atoms: C_2  and  O_3
REMARK    2  A    between atoms: C_2  and  C_4
REMARK    3  A    between atoms: C_9  and  C_10
REMARK    4  A    between atoms: C_13  and  C_14
REMARK    5  A    between atoms: C_14  and  N_15
REMARK    6  A    between atoms: C_16  and  C_17
REMARK    7  A    between atoms: C_22  and  C_23
REMARK    8  A    between atoms: C_23  and  O_25
REMARK                            x       y       z     vdW  Elec       q    Type
REMARK                         _______ _______ _______ _____ _____    ______ ____
ROOT
ATOM      1  C   UNL     1       0.193  10.081  20.703  0.00  0.00    +0.000 C 
ENDROOT
BRANCH   1   2
ATOM      2  N   UNL     1       0.066  11.355  20.014  0.00  0.00    +0.000 N 
ATOM      3  C   UNL     1      -0.880  11.732  19.081  0.00  0.00    +0.000 A 
ATOM      4  N   UNL     1      -0.706  12.986  18.698  0.00  0.00    +0.000 NA
ATOM      5  C   UNL     1       0.396  13.427  19.396  0.00  0.00    +0.000 A 
ATOM      6  C   UNL     1       1.021  14.676  19.449  0.00  0.00    +0.000 A 
ATOM      7  C   UNL     1       2.136  14.811  20.286  0.00  0.00    +0.000 A 
ATOM      8  C   UNL     1       2.585  13.701  20.986  0.00  0.00    +0.000 A 
ATOM      9  N   UNL     1       2.035  12.466  20.933  0.00  0.00    +0.000 NA
ATOM     10  C   UNL     1       0.931  12.410  20.166  0.00  0.00    +0.000 A 
BRANCH   3  11
ATOM     11  C   UNL     1      -2.007  10.862  18.520  0.00  0.00    +0.000 C 
ATOM     12  C   UNL     1      -2.605  11.247  17.181  0.00  0.00    +0.000 C 
ATOM     13  C   UNL     1      -1.719  10.054  17.268  0.00  0.00    +0.000 C 
ENDBRANCH   3  11
BRANCH   6  14
ATOM     14  C   UNL     1       0.517  15.825  18.674  0.00  0.00    +0.000 C 
ATOM     15  O   UNL     1       1.268  16.655  18.187  0.00  0.00    +0.000 OA
BRANCH  14  16
ATOM     16  O   UNL     1      -0.827  15.879  18.541  0.00  0.00    +0.000 OA
ATOM     17  H   UNL     1      -1.325  15.581  19.339  0.00  0.00    +0.000 HD
ENDBRANCH  14  16
ENDBRANCH   6  14
ENDBRANCH   1   2
BRANCH   1  21
ATOM     18  C   UNL     1       2.738   7.316  18.463  0.00  0.00    +0.000 A 
ATOM     19  C   UNL     1       2.373   7.067  19.805  0.00  0.00    +0.000 A 
ATOM     20  C   UNL     1       1.530   7.928  20.526  0.00  0.00    +0.000 A 
ATOM     21  C   UNL     1       1.032   9.089  19.929  0.00  0.00    +0.000 A 
ATOM     22  C   UNL     1       1.376   9.344  18.597  0.00  0.00    +0.000 A 
ATOM     23  C   UNL     1       2.200   8.470  17.877  0.00  0.00    +0.000 A 
BRANCH  18  29
ATOM     24  C   UNL     1       3.361   4.989  17.516  0.00  0.00    +0.000 A 
ATOM     25  C   UNL     1       4.272   4.175  16.806  0.00  0.00    +0.000 A 
ATOM     26  C   UNL     1       5.448   4.707  16.286  0.00  0.00    +0.000 A 
ATOM     27  C   UNL     1       5.715   6.057  16.451  0.00  0.00    +0.000 A 
ATOM     28  C   UNL     1       4.814   6.869  17.150  0.00  0.00    +0.000 A 
ATOM     29  C   UNL     1       3.612   6.371  17.707  0.00  0.00    +0.000 A 
BRANCH  24  31
ATOM     30  O   UNL     1       1.056   4.344  17.369  0.00  0.00    +0.000 OA
ATOM     31  C   UNL     1       2.111   4.320  17.970  0.00  0.00    +0.000 C 
BRANCH  31  32
ATOM     32  O   UNL     1       2.273   3.666  19.148  0.00  0.00    +0.000 OA
ATOM     33  H   UNL     1       2.485   4.232  19.914  0.00  0.00    +0.000 HD
ENDBRANCH  31  32
ENDBRANCH  24  31
ENDBRANCH  18  29
ENDBRANCH   1  21
TORSDOF 8
ENDMDL
MODEL 3
REMARK VINA RESULT:      -8.3      3.622      8.538
REMARK  Name = 
REMARK  8 active torsions:
REMARK  status: ('A' for Active; 'I' for Inactive)
REMARK    1  A    between atoms: C_2  and  O_3
REMARK    2  A    between atoms: C_2  and  C_4
REMARK    3  A    between atoms: C_9  and  C_10
REMARK    4  A    between atoms: C_13  and  C_14
REMARK    5  A    between atoms: C_14  and  N_15
REMARK    6  A    between atoms: C_16  and  C_17
REMARK    7  A    between atoms: C_22  and  C_23
REMARK    8  A    between atoms: C_23  and  O_25
REMARK                            x       y       z     vdW  Elec       q    Type
REMARK                         _______ _______ _______ _____ _____    ______ ____
ROOT
ATOM      1  C   UNL     1       3.137   5.756  19.603  0.00  0.00    +0.000 C 
ENDROOT
BRANCH   1   2
ATOM      2  N   UNL     1       3.776   5.255  18.397  0.00  0.00    +0.000 N 
ATOM      3  C   UNL     1       3.265   4.376  17.463  0.00  0.00    +0.000 A 
ATOM      4  N   UNL     1       4.119   4.177  16.471  0.00  0.00    +0.000 NA
ATOM      5  C   UNL     1       5.219   4.942  16.784  0.00  0.00    +0.000 A 
ATOM      6  C   UNL     1       6.411   5.179  16.093  0.00  0.00    +0.000 A 
ATOM      7  C   UNL     1       7.346   6.038  16.683  0.00  0.00    +0.000 A 
ATOM      8  C   UNL     1       7.066   6.578  17.931  0.00  0.00    +0.000 A 
ATOM      9  N   UNL     1       5.945   6.344  18.651  0.00  0.00    +0.000 NA
ATOM     10  C   UNL     1       5.055   5.565  18.009  0.00  0.00    +0.000 A 
BRANCH   3  11
ATOM     11  C   UNL     1       1.901   3.684  17.507  0.00  0.00    +0.000 C 
ATOM     12  C   UNL     1       1.834   2.272  18.056  0.00  0.00    +0.000 C 
ATOM     13  C   UNL     1       1.298   3.398  18.870  0.00  0.00    +0.000 C 
ENDBRANCH   3  11
BRANCH   6  14
ATOM     14  C   UNL     1       6.673   4.570  14.776  0.00  0.00    +0.000 C 
ATOM     15  O   UNL     1       7.260   5.172  13.891  0.00  0.00    +0.000 OA
BRANCH  14  16
ATOM     16  O   UNL     1       6.223   3.304  14.633  0.00  0.00    +0.000 OA
ATOM     17  H   UNL     1       6.134   3.009  13.695  0.00  0.00    +0.000 HD
ENDBRANCH  14  16
ENDBRANCH   6  14
ENDBRANCH   1   2
BRANCH   1  21
ATOM     18  C   UNL     1       1.274   9.679  19.072  0.00  0.00    +0.000 A 
ATOM     19  C   UNL     1       1.984   9.046  18.026  0.00  0.00    +0.000 A 
ATOM     20  C   UNL     1       2.558   7.773  18.172  0.00  0.00    +0.000 A 
ATOM     21  C   UNL     1       2.457   7.089  19.385  0.00  0.00    +0.000 A 
ATOM     22  C   UNL     1       1.748   7.697  20.427  0.00  0.00    +0.000 A 
ATOM     23  C   UNL     1       1.159   8.958  20.269  0.00  0.00    +0.000 A 
BRANCH  18  29
ATOM     24  C   UNL     1      -0.626  11.262  18.308  0.00  0.00    +0.000 A 
ATOM     25  C   UNL     1      -1.116  12.577  18.150  0.00  0.00    +0.000 A 
ATOM     26  C   UNL     1      -0.354  13.674  18.545  0.00  0.00    +0.000 A 
ATOM     27  C   UNL     1       0.890  13.466  19.120  0.00  0.00    +0.000 A 
ATOM     28  C   UNL     1       1.378  12.164  19.282  0.00  0.00    +0.000 A 
ATOM     29  C   UNL     1       0.646  11.019  18.885  0.00  0.00    +0.000 A 
BRANCH  24  31
ATOM     30  O   UNL     1      -2.459   9.742  18.595  0.00  0.00    +0.000 OA
ATOM     31  C   UNL     1      -1.556  10.171  17.905  0.00  0.00    +0.000 C 
BRANCH  31  32
ATOM     32  O   UNL     1      -1.289   9.696  16.663  0.00  0.00    +0.000 OA
ATOM     33  H   UNL     1      -1.999   9.160  16.260  0.00  0.00    +0.000 HD
ENDBRANCH  31  32
ENDBRANCH  24  31
ENDBRANCH  18  29
ENDBRANCH   1  21
TORSDOF 8
ENDMDL
MODEL 4
REMARK VINA RESULT:      -8.3      3.554      9.662
REMARK  Name = 
REMARK  8 active torsions:
REMARK  status: ('A' for Active; 'I' for Inactive)
REMARK    1  A    between atoms: C_2  and  O_3
REMARK    2  A    between atoms: C_2  and  C_4
REMARK    3  A    between atoms: C_9  and  C_10
REMARK    4  A    between atoms: C_13  and  C_14
REMARK    5  A    between atoms: C_14  and  N_15
REMARK    6  A    between atoms: C_16  and  C_17
REMARK    7  A    between atoms: C_22  and  C_23
REMARK    8  A    between atoms: C_23  and  O_25
REMARK                            x       y       z     vdW  Elec       q    Type
REMARK                         _______ _______ _______ _____ _____    ______ ____
ROOT
ATOM      1  C   UNL     1       3.393   6.573  17.362  0.00  0.00    +0.000 C 
ENDROOT
BRANCH   1   2
ATOM      2  N   UNL     1       4.011   5.437  18.027  0.00  0.00    +0.000 N 
ATOM      3  C   UNL     1       5.292   5.337  18.531  0.00  0.00    +0.000 A 
ATOM      4  N   UNL     1       5.493   4.162  19.105  0.00  0.00    +0.000 NA
ATOM      5  C   UNL     1       4.307   3.479  18.954  0.00  0.00    +0.000 A 
ATOM      6  C   UNL     1       3.900   2.218  19.399  0.00  0.00    +0.000 A 
ATOM      7  C   UNL     1       2.597   1.808  19.090  0.00  0.00    +0.000 A 
ATOM      8  C   UNL     1       1.794   2.647  18.330  0.00  0.00    +0.000 A 
ATOM      9  N   UNL     1       2.162   3.855  17.845  0.00  0.00    +0.000 NA
ATOM     10  C   UNL     1       3.398   4.226  18.227  0.00  0.00    +0.000 A 
BRANCH   3  11
ATOM     11  C   UNL     1       6.386   6.404  18.467  0.00  0.00    +0.000 C 
ATOM     12  C   UNL     1       7.817   5.977  18.735  0.00  0.00    +0.000 C 
ATOM     13  C   UNL     1       7.402   6.308  17.344  0.00  0.00    +0.000 C 
ENDBRANCH   3  11
BRANCH   6  14
ATOM     14  C   UNL     1       4.794   1.353  20.191  0.00  0.00    +0.000 C 
ATOM     15  O   UNL     1       5.159   1.658  21.315  0.00  0.00    +0.000 OA
BRANCH  14  16
ATOM     16  O   UNL     1       5.165   0.206  19.581  0.00  0.00    +0.000 OA
ATOM     17  H   UNL     1       5.925   0.304  18.960  0.00  0.00    +0.000 HD
ENDBRANCH  14  16
ENDBRANCH   6  14
ENDBRANCH   1   2
BRANCH   1  21
ATOM     18  C   UNL     1       1.074   9.116  20.064  0.00  0.00    +0.000 A 
ATOM     19  C   UNL     1       1.661   7.907  20.503  0.00  0.00    +0.000 A 
ATOM     20  C   UNL     1       2.436   7.098  19.656  0.00  0.00    +0.000 A 
ATOM     21  C   UNL     1       2.638   7.464  18.323  0.00  0.00    +0.000 A 
ATOM     22  C   UNL     1       2.071   8.663  17.876  0.00  0.00    +0.000 A 
ATOM     23  C   UNL     1       1.318   9.476  18.732  0.00  0.00    +0.000 A 
BRANCH  18  29
ATOM     24  C   UNL     1      -0.084  11.325  20.756  0.00  0.00    +0.000 A 
ATOM     25  C   UNL     1      -0.815  12.059  21.716  0.00  0.00    +0.000 A 
ATOM     26  C   UNL     1      -1.185  11.481  22.926  0.00  0.00    +0.000 A 
ATOM     27  C   UNL     1      -0.850  10.160  23.179  0.00  0.00    +0.000 A 
ATOM     28  C   UNL     1      -0.129   9.426  22.229  0.00  0.00    +0.000 A 
ATOM     29  C   UNL     1       0.280   9.975  20.991  0.00  0.00    +0.000 A 
BRANCH  24  31
ATOM     30  O   UNL     1       1.223  12.644  19.239  0.00  0.00    +0.000 OA
ATOM     31  C   UNL     1       0.201  12.033  19.477  0.00  0.00    +0.000 C 
BRANCH  31  32
ATOM     32  O   UNL     1      -0.816  11.923  18.587  0.00  0.00    +0.000 OA
ATOM     33  H   UNL     1      -1.686  11.703  18.972  0.00  0.00    +0.000 HD
ENDBRANCH  31  32
ENDBRANCH  24  31
ENDBRANCH  18  29
ENDBRANCH   1  21
TORSDOF 8
ENDMDL
MODEL 5
REMARK VINA RESULT:      -8.3      3.483      9.579
REMARK  Name = 
REMARK  8 active torsions:
REMARK  status: ('A' for Active; 'I' for Inactive)
REMARK    1  A    between atoms: C_2  and  O_3
REMARK    2  A    between atoms: C_2  and  C_4
REMARK    3  A    between atoms: C_9  and  C_10
REMARK    4  A    between atoms: C_13  and  C_14
REMARK    5  A    between atoms: C_14  and  N_15
REMARK    6  A    between atoms: C_16  and  C_17
REMARK    7  A    between atoms: C_22  and  C_23
REMARK    8  A    between atoms: C_23  and  O_25
REMARK                            x       y       z     vdW  Elec       q    Type
REMARK                         _______ _______ _______ _____ _____    ______ ____
ROOT
ATOM      1  C   UNL     1       3.361   6.768  17.307  0.00  0.00    +0.000 C 
ENDROOT
BRANCH   1   2
ATOM      2  N   UNL     1       3.960   5.615  17.959  0.00  0.00    +0.000 N 
ATOM      3  C   UNL     1       5.250   5.474  18.430  0.00  0.00    +0.000 A 
ATOM      4  N   UNL     1       5.428   4.295  19.002  0.00  0.00    +0.000 NA
ATOM      5  C   UNL     1       4.218   3.650  18.884  0.00  0.00    +0.000 A 
ATOM      6  C   UNL     1       3.782   2.404  19.344  0.00  0.00    +0.000 A 
ATOM      7  C   UNL     1       2.459   2.035  19.070  0.00  0.00    +0.000 A 
ATOM      8  C   UNL     1       1.664   2.898  18.328  0.00  0.00    +0.000 A 
ATOM      9  N   UNL     1       2.057   4.092  17.831  0.00  0.00    +0.000 NA
ATOM     10  C   UNL     1       3.314   4.424  18.179  0.00  0.00    +0.000 A 
BRANCH   3  11
ATOM     11  C   UNL     1       6.376   6.506  18.334  0.00  0.00    +0.000 C 
ATOM     12  C   UNL     1       7.796   6.038  18.586  0.00  0.00    +0.000 C 
ATOM     13  C   UNL     1       7.370   6.363  17.197  0.00  0.00    +0.000 C 
ENDBRANCH   3  11
BRANCH   6  14
ATOM     14  C   UNL     1       4.668   1.513  20.115  0.00  0.00    +0.000 C 
ATOM     15  O   UNL     1       5.055   1.799  21.237  0.00  0.00    +0.000 OA
BRANCH  14  16
ATOM     16  O   UNL     1       5.007   0.364  19.489  0.00  0.00    +0.000 OA
ATOM     17  H   UNL     1       4.768   0.338  18.532  0.00  0.00    +0.000 HD
ENDBRANCH  14  16
ENDBRANCH   6  14
ENDBRANCH   1   2
BRANCH   1  21
ATOM     18  C   UNL     1       1.084   9.218  20.127  0.00  0.00    +0.000 A 
ATOM     19  C   UNL     1       1.181   9.558  18.758  0.00  0.00    +0.000 A 
ATOM     20  C   UNL     1       1.880   8.763  17.835  0.00  0.00    +0.000 A 
ATOM     21  C   UNL     1       2.528   7.599  18.256  0.00  0.00    +0.000 A 
ATOM     22  C   UNL     1       2.432   7.244  19.606  0.00  0.00    +0.000 A 
ATOM     23  C   UNL     1       1.715   8.029  20.517  0.00  0.00    +0.000 A 
BRANCH  18  29
ATOM     24  C   UNL     1       0.167  11.471  21.014  0.00  0.00    +0.000 A 
ATOM     25  C   UNL     1      -0.566  12.178  21.993  0.00  0.00    +0.000 A 
ATOM     26  C   UNL     1      -1.158  11.510  23.061  0.00  0.00    +0.000 A 
ATOM     27  C   UNL     1      -1.042  10.132  23.150  0.00  0.00    +0.000 A 
ATOM     28  C   UNL     1      -0.319   9.425  22.181  0.00  0.00    +0.000 A 
ATOM     29  C   UNL     1       0.309  10.062  21.084  0.00  0.00    +0.000 A 
BRANCH  24  31
ATOM     30  O   UNL     1       0.061  12.619  18.912  0.00  0.00    +0.000 OA
ATOM     31  C   UNL     1       0.701  12.286  19.889  0.00  0.00    +0.000 C 
BRANCH  31  32
ATOM     32  O   UNL     1       2.002  12.627  20.068  0.00  0.00    +0.000 OA
ATOM     33  H   UNL     1       2.170  13.265  20.787  0.00  0.00    +0.000 HD
ENDBRANCH  31  32
ENDBRANCH  24  31
ENDBRANCH  18  29
ENDBRANCH   1  21
TORSDOF 8
ENDMDL
MODEL 6
REMARK VINA RESULT:      -8.3      3.491      8.787
REMARK  Name = 
REMARK  8 active torsions:
REMARK  status: ('A' for Active; 'I' for Inactive)
REMARK    1  A    between atoms: C_2  and  O_3
REMARK    2  A    between atoms: C_2  and  C_4
REMARK    3  A    between atoms: C_9  and  C_10
REMARK    4  A    between atoms: C_13  and  C_14
REMARK    5  A    between atoms: C_14  and  N_15
REMARK    6  A    between atoms: C_16  and  C_17
REMARK    7  A    between atoms: C_22  and  C_23
REMARK    8  A    between atoms: C_23  and  O_25
REMARK                            x       y       z     vdW  Elec       q    Type
REMARK                         _______ _______ _______ _____ _____    ______ ____
ROOT
ATOM      1  C   UNL     1       3.558   5.785  19.697  0.00  0.00    +0.000 C 
ENDROOT
BRANCH   1   2
ATOM      2  N   UNL     1       4.117   5.285  18.451  0.00  0.00    +0.000 N 
ATOM      3  C   UNL     1       3.555   4.389  17.563  0.00  0.00    +0.000 A 
ATOM      4  N   UNL     1       4.339   4.196  16.514  0.00  0.00    +0.000 NA
ATOM      5  C   UNL     1       5.445   4.982  16.741  0.00  0.00    +0.000 A 
ATOM      6  C   UNL     1       6.580   5.232  15.964  0.00  0.00    +0.000 A 
ATOM      7  C   UNL     1       7.540   6.112  16.478  0.00  0.00    +0.000 A 
ATOM      8  C   UNL     1       7.341   6.658  17.739  0.00  0.00    +0.000 A 
ATOM      9  N   UNL     1       6.279   6.411  18.540  0.00  0.00    +0.000 NA
ATOM     10  C   UNL     1       5.359   5.612  17.970  0.00  0.00    +0.000 A 
BRANCH   3  11
ATOM     11  C   UNL     1       2.210   3.675  17.711  0.00  0.00    +0.000 C 
ATOM     12  C   UNL     1       2.206   2.159  17.747  0.00  0.00    +0.000 C 
ATOM     13  C   UNL     1       1.949   2.920  19.002  0.00  0.00    +0.000 C 
ENDBRANCH   3  11
BRANCH   6  14
ATOM     14  C   UNL     1       6.757   4.617  14.636  0.00  0.00    +0.000 C 
ATOM     15  O   UNL     1       7.347   5.187  13.733  0.00  0.00    +0.000 OA
BRANCH  14  16
ATOM     16  O   UNL     1       6.226   3.381  14.504  0.00  0.00    +0.000 OA
ATOM     17  H   UNL     1       6.848   2.647  14.723  0.00  0.00    +0.000 HD
ENDBRANCH  14  16
ENDBRANCH   6  14
ENDBRANCH   1   2
BRANCH   1  21
ATOM     18  C   UNL     1       0.878   9.169  18.986  0.00  0.00    +0.000 A 
ATOM     19  C   UNL     1       0.923   8.508  20.234  0.00  0.00    +0.000 A 
ATOM     20  C   UNL     1       1.802   7.442  20.487  0.00  0.00    +0.000 A 
ATOM     21  C   UNL     1       2.662   6.985  19.486  0.00  0.00    +0.000 A 
ATOM     22  C   UNL     1       2.637   7.637  18.248  0.00  0.00    +0.000 A 
ATOM     23  C   UNL     1       1.773   8.713  18.009  0.00  0.00    +0.000 A 
BRANCH  18  29
ATOM     24  C   UNL     1       0.114  11.625  19.279  0.00  0.00    +0.000 A 
ATOM     25  C   UNL     1      -0.836  12.637  19.016  0.00  0.00    +0.000 A 
ATOM     26  C   UNL     1      -1.961  12.374  18.239  0.00  0.00    +0.000 A 
ATOM     27  C   UNL     1      -2.135  11.109  17.701  0.00  0.00    +0.000 A 
ATOM     28  C   UNL     1      -1.195  10.103  17.956  0.00  0.00    +0.000 A 
ATOM     29  C   UNL     1      -0.043  10.320  18.749  0.00  0.00    +0.000 A 
BRANCH  24  31
ATOM     30  O   UNL     1       1.423  11.892  21.271  0.00  0.00    +0.000 OA
ATOM     31  C   UNL     1       1.303  12.043  20.071  0.00  0.00    +0.000 C 
BRANCH  31  32
ATOM     32  O   UNL     1       2.260  12.621  19.303  0.00  0.00    +0.000 OA
ATOM     33  H   UNL     1       2.732  13.368  19.717  0.00  0.00    +0.000 HD
ENDBRANCH  31  32
ENDBRANCH  24  31
ENDBRANCH  18  29
ENDBRANCH   1  21
TORSDOF 8
ENDMDL
MODEL 7
REMARK VINA RESULT:      -8.3      3.477      8.789
REMARK  Name = 
REMARK  8 active torsions:
REMARK  status: ('A' for Active; 'I' for Inactive)
REMARK    1  A    between atoms: C_2  and  O_3
REMARK    2  A    between atoms: C_2  and  C_4
REMARK    3  A    between atoms: C_9  and  C_10
REMARK    4  A    between atoms: C_13  and  C_14
REMARK    5  A    between atoms: C_14  and  N_15
REMARK    6  A    between atoms: C_16  and  C_17
REMARK    7  A    between atoms: C_22  and  C_23
REMARK    8  A    between atoms: C_23  and  O_25
REMARK                            x       y       z     vdW  Elec       q    Type
REMARK                         _______ _______ _______ _____ _____    ______ ____
ROOT
ATOM      1  C   UNL     1       3.556   5.882  19.626  0.00  0.00    +0.000 C 
ENDROOT
BRANCH   1   2
ATOM      2  N   UNL     1       4.118   5.355  18.393  0.00  0.00    +0.000 N 
ATOM      3  C   UNL     1       3.573   4.417  17.538  0.00  0.00    +0.000 A 
ATOM      4  N   UNL     1       4.353   4.209  16.490  0.00  0.00    +0.000 NA
ATOM      5  C   UNL     1       5.442   5.029  16.683  0.00  0.00    +0.000 A 
ATOM      6  C   UNL     1       6.565   5.282  15.889  0.00  0.00    +0.000 A 
ATOM      7  C   UNL     1       7.507   6.201  16.368  0.00  0.00    +0.000 A 
ATOM      8  C   UNL     1       7.303   6.782  17.612  0.00  0.00    +0.000 A 
ATOM      9  N   UNL     1       6.253   6.536  18.428  0.00  0.00    +0.000 NA
ATOM     10  C   UNL     1       5.349   5.697  17.891  0.00  0.00    +0.000 A 
BRANCH   3  11
ATOM     11  C   UNL     1       2.247   3.677  17.720  0.00  0.00    +0.000 C 
ATOM     12  C   UNL     1       2.265   2.161  17.684  0.00  0.00    +0.000 C 
ATOM     13  C   UNL     1       2.062   2.858  18.984  0.00  0.00    +0.000 C 
ENDBRANCH   3  11
BRANCH   6  14
ATOM     14  C   UNL     1       6.748   4.628  14.581  0.00  0.00    +0.000 C 
ATOM     15  O   UNL     1       7.307   5.188  13.651  0.00  0.00    +0.000 OA
BRANCH  14  16
ATOM     16  O   UNL     1       6.259   3.371  14.497  0.00  0.00    +0.000 OA
ATOM     17  H   UNL     1       6.948   2.675  14.375  0.00  0.00    +0.000 HD
ENDBRANCH  14  16
ENDBRANCH   6  14
ENDBRANCH   1   2
BRANCH   1  21
ATOM     18  C   UNL     1       0.881   9.288  19.008  0.00  0.00    +0.000 A 
ATOM     19  C   UNL     1       1.670   8.764  17.959  0.00  0.00    +0.000 A 
ATOM     20  C   UNL     1       2.508   7.651  18.134  0.00  0.00    +0.000 A 
ATOM     21  C   UNL     1       2.600   7.027  19.380  0.00  0.00    +0.000 A 
ATOM     22  C   UNL     1       1.816   7.528  20.427  0.00  0.00    +0.000 A 
ATOM     23  C   UNL     1       0.966   8.625  20.240  0.00  0.00    +0.000 A 
BRANCH  18  29
ATOM     24  C   UNL     1       0.241  11.791  19.180  0.00  0.00    +0.000 A 
ATOM     25  C   UNL     1      -0.702  12.817  18.953  0.00  0.00    +0.000 A 
ATOM     26  C   UNL     1      -1.927  12.540  18.352  0.00  0.00    +0.000 A 
ATOM     27  C   UNL     1      -2.211  11.244  17.953  0.00  0.00    +0.000 A 
ATOM     28  C   UNL     1      -1.278  10.223  18.173  0.00  0.00    +0.000 A 
ATOM     29  C   UNL     1      -0.026  10.454  18.791  0.00  0.00    +0.000 A 
BRANCH  24  31
ATOM     30  O   UNL     1       2.470  12.674  19.143  0.00  0.00    +0.000 OA
ATOM     31  C   UNL     1       1.537  12.220  19.774  0.00  0.00    +0.000 C 
BRANCH  31  32
ATOM     32  O   UNL     1       1.571  12.051  21.120  0.00  0.00    +0.000 OA
ATOM     33  H   UNL     1       2.288  11.477  21.450  0.00  0.00    +0.000 HD
ENDBRANCH  31  32
ENDBRANCH  24  31
ENDBRANCH  18  29
ENDBRANCH   1  21
TORSDOF 8
ENDMDL
MODEL 8
REMARK VINA RESULT:      -8.2      4.293      8.746
REMARK  Name = 
REMARK  8 active torsions:
REMARK  status: ('A' for Active; 'I' for Inactive)
REMARK    1  A    between atoms: C_2  and  O_3
REMARK    2  A    between atoms: C_2  and  C_4
REMARK    3  A    between atoms: C_9  and  C_10
REMARK    4  A    between atoms: C_13  and  C_14
REMARK    5  A    between atoms: C_14  and  N_15
REMARK    6  A    between atoms: C_16  and  C_17
REMARK    7  A    between atoms: C_22  and  C_23
REMARK    8  A    between atoms: C_23  and  O_25
REMARK                            x       y       z     vdW  Elec       q    Type
REMARK                         _______ _______ _______ _____ _____    ______ ____
ROOT
ATOM      1  C   UNL     1       3.542   4.668  19.881  0.00  0.00    +0.000 C 
ENDROOT
BRANCH   1   2
ATOM      2  N   UNL     1       4.171   4.446  18.589  0.00  0.00    +0.000 N 
ATOM      3  C   UNL     1       3.686   3.725  17.516  0.00  0.00    +0.000 A 
ATOM      4  N   UNL     1       4.518   3.774  16.488  0.00  0.00    +0.000 NA
ATOM      5  C   UNL     1       5.578   4.540  16.918  0.00  0.00    +0.000 A 
ATOM      6  C   UNL     1       6.730   4.981  16.260  0.00  0.00    +0.000 A 
ATOM      7  C   UNL     1       7.628   5.776  16.983  0.00  0.00    +0.000 A 
ATOM      8  C   UNL     1       7.355   6.051  18.316  0.00  0.00    +0.000 A 
ATOM      9  N   UNL     1       6.275   5.611  19.001  0.00  0.00    +0.000 NA
ATOM     10  C   UNL     1       5.415   4.909  18.241  0.00  0.00    +0.000 A 
BRANCH   3  11
ATOM     11  C   UNL     1       2.370   2.948  17.456  0.00  0.00    +0.000 C 
ATOM     12  C   UNL     1       1.682   2.607  18.764  0.00  0.00    +0.000 C 
ATOM     13  C   UNL     1       1.105   3.665  17.890  0.00  0.00    +0.000 C 
ENDBRANCH   3  11
BRANCH   6  14
ATOM     14  C   UNL     1       6.986   4.650  14.847  0.00  0.00    +0.000 C 
ATOM     15  O   UNL     1       7.692   5.349  14.137  0.00  0.00    +0.000 OA
BRANCH  14  16
ATOM     16  O   UNL     1       6.391   3.519  14.408  0.00  0.00    +0.000 OA
ATOM     17  H   UNL     1       6.887   2.692  14.618  0.00  0.00    +0.000 HD
ENDBRANCH  14  16
ENDBRANCH   6  14
ENDBRANCH   1   2
BRANCH   1  21
ATOM     18  C   UNL     1       1.189   8.350  20.093  0.00  0.00    +0.000 A 
ATOM     19  C   UNL     1       2.182   8.159  19.106  0.00  0.00    +0.000 A 
ATOM     20  C   UNL     1       2.922   6.970  19.005  0.00  0.00    +0.000 A 
ATOM     21  C   UNL     1       2.704   5.926  19.907  0.00  0.00    +0.000 A 
ATOM     22  C   UNL     1       1.716   6.095  20.884  0.00  0.00    +0.000 A 
ATOM     23  C   UNL     1       0.967   7.276  20.965  0.00  0.00    +0.000 A 
BRANCH  18  29
ATOM     24  C   UNL     1      -0.131  10.192  21.344  0.00  0.00    +0.000 A 
ATOM     25  C   UNL     1      -0.898  11.377  21.294  0.00  0.00    +0.000 A 
ATOM     26  C   UNL     1      -1.172  11.999  20.079  0.00  0.00    +0.000 A 
ATOM     27  C   UNL     1      -0.664  11.457  18.909  0.00  0.00    +0.000 A 
ATOM     28  C   UNL     1       0.100  10.285  18.952  0.00  0.00    +0.000 A 
ATOM     29  C   UNL     1       0.394   9.611  20.162  0.00  0.00    +0.000 A 
BRANCH  24  31
ATOM     30  O   UNL     1       1.235   9.658  23.241  0.00  0.00    +0.000 OA
ATOM     31  C   UNL     1       0.145   9.655  22.705  0.00  0.00    +0.000 C 
BRANCH  31  32
ATOM     32  O   UNL     1      -0.966   9.152  23.298  0.00  0.00    +0.000 OA
ATOM     33  H   UNL     1      -1.236   9.597  24.124  0.00  0.00    +0.000 HD
ENDBRANCH  31  32
ENDBRANCH  24  31
ENDBRANCH  18  29
ENDBRANCH   1  21
TORSDOF 8
ENDMDL
MODEL 9
REMARK VINA RESULT:      -8.2      3.587      8.583
REMARK  Name = 
REMARK  8 active torsions:
REMARK  status: ('A' for Active; 'I' for Inactive)
REMARK    1  A    between atoms: C_2  and  O_3
REMARK    2  A    between atoms: C_2  and  C_4
REMARK    3  A    between atoms: C_9  and  C_10
REMARK    4  A    between atoms: C_13  and  C_14
REMARK    5  A    between atoms: C_14  and  N_15
REMARK    6  A    between atoms: C_16  and  C_17
REMARK    7  A    between atoms: C_22  and  C_23
REMARK    8  A    between atoms: C_23  and  O_25
REMARK                            x       y       z     vdW  Elec       q    Type
REMARK                         _______ _______ _______ _____ _____    ______ ____
ROOT
ATOM      1  C   UNL     1       2.768   5.631  20.230  0.00  0.00    +0.000 C 
ENDROOT
BRANCH   1   2
ATOM      2  N   UNL     1       3.406   5.044  19.062  0.00  0.00    +0.000 N 
ATOM      3  C   UNL     1       2.836   4.246  18.089  0.00  0.00    +0.000 A 
ATOM      4  N   UNL     1       3.715   3.927  17.153  0.00  0.00    +0.000 NA
ATOM      5  C   UNL     1       4.891   4.527  17.543  0.00  0.00    +0.000 A 
ATOM      6  C   UNL     1       6.147   4.590  16.932  0.00  0.00    +0.000 A 
ATOM      7  C   UNL     1       7.155   5.306  17.589  0.00  0.00    +0.000 A 
ATOM      8  C   UNL     1       6.874   5.881  18.821  0.00  0.00    +0.000 A 
ATOM      9  N   UNL     1       5.687   5.810  19.465  0.00  0.00    +0.000 NA
ATOM     10  C   UNL     1       4.739   5.166  18.760  0.00  0.00    +0.000 A 
BRANCH   3  11
ATOM     11  C   UNL     1       1.387   3.758  18.040  0.00  0.00    +0.000 C 
ATOM     12  C   UNL     1       1.103   2.323  18.442  0.00  0.00    +0.000 C 
ATOM     13  C   UNL     1       0.707   3.429  19.356  0.00  0.00    +0.000 C 
ENDBRANCH   3  11
BRANCH   6  14
ATOM     14  C   UNL     1       6.404   3.950  15.629  0.00  0.00    +0.000 C 
ATOM     15  O   UNL     1       7.076   4.490  14.765  0.00  0.00    +0.000 OA
BRANCH  14  16
ATOM     16  O   UNL     1       5.848   2.727  15.474  0.00  0.00    +0.000 OA
ATOM     17  H   UNL     1       6.060   2.292  14.614  0.00  0.00    +0.000 HD
ENDBRANCH  14  16
ENDBRANCH   6  14
ENDBRANCH   1   2
BRANCH   1  21
ATOM     18  C   UNL     1       1.135   9.593  19.350  0.00  0.00    +0.000 A 
ATOM     19  C   UNL     1       0.986   8.995  20.621  0.00  0.00    +0.000 A 
ATOM     20  C   UNL     1       1.534   7.738  20.929  0.00  0.00    +0.000 A 
ATOM     21  C   UNL     1       2.241   7.022  19.960  0.00  0.00    +0.000 A 
ATOM     22  C   UNL     1       2.407   7.606  18.699  0.00  0.00    +0.000 A 
ATOM     23  C   UNL     1       1.877   8.869  18.406  0.00  0.00    +0.000 A 
BRANCH  18  29
ATOM     24  C   UNL     1      -0.639  11.198  18.363  0.00  0.00    +0.000 A 
ATOM     25  C   UNL     1      -1.069  12.520  18.110  0.00  0.00    +0.000 A 
ATOM     26  C   UNL     1      -0.307  13.609  18.524  0.00  0.00    +0.000 A 
ATOM     27  C   UNL     1       0.877  13.389  19.211  0.00  0.00    +0.000 A 
ATOM     28  C   UNL     1       1.306  12.081  19.467  0.00  0.00    +0.000 A 
ATOM     29  C   UNL     1       0.571  10.943  19.056  0.00  0.00    +0.000 A 
BRANCH  24  31
ATOM     30  O   UNL     1      -2.524   9.730  18.566  0.00  0.00    +0.000 OA
ATOM     31  C   UNL     1      -1.568  10.120  17.926  0.00  0.00    +0.000 C 
BRANCH  31  32
ATOM     32  O   UNL     1      -1.233   9.607  16.716  0.00  0.00    +0.000 OA
ATOM     33  H   UNL     1      -1.460  10.165  15.948  0.00  0.00    +0.000 HD
ENDBRANCH  31  32
ENDBRANCH  24  31
ENDBRANCH  18  29
ENDBRANCH   1  21
TORSDOF 8
ENDMDL
