MODEL 1
REMARK VINA RESULT:      -7.9      0.000      0.000
REMARK  Name = 
REMARK  7 active torsions:
REMARK  status: ('A' for Active; 'I' for Inactive)
REMARK    1  A    between atoms: C_1  and  C_2
REMARK    2  A    between atoms: C_8  and  N_9
REMARK    3  A    between atoms: N_12  and  C_13
REMARK    4  A    between atoms: C_13  and  C_14
REMARK    5  A    between atoms: C_14  and  N_15
REMARK    6  A    between atoms: C_16  and  C_18
REMARK    7  A    between atoms: C_18  and  N_19
REMARK                            x       y       z     vdW  Elec       q    Type
REMARK                         _______ _______ _______ _____ _____    ______ ____
ROOT
ATOM      1  N   UNL     1       8.900  10.153  18.451  0.00  0.00    +0.000 N 
ATOM      2  C   UNL     1       8.761  11.482  18.103  0.00  0.00    +0.000 C 
ATOM      3  O   UNL     1       7.956  11.869  17.261  0.00  0.00    +0.000 OA
ATOM      4  H   UNL     1       9.296   9.959  19.369  0.00  0.00    +0.000 HD
ENDROOT
BRANCH   1   5
ATOM      5  C   UNL     1       8.115   9.137  17.787  0.00  0.00    +0.000 C 
BRANCH   5   6
ATOM      6  C   UNL     1       8.175   7.783  18.512  0.00  0.00    +0.000 C 
BRANCH   6  10
ATOM      7  N   UNL     1       5.273   5.631  18.046  0.00  0.00    +0.000 N 
ATOM      8  C   UNL     1       6.300   5.365  19.065  0.00  0.00    +0.000 C 
ATOM      9  C   UNL     1       7.704   5.401  18.406  0.00  0.00    +0.000 C 
ATOM     10  N   UNL     1       8.007   6.624  17.614  0.00  0.00    +0.000 NA
ATOM     11  C   UNL     1       6.889   6.817  16.647  0.00  0.00    +0.000 C 
ATOM     12  C   UNL     1       5.485   6.877  17.296  0.00  0.00    +0.000 C 
BRANCH   7  20
ATOM     13  C   UNL     1       4.595   3.523  16.037  0.00  0.00    +0.000 C 
ATOM     14  C   UNL     1       3.704   3.955  17.175  0.00  0.00    +0.000 A 
ATOM     15  C   UNL     1       2.505   3.230  17.349  0.00  0.00    +0.000 A 
ATOM     16  C   UNL     1       1.662   3.485  18.427  0.00  0.00    +0.000 A 
ATOM     17  C   UNL     1       1.989   4.492  19.321  0.00  0.00    +0.000 A 
ATOM     18 CL   UNL     1       0.970   4.802  20.672  0.00  0.00    +0.000 Cl
ATOM     19  C   UNL     1       3.159   5.233  19.147  0.00  0.00    +0.000 A 
ATOM     20  C   UNL     1       4.055   4.974  18.092  0.00  0.00    +0.000 A 
ENDBRANCH   7  20
ENDBRANCH   6  10
ENDBRANCH   5   6
ENDBRANCH   1   5
BRANCH   2  21
ATOM     21  C   UNL     1       9.654  12.423  18.899  0.00  0.00    +0.000 C 
BRANCH  21  22
ATOM     22  N   UNL     1       8.990  12.863  20.113  0.00  0.00    +0.000 N 
ATOM     23  C   UNL     1       8.986  12.011  21.212  0.00  0.00    +0.000 A 
ATOM     24  O   UNL     1       9.580  10.939  21.228  0.00  0.00    +0.000 OA
ATOM     25  C   UNL     1       8.196  12.462  22.328  0.00  0.00    +0.000 A 
ATOM     26  C   UNL     1       7.871  11.803  23.498  0.00  0.00    +0.000 A 
ATOM     27  C   UNL     1       7.065  12.673  24.263  0.00  0.00    +0.000 A 
ATOM     28  C   UNL     1       6.922  13.839  23.541  0.00  0.00    +0.000 A 
ATOM     29  N   UNL     1       7.600  13.698  22.353  0.00  0.00    +0.000 N 
ATOM     30  C   UNL     1       7.723  14.595  21.283  0.00  0.00    +0.000 A 
ATOM     31  C   UNL     1       7.174  15.882  21.313  0.00  0.00    +0.000 A 
ATOM     32  C   UNL     1       7.343  16.704  20.209  0.00  0.00    +0.000 A 
ATOM     33  C   UNL     1       8.035  16.210  19.121  0.00  0.00    +0.000 A 
ATOM     34  N   UNL     1       8.576  14.962  19.067  0.00  0.00    +0.000 NA
ATOM     35  C   UNL     1       8.414  14.164  20.153  0.00  0.00    +0.000 A 
ENDBRANCH  21  22
ENDBRANCH   2  21
TORSDOF 6
ENDMDL
MODEL 2
REMARK VINA RESULT:      -7.9      3.366      9.872
REMARK  Name = 
REMARK  7 active torsions:
REMARK  status: ('A' for Active; 'I' for Inactive)
REMARK    1  A    between atoms: C_1  and  C_2
REMARK    2  A    between atoms: C_8  and  N_9
REMARK    3  A    between atoms: N_12  and  C_13
REMARK    4  A    between atoms: C_13  and  C_14
REMARK    5  A    between atoms: C_14  and  N_15
REMARK    6  A    between atoms: C_16  and  C_18
REMARK    7  A    between atoms: C_18  and  N_19
REMARK                            x       y       z     vdW  Elec       q    Type
REMARK                         _______ _______ _______ _____ _____    ______ ____
ROOT
ATOM      1  N   UNL     1       7.711   8.394  17.491  0.00  0.00    +0.000 N 
ATOM      2  C   UNL     1       7.571   7.073  17.865  0.00  0.00    +0.000 C 
ATOM      3  O   UNL     1       8.148   6.592  18.836  0.00  0.00    +0.000 OA
ATOM      4  H   UNL     1       6.957   8.794  16.935  0.00  0.00    +0.000 HD
ENDROOT
BRANCH   1   5
ATOM      5  C   UNL     1       8.600   9.271  18.219  0.00  0.00    +0.000 C 
BRANCH   5   6
ATOM      6  C   UNL     1       8.319  10.755  17.935  0.00  0.00    +0.000 C 
BRANCH   6  10
ATOM      7  N   UNL     1       9.567  13.220  20.311  0.00  0.00    +0.000 N 
ATOM      8  C   UNL     1       8.632  13.566  19.229  0.00  0.00    +0.000 C 
ATOM      9  C   UNL     1       9.180  13.029  17.881  0.00  0.00    +0.000 C 
ATOM     10  N   UNL     1       9.540  11.584  17.867  0.00  0.00    +0.000 NA
ATOM     11  C   UNL     1      10.452  11.342  19.021  0.00  0.00    +0.000 C 
ATOM     12  C   UNL     1       9.884  11.787  20.391  0.00  0.00    +0.000 C 
BRANCH   7  20
ATOM     13  C   UNL     1      11.589  15.409  20.070  0.00  0.00    +0.000 C 
ATOM     14  C   UNL     1      10.716  15.165  21.275  0.00  0.00    +0.000 A 
ATOM     15  C   UNL     1      10.801  16.110  22.320  0.00  0.00    +0.000 A 
ATOM     16  C   UNL     1       9.967  16.029  23.431  0.00  0.00    +0.000 A 
ATOM     17  C   UNL     1       9.064  14.982  23.528  0.00  0.00    +0.000 A 
ATOM     18 CL   UNL     1       8.009  14.883  24.883  0.00  0.00    +0.000 Cl
ATOM     19  C   UNL     1       8.986  14.027  22.514  0.00  0.00    +0.000 A 
ATOM     20  C   UNL     1       9.785  14.101  21.356  0.00  0.00    +0.000 A 
ENDBRANCH   7  20
ENDBRANCH   6  10
ENDBRANCH   5   6
ENDBRANCH   1   5
BRANCH   2  21
ATOM     21  C   UNL     1       6.595   6.288  17.001  0.00  0.00    +0.000 C 
BRANCH  21  22
ATOM     22  N   UNL     1       5.528   5.723  17.809  0.00  0.00    +0.000 N 
ATOM     23  C   UNL     1       5.753   4.508  18.446  0.00  0.00    +0.000 A 
ATOM     24  O   UNL     1       6.832   3.929  18.418  0.00  0.00    +0.000 OA
ATOM     25  C   UNL     1       4.605   3.952  19.115  0.00  0.00    +0.000 A 
ATOM     26  C   UNL     1       4.451   2.717  19.714  0.00  0.00    +0.000 A 
ATOM     27  C   UNL     1       3.134   2.652  20.216  0.00  0.00    +0.000 A 
ATOM     28  C   UNL     1       2.521   3.850  19.913  0.00  0.00    +0.000 A 
ATOM     29  N   UNL     1       3.419   4.632  19.226  0.00  0.00    +0.000 N 
ATOM     30  C   UNL     1       3.254   5.914  18.684  0.00  0.00    +0.000 A 
ATOM     31  C   UNL     1       2.073   6.650  18.836  0.00  0.00    +0.000 A 
ATOM     32  C   UNL     1       1.996   7.912  18.267  0.00  0.00    +0.000 A 
ATOM     33  C   UNL     1       3.085   8.382  17.559  0.00  0.00    +0.000 A 
ATOM     34  N   UNL     1       4.243   7.685  17.395  0.00  0.00    +0.000 NA
ATOM     35  C   UNL     1       4.317   6.454  17.961  0.00  0.00    +0.000 A 
ENDBRANCH  21  22
ENDBRANCH   2  21
TORSDOF 6
ENDMDL
MODEL 3
REMARK VINA RESULT:      -7.9      6.331      8.181
REMARK  Name = 
REMARK  7 active torsions:
REMARK  status: ('A' for Active; 'I' for Inactive)
REMARK    1  A    between atoms: C_1  and  C_2
REMARK    2  A    between atoms: C_8  and  N_9
REMARK    3  A    between atoms: N_12  and  C_13
REMARK    4  A    between atoms: C_13  and  C_14
REMARK    5  A    between atoms: C_14  and  N_15
REMARK    6  A    between atoms: C_16  and  C_18
REMARK    7  A    between atoms: C_18  and  N_19
REMARK                            x       y       z     vdW  Elec       q    Type
REMARK                         _______ _______ _______ _____ _____    ______ ____
ROOT
ATOM      1  N   UNL     1       1.920   7.280  20.225  0.00  0.00    +0.000 N 
ATOM      2  C   UNL     1       0.901   8.197  20.389  0.00  0.00    +0.000 C 
ATOM      3  O   UNL     1      -0.050   8.006  21.142  0.00  0.00    +0.000 OA
ATOM      4  H   UNL     1       2.813   7.644  19.893  0.00  0.00    +0.000 HD
ENDROOT
BRANCH   1   5
ATOM      5  C   UNL     1       1.882   6.010  20.914  0.00  0.00    +0.000 C 
BRANCH   5   6
ATOM      6  C   UNL     1       2.933   5.024  20.382  0.00  0.00    +0.000 C 
BRANCH   6  10
ATOM      7  N   UNL     1       4.614   4.727  17.163  0.00  0.00    +0.000 N 
ATOM      8  C   UNL     1       3.693   5.830  17.476  0.00  0.00    +0.000 C 
ATOM      9  C   UNL     1       2.363   5.253  18.029  0.00  0.00    +0.000 C 
ATOM     10  N   UNL     1       2.503   4.303  19.167  0.00  0.00    +0.000 NA
ATOM     11  C   UNL     1       3.482   3.256  18.755  0.00  0.00    +0.000 C 
ATOM     12  C   UNL     1       4.850   3.809  18.287  0.00  0.00    +0.000 C 
BRANCH   7  20
ATOM     13  C   UNL     1       7.264   6.100  17.343  0.00  0.00    +0.000 C 
ATOM     14  C   UNL     1       6.720   5.423  16.110  0.00  0.00    +0.000 A 
ATOM     15  C   UNL     1       7.582   5.356  14.993  0.00  0.00    +0.000 A 
ATOM     16  C   UNL     1       7.212   4.667  13.842  0.00  0.00    +0.000 A 
ATOM     17  C   UNL     1       5.963   4.071  13.779  0.00  0.00    +0.000 A 
ATOM     18 CL   UNL     1       5.502   3.195  12.371  0.00  0.00    +0.000 Cl
ATOM     19  C   UNL     1       5.091   4.151  14.865  0.00  0.00    +0.000 A 
ATOM     20  C   UNL     1       5.449   4.803  16.061  0.00  0.00    +0.000 A 
ENDBRANCH   7  20
ENDBRANCH   6  10
ENDBRANCH   5   6
ENDBRANCH   1   5
BRANCH   2  21
ATOM     21  C   UNL     1       1.096   9.483  19.600  0.00  0.00    +0.000 C 
BRANCH  21  22
ATOM     22  N   UNL     1       0.048  10.441  19.905  0.00  0.00    +0.000 N 
ATOM     23  C   UNL     1       0.151  11.184  21.074  0.00  0.00    +0.000 A 
ATOM     24  O   UNL     1       1.120  11.122  21.823  0.00  0.00    +0.000 OA
ATOM     25  C   UNL     1      -0.990  12.012  21.371  0.00  0.00    +0.000 A 
ATOM     26  C   UNL     1      -1.267  12.754  22.503  0.00  0.00    +0.000 A 
ATOM     27  C   UNL     1      -2.517  13.378  22.304  0.00  0.00    +0.000 A 
ATOM     28  C   UNL     1      -2.968  13.002  21.055  0.00  0.00    +0.000 A 
ATOM     29  N   UNL     1      -2.039  12.155  20.498  0.00  0.00    +0.000 N 
ATOM     30  C   UNL     1      -2.063  11.492  19.263  0.00  0.00    +0.000 A 
ATOM     31  C   UNL     1      -3.094  11.670  18.334  0.00  0.00    +0.000 A 
ATOM     32  C   UNL     1      -3.038  10.975  17.135  0.00  0.00    +0.000 A 
ATOM     33  C   UNL     1      -1.972  10.124  16.918  0.00  0.00    +0.000 A 
ATOM     34  N   UNL     1      -0.959   9.933  17.807  0.00  0.00    +0.000 NA
ATOM     35  C   UNL     1      -1.014  10.621  18.975  0.00  0.00    +0.000 A 
ENDBRANCH  21  22
ENDBRANCH   2  21
TORSDOF 6
ENDMDL
MODEL 4
REMARK VINA RESULT:      -7.9      3.393      9.710
REMARK  Name = 
REMARK  7 active torsions:
REMARK  status: ('A' for Active; 'I' for Inactive)
REMARK    1  A    between atoms: C_1  and  C_2
REMARK    2  A    between atoms: C_8  and  N_9
REMARK    3  A    between atoms: N_12  and  C_13
REMARK    4  A    between atoms: C_13  and  C_14
REMARK    5  A    between atoms: C_14  and  N_15
REMARK    6  A    between atoms: C_16  and  C_18
REMARK    7  A    between atoms: C_18  and  N_19
REMARK                            x       y       z     vdW  Elec       q    Type
REMARK                         _______ _______ _______ _____ _____    ______ ____
ROOT
ATOM      1  N   UNL     1       7.472   7.201  18.027  0.00  0.00    +0.000 N 
ATOM      2  C   UNL     1       7.158   5.920  18.435  0.00  0.00    +0.000 C 
ATOM      3  O   UNL     1       7.699   5.375  19.393  0.00  0.00    +0.000 OA
ATOM      4  H   UNL     1       6.762   7.698  17.492  0.00  0.00    +0.000 HD
ENDROOT
BRANCH   1   5
ATOM      5  C   UNL     1       8.509   7.951  18.701  0.00  0.00    +0.000 C 
BRANCH   5   6
ATOM      6  C   UNL     1       8.475   9.445  18.345  0.00  0.00    +0.000 C 
BRANCH   6  10
ATOM      7  N   UNL     1       8.918  12.965  19.178  0.00  0.00    +0.000 N 
ATOM      8  C   UNL     1       8.999  12.461  17.798  0.00  0.00    +0.000 C 
ATOM      9  C   UNL     1       9.978  11.259  17.743  0.00  0.00    +0.000 C 
ATOM     10  N   UNL     1       9.707  10.168  18.719  0.00  0.00    +0.000 NA
ATOM     11  C   UNL     1       9.606  10.794  20.069  0.00  0.00    +0.000 C 
ATOM     12  C   UNL     1       8.566  11.937  20.168  0.00  0.00    +0.000 C 
BRANCH   7  20
ATOM     13  C   UNL     1      11.298  14.595  19.961  0.00  0.00    +0.000 C 
ATOM     14  C   UNL     1       9.903  15.134  19.772  0.00  0.00    +0.000 A 
ATOM     15  C   UNL     1       9.745  16.533  19.880  0.00  0.00    +0.000 A 
ATOM     16  C   UNL     1       8.518  17.139  19.627  0.00  0.00    +0.000 A 
ATOM     17  C   UNL     1       7.426  16.350  19.300  0.00  0.00    +0.000 A 
ATOM     18 CL   UNL     1       5.908  17.087  18.961  0.00  0.00    +0.000 Cl
ATOM     19  C   UNL     1       7.562  14.965  19.214  0.00  0.00    +0.000 A 
ATOM     20  C   UNL     1       8.797  14.322  19.422  0.00  0.00    +0.000 A 
ENDBRANCH   7  20
ENDBRANCH   6  10
ENDBRANCH   5   6
ENDBRANCH   1   5
BRANCH   2  21
ATOM     21  C   UNL     1       6.043   5.273  17.626  0.00  0.00    +0.000 C 
BRANCH  21  22
ATOM     22  N   UNL     1       4.820   5.190  18.405  0.00  0.00    +0.000 N 
ATOM     23  C   UNL     1       4.643   4.096  19.244  0.00  0.00    +0.000 A 
ATOM     24  O   UNL     1       5.500   3.237  19.412  0.00  0.00    +0.000 OA
ATOM     25  C   UNL     1       3.351   4.020  19.877  0.00  0.00    +0.000 A 
ATOM     26  C   UNL     1       2.808   3.008  20.645  0.00  0.00    +0.000 A 
ATOM     27  C   UNL     1       1.509   3.414  21.020  0.00  0.00    +0.000 A 
ATOM     28  C   UNL     1       1.296   4.662  20.475  0.00  0.00    +0.000 A 
ATOM     29  N   UNL     1       2.418   5.019  19.764  0.00  0.00    +0.000 N 
ATOM     30  C   UNL     1       2.668   6.176  19.013  0.00  0.00    +0.000 A 
ATOM     31  C   UNL     1       1.755   7.233  18.932  0.00  0.00    +0.000 A 
ATOM     32  C   UNL     1       2.084   8.342  18.167  0.00  0.00    +0.000 A 
ATOM     33  C   UNL     1       3.295   8.346  17.503  0.00  0.00    +0.000 A 
ATOM     34  N   UNL     1       4.199   7.330  17.564  0.00  0.00    +0.000 NA
ATOM     35  C   UNL     1       3.876   6.251  18.321  0.00  0.00    +0.000 A 
ENDBRANCH  21  22
ENDBRANCH   2  21
TORSDOF 6
ENDMDL
MODEL 5
REMARK VINA RESULT:      -7.9      9.010     10.783
REMARK  Name = 
REMARK  7 active torsions:
REMARK  status: ('A' for Active; 'I' for Inactive)
REMARK    1  A    between atoms: C_1  and  C_2
REMARK    2  A    between atoms: C_8  and  N_9
REMARK    3  A    between atoms: N_12  and  C_13
REMARK    4  A    between atoms: C_13  and  C_14
REMARK    5  A    between atoms: C_14  and  N_15
REMARK    6  A    between atoms: C_16  and  C_18
REMARK    7  A    between atoms: C_18  and  N_19
REMARK                            x       y       z     vdW  Elec       q    Type
REMARK                         _______ _______ _______ _____ _____    ______ ____
ROOT
ATOM      1  N   UNL     1      -0.650  13.006  20.557  0.00  0.00    +0.000 N 
ATOM      2  C   UNL     1      -1.919  12.754  21.038  0.00  0.00    +0.000 C 
ATOM      3  O   UNL     1      -2.144  11.936  21.926  0.00  0.00    +0.000 OA
ATOM      4  H   UNL     1      -0.501  13.911  20.113  0.00  0.00    +0.000 HD
ENDROOT
BRANCH   1   5
ATOM      5  C   UNL     1       0.485  12.265  21.061  0.00  0.00    +0.000 C 
BRANCH   5   6
ATOM      6  C   UNL     1       1.094  11.336  20.001  0.00  0.00    +0.000 C 
BRANCH   6  10
ATOM      7  N   UNL     1       2.067   7.951  19.065  0.00  0.00    +0.000 N 
ATOM      8  C   UNL     1       1.897   9.028  18.077  0.00  0.00    +0.000 C 
ATOM      9  C   UNL     1       0.520   9.710  18.287  0.00  0.00    +0.000 C 
ATOM     10  N   UNL     1       0.241  10.176  19.673  0.00  0.00    +0.000 NA
ATOM     11  C   UNL     1       0.481   9.022  20.587  0.00  0.00    +0.000 C 
ATOM     12  C   UNL     1       1.886   8.385  20.458  0.00  0.00    +0.000 C 
BRANCH   7  20
ATOM     13  C   UNL     1       1.356   5.365  20.386  0.00  0.00    +0.000 C 
ATOM     14  C   UNL     1       2.391   5.528  19.301  0.00  0.00    +0.000 A 
ATOM     15  C   UNL     1       2.990   4.346  18.815  0.00  0.00    +0.000 A 
ATOM     16  C   UNL     1       3.884   4.380  17.748  0.00  0.00    +0.000 A 
ATOM     17  C   UNL     1       4.218   5.600  17.181  0.00  0.00    +0.000 A 
ATOM     18 CL   UNL     1       5.302   5.655  15.846  0.00  0.00    +0.000 Cl
ATOM     19  C   UNL     1       3.653   6.778  17.668  0.00  0.00    +0.000 A 
ATOM     20  C   UNL     1       2.713   6.777  18.718  0.00  0.00    +0.000 A 
ENDBRANCH   7  20
ENDBRANCH   6  10
ENDBRANCH   5   6
ENDBRANCH   1   5
BRANCH   2  21
ATOM     21  C   UNL     1      -3.000  13.621  20.409  0.00  0.00    +0.000 C 
BRANCH  21  22
ATOM     22  N   UNL     1      -4.312  13.263  20.918  0.00  0.00    +0.000 N 
ATOM     23  C   UNL     1      -4.749  13.857  22.097  0.00  0.00    +0.000 A 
ATOM     24  O   UNL     1      -4.110  14.721  22.686  0.00  0.00    +0.000 OA
ATOM     25  C   UNL     1      -5.998  13.351  22.605  0.00  0.00    +0.000 A 
ATOM     26  C   UNL     1      -6.631  13.619  23.803  0.00  0.00    +0.000 A 
ATOM     27  C   UNL     1      -7.824  12.865  23.828  0.00  0.00    +0.000 A 
ATOM     28  C   UNL     1      -7.888  12.160  22.644  0.00  0.00    +0.000 A 
ATOM     29  N   UNL     1      -6.761  12.449  21.909  0.00  0.00    +0.000 N 
ATOM     30  C   UNL     1      -6.362  11.958  20.659  0.00  0.00    +0.000 A 
ATOM     31  C   UNL     1      -7.153  11.082  19.906  0.00  0.00    +0.000 A 
ATOM     32  C   UNL     1      -6.680  10.646  18.677  0.00  0.00    +0.000 A 
ATOM     33  C   UNL     1      -5.439  11.084  18.257  0.00  0.00    +0.000 A 
ATOM     34  N   UNL     1      -4.650  11.933  18.972  0.00  0.00    +0.000 NA
ATOM     35  C   UNL     1      -5.121  12.363  20.170  0.00  0.00    +0.000 A 
ENDBRANCH  21  22
ENDBRANCH   2  21
TORSDOF 6
ENDMDL
MODEL 6
REMARK VINA RESULT:      -7.8      3.519      9.715
REMARK  Name = 
REMARK  7 active torsions:
REMARK  status: ('A' for Active; 'I' for Inactive)
REMARK    1  A    between atoms: C_1  and  C_2
REMARK    2  A    between atoms: C_8  and  N_9
REMARK    3  A    between atoms: N_12  and  C_13
REMARK    4  A    between atoms: C_13  and  C_14
REMARK    5  A    between atoms: C_14  and  N_15
REMARK    6  A    between atoms: C_16  and  C_18
REMARK    7  A    between atoms: C_18  and  N_19
REMARK                            x       y       z     vdW  Elec       q    Type
REMARK                         _______ _______ _______ _____ _____    ______ ____
ROOT
ATOM      1  N   UNL     1       6.765   7.767  17.432  0.00  0.00    +0.000 N 
ATOM      2  C   UNL     1       6.584   6.669  16.616  0.00  0.00    +0.000 C 
ATOM      3  O   UNL     1       7.515   5.976  16.217  0.00  0.00    +0.000 OA
ATOM      4  H   UNL     1       5.966   8.055  17.996  0.00  0.00    +0.000 HD
ENDROOT
BRANCH   1   5
ATOM      5  C   UNL     1       8.094   8.180  17.821  0.00  0.00    +0.000 C 
BRANCH   5   6
ATOM      6  C   UNL     1       8.167   9.677  18.159  0.00  0.00    +0.000 C 
BRANCH   6  10
ATOM      7  N   UNL     1       9.271  12.986  19.214  0.00  0.00    +0.000 N 
ATOM      8  C   UNL     1       9.331  12.540  17.812  0.00  0.00    +0.000 C 
ATOM      9  C   UNL     1      10.044  11.164  17.737  0.00  0.00    +0.000 C 
ATOM     10  N   UNL     1       9.496  10.110  18.635  0.00  0.00    +0.000 NA
ATOM     11  C   UNL     1       9.445  10.681  20.011  0.00  0.00    +0.000 C 
ATOM     12  C   UNL     1       8.657  12.009  20.125  0.00  0.00    +0.000 C 
BRANCH   7  20
ATOM     13  C   UNL     1      11.985  14.176  19.610  0.00  0.00    +0.000 C 
ATOM     14  C   UNL     1      10.684  14.934  19.702  0.00  0.00    +0.000 A 
ATOM     15  C   UNL     1      10.777  16.330  19.893  0.00  0.00    +0.000 A 
ATOM     16  C   UNL     1       9.639  17.131  19.893  0.00  0.00    +0.000 A 
ATOM     17  C   UNL     1       8.394  16.542  19.741  0.00  0.00    +0.000 A 
ATOM     18 CL   UNL     1       6.980  17.524  19.715  0.00  0.00    +0.000 Cl
ATOM     19  C   UNL     1       8.285  15.162  19.576  0.00  0.00    +0.000 A 
ATOM     20  C   UNL     1       9.418  14.325  19.529  0.00  0.00    +0.000 A 
ENDBRANCH   7  20
ENDBRANCH   6  10
ENDBRANCH   5   6
ENDBRANCH   1   5
BRANCH   2  21
ATOM     21  C   UNL     1       5.125   6.366  16.306  0.00  0.00    +0.000 C 
BRANCH  21  22
ATOM     22  N   UNL     1       4.417   5.949  17.503  0.00  0.00    +0.000 N 
ATOM     23  C   UNL     1       4.721   4.709  18.053  0.00  0.00    +0.000 A 
ATOM     24  O   UNL     1       5.609   3.985  17.618  0.00  0.00    +0.000 OA
ATOM     25  C   UNL     1       3.885   4.312  19.157  0.00  0.00    +0.000 A 
ATOM     26  C   UNL     1       3.829   3.106  19.827  0.00  0.00    +0.000 A 
ATOM     27  C   UNL     1       2.836   3.222  20.823  0.00  0.00    +0.000 A 
ATOM     28  C   UNL     1       2.315   4.496  20.736  0.00  0.00    +0.000 A 
ATOM     29  N   UNL     1       2.948   5.151  19.706  0.00  0.00    +0.000 N 
ATOM     30  C   UNL     1       2.746   6.448  19.215  0.00  0.00    +0.000 A 
ATOM     31  C   UNL     1       1.838   7.340  19.797  0.00  0.00    +0.000 A 
ATOM     32  C   UNL     1       1.701   8.606  19.247  0.00  0.00    +0.000 A 
ATOM     33  C   UNL     1       2.456   8.925  18.136  0.00  0.00    +0.000 A 
ATOM     34  N   UNL     1       3.344   8.074  17.550  0.00  0.00    +0.000 NA
ATOM     35  C   UNL     1       3.481   6.840  18.098  0.00  0.00    +0.000 A 
ENDBRANCH  21  22
ENDBRANCH   2  21
TORSDOF 6
ENDMDL
MODEL 7
REMARK VINA RESULT:      -7.7      1.237      1.296
REMARK  Name = 
REMARK  7 active torsions:
REMARK  status: ('A' for Active; 'I' for Inactive)
REMARK    1  A    between atoms: C_1  and  C_2
REMARK    2  A    between atoms: C_8  and  N_9
REMARK    3  A    between atoms: N_12  and  C_13
REMARK    4  A    between atoms: C_13  and  C_14
REMARK    5  A    between atoms: C_14  and  N_15
REMARK    6  A    between atoms: C_16  and  C_18
REMARK    7  A    between atoms: C_18  and  N_19
REMARK                            x       y       z     vdW  Elec       q    Type
REMARK                         _______ _______ _______ _____ _____    ______ ____
ROOT
ATOM      1  N   UNL     1       9.072   9.825  18.487  0.00  0.00    +0.000 N 
ATOM      2  C   UNL     1       9.197  11.193  18.344  0.00  0.00    +0.000 C 
ATOM      3  O   UNL     1       8.389  11.872  17.718  0.00  0.00    +0.000 OA
ATOM      4  H   UNL     1       9.544   9.404  19.286  0.00  0.00    +0.000 HD
ENDROOT
BRANCH   1   5
ATOM      5  C   UNL     1       7.984   9.118  17.850  0.00  0.00    +0.000 C 
BRANCH   5   6
ATOM      6  C   UNL     1       7.961   7.627  18.219  0.00  0.00    +0.000 C 
BRANCH   6  10
ATOM      7  N   UNL     1       5.041   5.477  17.853  0.00  0.00    +0.000 N 
ATOM      8  C   UNL     1       6.288   5.019  18.487  0.00  0.00    +0.000 C 
ATOM      9  C   UNL     1       7.488   5.335  17.557  0.00  0.00    +0.000 C 
ATOM     10  N   UNL     1       7.583   6.747  17.094  0.00  0.00    +0.000 NA
ATOM     11  C   UNL     1       6.262   7.114  16.509  0.00  0.00    +0.000 C 
ATOM     12  C   UNL     1       5.058   6.892  17.458  0.00  0.00    +0.000 C 
BRANCH   7  20
ATOM     13  C   UNL     1       4.521   3.082  16.141  0.00  0.00    +0.000 C 
ATOM     14  C   UNL     1       3.599   3.593  17.220  0.00  0.00    +0.000 A 
ATOM     15  C   UNL     1       2.456   2.812  17.497  0.00  0.00    +0.000 A 
ATOM     16  C   UNL     1       1.596   3.144  18.540  0.00  0.00    +0.000 A 
ATOM     17  C   UNL     1       1.848   4.280  19.292  0.00  0.00    +0.000 A 
ATOM     18 CL   UNL     1       0.807   4.689  20.600  0.00  0.00    +0.000 Cl
ATOM     19  C   UNL     1       2.960   5.074  19.014  0.00  0.00    +0.000 A 
ATOM     20  C   UNL     1       3.875   4.746  17.994  0.00  0.00    +0.000 A 
ENDBRANCH   7  20
ENDBRANCH   6  10
ENDBRANCH   5   6
ENDBRANCH   1   5
BRANCH   2  21
ATOM     21  C   UNL     1      10.391  11.783  19.080  0.00  0.00    +0.000 C 
BRANCH  21  22
ATOM     22  N   UNL     1       9.956  12.601  20.199  0.00  0.00    +0.000 N 
ATOM     23  C   UNL     1       9.371  11.972  21.291  0.00  0.00    +0.000 A 
ATOM     24  O   UNL     1       9.272  10.754  21.386  0.00  0.00    +0.000 OA
ATOM     25  C   UNL     1       8.847  12.861  22.296  0.00  0.00    +0.000 A 
ATOM     26  C   UNL     1       8.095  12.573  23.418  0.00  0.00    +0.000 A 
ATOM     27  C   UNL     1       7.825  13.794  24.071  0.00  0.00    +0.000 A 
ATOM     28  C   UNL     1       8.423  14.794  23.332  0.00  0.00    +0.000 A 
ATOM     29  N   UNL     1       9.031  14.219  22.241  0.00  0.00    +0.000 N 
ATOM     30  C   UNL     1       9.737  14.824  21.191  0.00  0.00    +0.000 A 
ATOM     31  C   UNL     1       9.986  16.200  21.146  0.00  0.00    +0.000 A 
ATOM     32  C   UNL     1      10.693  16.714  20.070  0.00  0.00    +0.000 A 
ATOM     33  C   UNL     1      11.108  15.845  19.080  0.00  0.00    +0.000 A 
ATOM     34  N   UNL     1      10.876  14.504  19.100  0.00  0.00    +0.000 NA
ATOM     35  C   UNL     1      10.190  14.004  20.159  0.00  0.00    +0.000 A 
ENDBRANCH  21  22
ENDBRANCH   2  21
TORSDOF 6
ENDMDL
MODEL 8
REMARK VINA RESULT:      -7.7      3.406     10.208
REMARK  Name = 
REMARK  7 active torsions:
REMARK  status: ('A' for Active; 'I' for Inactive)
REMARK    1  A    between atoms: C_1  and  C_2
REMARK    2  A    between atoms: C_8  and  N_9
REMARK    3  A    between atoms: N_12  and  C_13
REMARK    4  A    between atoms: C_13  and  C_14
REMARK    5  A    between atoms: C_14  and  N_15
REMARK    6  A    between atoms: C_16  and  C_18
REMARK    7  A    between atoms: C_18  and  N_19
REMARK                            x       y       z     vdW  Elec       q    Type
REMARK                         _______ _______ _______ _____ _____    ______ ____
ROOT
ATOM      1  N   UNL     1       6.921   7.761  17.196  0.00  0.00    +0.000 N 
ATOM      2  C   UNL     1       6.534   6.436  17.193  0.00  0.00    +0.000 C 
ATOM      3  O   UNL     1       7.206   5.545  17.704  0.00  0.00    +0.000 OA
ATOM      4  H   UNL     1       6.180   8.454  17.094  0.00  0.00    +0.000 HD
ENDROOT
BRANCH   1   5
ATOM      5  C   UNL     1       8.186   8.153  17.775  0.00  0.00    +0.000 C 
BRANCH   5   6
ATOM      6  C   UNL     1       8.201   9.628  18.206  0.00  0.00    +0.000 C 
BRANCH   6  10
ATOM      7  N   UNL     1       9.253  12.974  19.192  0.00  0.00    +0.000 N 
ATOM      8  C   UNL     1       9.337  12.494  17.803  0.00  0.00    +0.000 C 
ATOM      9  C   UNL     1      10.066  11.126  17.772  0.00  0.00    +0.000 C 
ATOM     10  N   UNL     1       9.518  10.088  18.689  0.00  0.00    +0.000 NA
ATOM     11  C   UNL     1       9.441  10.692  20.049  0.00  0.00    +0.000 C 
ATOM     12  C   UNL     1       8.637  12.014  20.118  0.00  0.00    +0.000 C 
BRANCH   7  20
ATOM     13  C   UNL     1      11.944  14.197  19.639  0.00  0.00    +0.000 C 
ATOM     14  C   UNL     1      10.635  14.946  19.671  0.00  0.00    +0.000 A 
ATOM     15  C   UNL     1      10.712  16.347  19.826  0.00  0.00    +0.000 A 
ATOM     16  C   UNL     1       9.569  17.139  19.770  0.00  0.00    +0.000 A 
ATOM     17  C   UNL     1       8.333  16.537  19.596  0.00  0.00    +0.000 A 
ATOM     18 CL   UNL     1       6.914  17.506  19.500  0.00  0.00    +0.000 Cl
ATOM     19  C   UNL     1       8.240  15.151  19.465  0.00  0.00    +0.000 A 
ATOM     20  C   UNL     1       9.379  14.323  19.475  0.00  0.00    +0.000 A 
ENDBRANCH   7  20
ENDBRANCH   6  10
ENDBRANCH   5   6
ENDBRANCH   1   5
BRANCH   2  21
ATOM     21  C   UNL     1       5.175   6.193  16.553  0.00  0.00    +0.000 C 
BRANCH  21  22
ATOM     22  N   UNL     1       4.154   5.987  17.566  0.00  0.00    +0.000 N 
ATOM     23  C   UNL     1       3.516   7.102  18.098  0.00  0.00    +0.000 A 
ATOM     24  O   UNL     1       3.722   8.243  17.701  0.00  0.00    +0.000 OA
ATOM     25  C   UNL     1       2.617   6.824  19.189  0.00  0.00    +0.000 A 
ATOM     26  C   UNL     1       1.944   7.701  20.017  0.00  0.00    +0.000 A 
ATOM     27  C   UNL     1       1.199   6.929  20.933  0.00  0.00    +0.000 A 
ATOM     28  C   UNL     1       1.435   5.602  20.638  0.00  0.00    +0.000 A 
ATOM     29  N   UNL     1       2.315   5.545  19.583  0.00  0.00    +0.000 N 
ATOM     30  C   UNL     1       2.874   4.429  18.946  0.00  0.00    +0.000 A 
ATOM     31  C   UNL     1       2.535   3.116  19.293  0.00  0.00    +0.000 A 
ATOM     32  C   UNL     1       3.137   2.070  18.611  0.00  0.00    +0.000 A 
ATOM     33  C   UNL     1       4.059   2.370  17.627  0.00  0.00    +0.000 A 
ATOM     34  N   UNL     1       4.407   3.638  17.274  0.00  0.00    +0.000 NA
ATOM     35  C   UNL     1       3.809   4.658  17.939  0.00  0.00    +0.000 A 
ENDBRANCH  21  22
ENDBRANCH   2  21
TORSDOF 6
ENDMDL
MODEL 9
REMARK VINA RESULT:      -7.7      5.387     10.721
REMARK  Name = 
REMARK  7 active torsions:
REMARK  status: ('A' for Active; 'I' for Inactive)
REMARK    1  A    between atoms: C_1  and  C_2
REMARK    2  A    between atoms: C_8  and  N_9
REMARK    3  A    between atoms: N_12  and  C_13
REMARK    4  A    between atoms: C_13  and  C_14
REMARK    5  A    between atoms: C_14  and  N_15
REMARK    6  A    between atoms: C_16  and  C_18
REMARK    7  A    between atoms: C_18  and  N_19
REMARK                            x       y       z     vdW  Elec       q    Type
REMARK                         _______ _______ _______ _____ _____    ______ ____
ROOT
ATOM      1  N   UNL     1       1.042   8.183  20.970  0.00  0.00    +0.000 N 
ATOM      2  C   UNL     1       1.818   8.013  19.841  0.00  0.00    +0.000 C 
ATOM      3  O   UNL     1       1.570   8.567  18.774  0.00  0.00    +0.000 OA
ATOM      4  H   UNL     1       1.493   8.003  21.866  0.00  0.00    +0.000 HD
ENDROOT
BRANCH   1   5
ATOM      5  C   UNL     1      -0.147   9.004  20.926  0.00  0.00    +0.000 C 
BRANCH   5   6
ATOM      6  C   UNL     1       0.108  10.431  21.437  0.00  0.00    +0.000 C 
BRANCH   6  10
ATOM      7  N   UNL     1       1.276  13.300  19.519  0.00  0.00    +0.000 N 
ATOM      8  C   UNL     1       1.038  13.361  20.969  0.00  0.00    +0.000 C 
ATOM      9  C   UNL     1      -0.377  12.808  21.285  0.00  0.00    +0.000 C 
ATOM     10  N   UNL     1      -0.676  11.461  20.727  0.00  0.00    +0.000 NA
ATOM     11  C   UNL     1      -0.364  11.503  19.270  0.00  0.00    +0.000 C 
ATOM     12  C   UNL     1       1.076  11.965  18.937  0.00  0.00    +0.000 C 
BRANCH   7  20
ATOM     13  C   UNL     1       0.044  15.980  19.030  0.00  0.00    +0.000 C 
ATOM     14  C   UNL     1       1.451  15.591  18.653  0.00  0.00    +0.000 A 
ATOM     15  C   UNL     1       2.268  16.612  18.120  0.00  0.00    +0.000 A 
ATOM     16  C   UNL     1       3.610  16.381  17.832  0.00  0.00    +0.000 A 
ATOM     17  C   UNL     1       4.140  15.117  18.038  0.00  0.00    +0.000 A 
ATOM     18 CL   UNL     1       5.804  14.824  17.709  0.00  0.00    +0.000 Cl
ATOM     19  C   UNL     1       3.339  14.093  18.541  0.00  0.00    +0.000 A 
ATOM     20  C   UNL     1       1.989  14.302  18.883  0.00  0.00    +0.000 A 
ENDBRANCH   7  20
ENDBRANCH   6  10
ENDBRANCH   5   6
ENDBRANCH   1   5
BRANCH   2  21
ATOM     21  C   UNL     1       3.035   7.125  20.058  0.00  0.00    +0.000 C 
BRANCH  21  22
ATOM     22  N   UNL     1       2.885   5.862  19.357  0.00  0.00    +0.000 N 
ATOM     23  C   UNL     1       1.947   4.951  19.830  0.00  0.00    +0.000 A 
ATOM     24  O   UNL     1       1.191   5.193  20.764  0.00  0.00    +0.000 OA
ATOM     25  C   UNL     1       1.953   3.673  19.165  0.00  0.00    +0.000 A 
ATOM     26  C   UNL     1       1.260   2.519  19.474  0.00  0.00    +0.000 A 
ATOM     27  C   UNL     1       1.621   1.542  18.521  0.00  0.00    +0.000 A 
ATOM     28  C   UNL     1       2.522   2.127  17.656  0.00  0.00    +0.000 A 
ATOM     29  N   UNL     1       2.733   3.423  18.064  0.00  0.00    +0.000 N 
ATOM     30  C   UNL     1       3.580   4.401  17.526  0.00  0.00    +0.000 A 
ATOM     31  C   UNL     1       4.339   4.186  16.370  0.00  0.00    +0.000 A 
ATOM     32  C   UNL     1       5.151   5.210  15.905  0.00  0.00    +0.000 A 
ATOM     33  C   UNL     1       5.186   6.394  16.616  0.00  0.00    +0.000 A 
ATOM     34  N   UNL     1       4.460   6.626  17.743  0.00  0.00    +0.000 NA
ATOM     35  C   UNL     1       3.661   5.624  18.189  0.00  0.00    +0.000 A 
ENDBRANCH  21  22
ENDBRANCH   2  21
TORSDOF 6
ENDMDL
