MODEL 1
REMARK VINA RESULT:      -8.5      0.000      0.000
REMARK  Name = 
REMARK  9 active torsions:
REMARK  status: ('A' for Active; 'I' for Inactive)
REMARK    1  A    between atoms: C_1  and  C_2
REMARK    2  A    between atoms: C_2  and  C_3
REMARK    3  A    between atoms: C_3  and  C_4
REMARK    4  A    between atoms: C_3  and  N_5
REMARK    5  A    between atoms: C_6  and  C_8
REMARK    6  A    between atoms: C_8  and  N_9
REMARK    7  A    between atoms: C_16  and  S_17
REMARK    8  A    between atoms: S_17  and  N_20
REMARK    9  A    between atoms: C_23  and  C_24
REMARK                            x       y       z     vdW  Elec       q    Type
REMARK                         _______ _______ _______ _____ _____    ______ ____
ROOT
ATOM      1  N   UNL     1       0.497   9.833  19.521  0.00  0.00    +0.000 N 
ATOM      2  C   UNL     1       0.101   9.955  20.840  0.00  0.00    +0.000 A 
ATOM      3  O   UNL     1      -0.513  10.931  21.280  0.00  0.00    +0.000 OA
ATOM      4  C   UNL     1       0.440   8.841  21.754  0.00  0.00    +0.000 A 
ATOM      5  C   UNL     1       1.177   7.799  21.349  0.00  0.00    +0.000 A 
ATOM      6  C   UNL     1       1.750   7.788  20.005  0.00  0.00    +0.000 A 
ATOM      7  C   UNL     1       2.639   6.771  19.618  0.00  0.00    +0.000 A 
ATOM      8  C   UNL     1       3.301   6.865  18.390  0.00  0.00    +0.000 A 
ATOM      9  C   UNL     1       3.096   7.973  17.577  0.00  0.00    +0.000 A 
ATOM     10  C   UNL     1       2.116   8.909  17.898  0.00  0.00    +0.000 A 
ATOM     11  C   UNL     1       1.438   8.838  19.119  0.00  0.00    +0.000 A 
ENDROOT
BRANCH   8  12
ATOM     12  S   UNL     1       4.464   5.620  17.868  0.00  0.00    +0.000 S 
ATOM     13  O   UNL     1       4.795   5.917  16.493  0.00  0.00    +0.000 OA
ATOM     14  O   UNL     1       5.487   5.553  18.893  0.00  0.00    +0.000 OA
BRANCH  12  15
ATOM     15  N   UNL     1       3.599   4.173  17.923  0.00  0.00    +0.000 NA
ATOM     16  C   UNL     1       2.169   4.091  17.586  0.00  0.00    +0.000 C 
ATOM     17  C   UNL     1       1.299   3.837  18.815  0.00  0.00    +0.000 C 
ATOM     18  C   UNL     1       1.862   2.828  19.827  0.00  0.00    +0.000 C 
ATOM     19  C   UNL     1       1.220   3.055  21.203  0.00  0.00    +0.000 C 
ATOM     20  C   UNL     1       3.392   2.862  19.971  0.00  0.00    +0.000 C 
ATOM     21  C   UNL     1       4.114   3.008  18.641  0.00  0.00    +0.000 C 
ENDBRANCH  12  15
ENDBRANCH   8  12
BRANCH   1  22
ATOM     22  C   UNL     1      -0.018  10.808  18.556  0.00  0.00    +0.000 C 
BRANCH  22  24
ATOM     23  N   UNL     1      -2.411  11.007  18.093  0.00  0.00    +0.000 N 
ATOM     24  C   UNL     1      -1.258  10.301  17.831  0.00  0.00    +0.000 C 
ATOM     25  O   UNL     1      -1.214   9.325  17.087  0.00  0.00    +0.000 OA
ATOM     26  H   UNL     1      -2.411  11.644  18.890  0.00  0.00    +0.000 HD
BRANCH  23  27
ATOM     27  C   UNL     1      -3.657  10.702  17.415  0.00  0.00    +0.000 C 
ATOM     28  C   UNL     1      -4.847  11.178  18.247  0.00  0.00    +0.000 C 
BRANCH  27  30
ATOM     29  C   UNL     1      -3.617  10.255  14.906  0.00  0.00    +0.000 C 
ATOM     30  C   UNL     1      -3.685  11.308  16.007  0.00  0.00    +0.000 C 
ENDBRANCH  27  30
ENDBRANCH  23  27
ENDBRANCH  22  24
ENDBRANCH   1  22
TORSDOF 6
ENDMDL
MODEL 2
REMARK VINA RESULT:      -8.0      2.343      3.216
REMARK  Name = 
REMARK  9 active torsions:
REMARK  status: ('A' for Active; 'I' for Inactive)
REMARK    1  A    between atoms: C_1  and  C_2
REMARK    2  A    between atoms: C_2  and  C_3
REMARK    3  A    between atoms: C_3  and  C_4
REMARK    4  A    between atoms: C_3  and  N_5
REMARK    5  A    between atoms: C_6  and  C_8
REMARK    6  A    between atoms: C_8  and  N_9
REMARK    7  A    between atoms: C_16  and  S_17
REMARK    8  A    between atoms: S_17  and  N_20
REMARK    9  A    between atoms: C_23  and  C_24
REMARK                            x       y       z     vdW  Elec       q    Type
REMARK                         _______ _______ _______ _____ _____    ______ ____
ROOT
ATOM      1  N   UNL     1       1.097   9.443  19.361  0.00  0.00    +0.000 N 
ATOM      2  C   UNL     1       0.662   9.517  20.671  0.00  0.00    +0.000 A 
ATOM      3  O   UNL     1       0.113  10.512  21.153  0.00  0.00    +0.000 OA
ATOM      4  C   UNL     1       0.873   8.324  21.523  0.00  0.00    +0.000 A 
ATOM      5  C   UNL     1       1.537   7.251  21.076  0.00  0.00    +0.000 A 
ATOM      6  C   UNL     1       2.159   7.274  19.754  0.00  0.00    +0.000 A 
ATOM      7  C   UNL     1       2.976   6.211  19.333  0.00  0.00    +0.000 A 
ATOM      8  C   UNL     1       3.690   6.324  18.136  0.00  0.00    +0.000 A 
ATOM      9  C   UNL     1       3.609   7.493  17.390  0.00  0.00    +0.000 A 
ATOM     10  C   UNL     1       2.697   8.488  17.738  0.00  0.00    +0.000 A 
ATOM     11  C   UNL     1       1.968   8.399  18.928  0.00  0.00    +0.000 A 
ENDROOT
BRANCH   8  12
ATOM     12  S   UNL     1       4.767   5.021  17.575  0.00  0.00    +0.000 S 
ATOM     13  O   UNL     1       4.951   5.222  16.155  0.00  0.00    +0.000 OA
ATOM     14  O   UNL     1       5.894   4.993  18.485  0.00  0.00    +0.000 OA
BRANCH  12  15
ATOM     15  N   UNL     1       3.886   3.602  17.817  0.00  0.00    +0.000 NA
ATOM     16  C   UNL     1       2.558   3.382  17.223  0.00  0.00    +0.000 C 
ATOM     17  C   UNL     1       1.445   3.414  18.268  0.00  0.00    +0.000 C 
ATOM     18  C   UNL     1       1.767   2.716  19.599  0.00  0.00    +0.000 C 
ATOM     19  C   UNL     1       0.854   3.260  20.706  0.00  0.00    +0.000 C 
ATOM     20  C   UNL     1       3.232   2.846  20.043  0.00  0.00    +0.000 C 
ATOM     21  C   UNL     1       4.221   2.678  18.900  0.00  0.00    +0.000 C 
ENDBRANCH  12  15
ENDBRANCH   8  12
BRANCH   1  22
ATOM     22  C   UNL     1       0.702  10.515  18.445  0.00  0.00    +0.000 C 
BRANCH  22  24
ATOM     23  N   UNL     1       1.050  12.726  19.430  0.00  0.00    +0.000 N 
ATOM     24  C   UNL     1       1.569  11.757  18.601  0.00  0.00    +0.000 C 
ATOM     25  O   UNL     1       2.641  11.872  18.010  0.00  0.00    +0.000 OA
ATOM     26  H   UNL     1       0.066  12.656  19.688  0.00  0.00    +0.000 HD
BRANCH  23  27
ATOM     27  C   UNL     1       1.795  13.930  19.748  0.00  0.00    +0.000 C 
ATOM     28  C   UNL     1       1.391  15.070  18.814  0.00  0.00    +0.000 C 
BRANCH  27  30
ATOM     29  C   UNL     1       0.212  14.011  21.744  0.00  0.00    +0.000 C 
ATOM     30  C   UNL     1       1.608  14.325  21.218  0.00  0.00    +0.000 C 
ENDBRANCH  27  30
ENDBRANCH  23  27
ENDBRANCH  22  24
ENDBRANCH   1  22
TORSDOF 6
ENDMDL
MODEL 3
REMARK VINA RESULT:      -7.8      2.290      3.581
REMARK  Name = 
REMARK  9 active torsions:
REMARK  status: ('A' for Active; 'I' for Inactive)
REMARK    1  A    between atoms: C_1  and  C_2
REMARK    2  A    between atoms: C_2  and  C_3
REMARK    3  A    between atoms: C_3  and  C_4
REMARK    4  A    between atoms: C_3  and  N_5
REMARK    5  A    between atoms: C_6  and  C_8
REMARK    6  A    between atoms: C_8  and  N_9
REMARK    7  A    between atoms: C_16  and  S_17
REMARK    8  A    between atoms: S_17  and  N_20
REMARK    9  A    between atoms: C_23  and  C_24
REMARK                            x       y       z     vdW  Elec       q    Type
REMARK                         _______ _______ _______ _____ _____    ______ ____
ROOT
ATOM      1  N   UNL     1       0.532   8.737  20.097  0.00  0.00    +0.000 N 
ATOM      2  C   UNL     1       0.033   9.676  19.214  0.00  0.00    +0.000 A 
ATOM      3  O   UNL     1      -1.044  10.259  19.373  0.00  0.00    +0.000 OA
ATOM      4  C   UNL     1       0.853   9.986  18.021  0.00  0.00    +0.000 A 
ATOM      5  C   UNL     1       1.986   9.323  17.756  0.00  0.00    +0.000 A 
ATOM      6  C   UNL     1       2.390   8.200  18.599  0.00  0.00    +0.000 A 
ATOM      7  C   UNL     1       3.498   7.410  18.250  0.00  0.00    +0.000 A 
ATOM      8  C   UNL     1       3.771   6.247  18.976  0.00  0.00    +0.000 A 
ATOM      9  C   UNL     1       2.932   5.869  20.017  0.00  0.00    +0.000 A 
ATOM     10  C   UNL     1       1.917   6.720  20.447  0.00  0.00    +0.000 A 
ATOM     11  C   UNL     1       1.624   7.891  19.740  0.00  0.00    +0.000 A 
ENDROOT
BRANCH   8  12
ATOM     12  S   UNL     1       5.142   5.192  18.553  0.00  0.00    +0.000 S 
ATOM     13  O   UNL     1       5.687   5.702  17.315  0.00  0.00    +0.000 OA
ATOM     14  O   UNL     1       5.959   5.074  19.744  0.00  0.00    +0.000 OA
BRANCH  12  15
ATOM     15  N   UNL     1       4.449   3.681  18.263  0.00  0.00    +0.000 NA
ATOM     16  C   UNL     1       3.530   3.432  17.142  0.00  0.00    +0.000 C 
ATOM     17  C   UNL     1       2.092   3.217  17.608  0.00  0.00    +0.000 C 
ATOM     18  C   UNL     1       1.929   2.368  18.879  0.00  0.00    +0.000 C 
ATOM     19  C   UNL     1       0.573   2.666  19.534  0.00  0.00    +0.000 C 
ATOM     20  C   UNL     1       3.046   2.561  19.917  0.00  0.00    +0.000 C 
ATOM     21  C   UNL     1       4.431   2.645  19.296  0.00  0.00    +0.000 C 
ENDBRANCH  12  15
ENDBRANCH   8  12
BRANCH   1  22
ATOM     22  C   UNL     1      -0.146   8.579  21.386  0.00  0.00    +0.000 C 
BRANCH  22  24
ATOM     23  N   UNL     1      -1.016  10.741  22.126  0.00  0.00    +0.000 N 
ATOM     24  C   UNL     1      -0.007   9.815  22.266  0.00  0.00    +0.000 C 
ATOM     25  O   UNL     1       0.950   9.962  23.022  0.00  0.00    +0.000 OA
ATOM     26  H   UNL     1      -1.635  10.656  21.320  0.00  0.00    +0.000 HD
BRANCH  23  27
ATOM     27  C   UNL     1      -1.071  11.932  22.954  0.00  0.00    +0.000 C 
ATOM     28  C   UNL     1      -0.465  13.124  22.216  0.00  0.00    +0.000 C 
BRANCH  27  30
ATOM     29  C   UNL     1      -3.418  12.634  22.249  0.00  0.00    +0.000 C 
ATOM     30  C   UNL     1      -2.508  12.228  23.403  0.00  0.00    +0.000 C 
ENDBRANCH  27  30
ENDBRANCH  23  27
ENDBRANCH  22  24
ENDBRANCH   1  22
TORSDOF 6
ENDMDL
MODEL 4
REMARK VINA RESULT:      -7.8      1.243      1.755
REMARK  Name = 
REMARK  9 active torsions:
REMARK  status: ('A' for Active; 'I' for Inactive)
REMARK    1  A    between atoms: C_1  and  C_2
REMARK    2  A    between atoms: C_2  and  C_3
REMARK    3  A    between atoms: C_3  and  C_4
REMARK    4  A    between atoms: C_3  and  N_5
REMARK    5  A    between atoms: C_6  and  C_8
REMARK    6  A    between atoms: C_8  and  N_9
REMARK    7  A    between atoms: C_16  and  S_17
REMARK    8  A    between atoms: S_17  and  N_20
REMARK    9  A    between atoms: C_23  and  C_24
REMARK                            x       y       z     vdW  Elec       q    Type
REMARK                         _______ _______ _______ _____ _____    ______ ____
ROOT
ATOM      1  N   UNL     1      -0.217  10.833  19.883  0.00  0.00    +0.000 N 
ATOM      2  C   UNL     1      -0.437  11.218  21.192  0.00  0.00    +0.000 A 
ATOM      3  O   UNL     1      -0.964  12.289  21.510  0.00  0.00    +0.000 OA
ATOM      4  C   UNL     1      -0.012  10.278  22.255  0.00  0.00    +0.000 A 
ATOM      5  C   UNL     1       0.639   9.144  21.969  0.00  0.00    +0.000 A 
ATOM      6  C   UNL     1       1.034   8.854  20.592  0.00  0.00    +0.000 A 
ATOM      7  C   UNL     1       1.839   7.740  20.302  0.00  0.00    +0.000 A 
ATOM      8  C   UNL     1       2.339   7.570  19.008  0.00  0.00    +0.000 A 
ATOM      9  C   UNL     1       2.060   8.516  18.029  0.00  0.00    +0.000 A 
ATOM     10  C   UNL     1       1.155   9.544  18.282  0.00  0.00    +0.000 A 
ATOM     11  C   UNL     1       0.637   9.735  19.568  0.00  0.00    +0.000 A 
ENDROOT
BRANCH   8  12
ATOM     12  S   UNL     1       3.393   6.194  18.596  0.00  0.00    +0.000 S 
ATOM     13  O   UNL     1       3.711   6.325  17.192  0.00  0.00    +0.000 OA
ATOM     14  O   UNL     1       4.432   6.150  19.604  0.00  0.00    +0.000 OA
BRANCH  12  15
ATOM     15  N   UNL     1       2.423   4.830  18.811  0.00  0.00    +0.000 NA
ATOM     16  C   UNL     1       2.374   4.084  20.077  0.00  0.00    +0.000 C 
ATOM     17  C   UNL     1       3.046   2.717  19.970  0.00  0.00    +0.000 C 
ATOM     18  C   UNL     1       2.778   1.948  18.666  0.00  0.00    +0.000 C 
ATOM     19  C   UNL     1       3.881   0.907  18.439  0.00  0.00    +0.000 C 
ATOM     20  C   UNL     1       2.658   2.839  17.420  0.00  0.00    +0.000 C 
ATOM     21  C   UNL     1       1.862   4.110  17.667  0.00  0.00    +0.000 C 
ENDBRANCH  12  15
ENDBRANCH   8  12
BRANCH   1  22
ATOM     22  C   UNL     1      -0.827  11.636  18.820  0.00  0.00    +0.000 C 
BRANCH  22  24
ATOM     23  N   UNL     1      -2.871  11.780  17.485  0.00  0.00    +0.000 N 
ATOM     24  C   UNL     1      -2.038  10.950  18.202  0.00  0.00    +0.000 C 
ATOM     25  O   UNL     1      -2.247   9.749  18.359  0.00  0.00    +0.000 OA
ATOM     26  H   UNL     1      -2.757  12.787  17.601  0.00  0.00    +0.000 HD
BRANCH  23  27
ATOM     27  C   UNL     1      -4.021  11.263  16.767  0.00  0.00    +0.000 C 
ATOM     28  C   UNL     1      -5.250  12.131  17.033  0.00  0.00    +0.000 C 
BRANCH  27  30
ATOM     29  C   UNL     1      -3.027   9.856  14.888  0.00  0.00    +0.000 C 
ATOM     30  C   UNL     1      -3.732  11.155  15.264  0.00  0.00    +0.000 C 
ENDBRANCH  27  30
ENDBRANCH  23  27
ENDBRANCH  22  24
ENDBRANCH   1  22
TORSDOF 6
ENDMDL
MODEL 5
REMARK VINA RESULT:      -7.8      1.924      3.242
REMARK  Name = 
REMARK  9 active torsions:
REMARK  status: ('A' for Active; 'I' for Inactive)
REMARK    1  A    between atoms: C_1  and  C_2
REMARK    2  A    between atoms: C_2  and  C_3
REMARK    3  A    between atoms: C_3  and  C_4
REMARK    4  A    between atoms: C_3  and  N_5
REMARK    5  A    between atoms: C_6  and  C_8
REMARK    6  A    between atoms: C_8  and  N_9
REMARK    7  A    between atoms: C_16  and  S_17
REMARK    8  A    between atoms: S_17  and  N_20
REMARK    9  A    between atoms: C_23  and  C_24
REMARK                            x       y       z     vdW  Elec       q    Type
REMARK                         _______ _______ _______ _____ _____    ______ ____
ROOT
ATOM      1  N   UNL     1       0.366   9.758  19.537  0.00  0.00    +0.000 N 
ATOM      2  C   UNL     1       0.060   9.940  20.873  0.00  0.00    +0.000 A 
ATOM      3  O   UNL     1      -0.567  10.912  21.303  0.00  0.00    +0.000 OA
ATOM      4  C   UNL     1       0.518   8.897  21.820  0.00  0.00    +0.000 A 
ATOM      5  C   UNL     1       1.274   7.867  21.419  0.00  0.00    +0.000 A 
ATOM      6  C   UNL     1       1.749   7.803  20.038  0.00  0.00    +0.000 A 
ATOM      7  C   UNL     1       2.656   6.805  19.644  0.00  0.00    +0.000 A 
ATOM      8  C   UNL     1       3.222   6.856  18.366  0.00  0.00    +0.000 A 
ATOM      9  C   UNL     1       2.906   7.904  17.511  0.00  0.00    +0.000 A 
ATOM     10  C   UNL     1       1.907   8.813  17.852  0.00  0.00    +0.000 A 
ATOM     11  C   UNL     1       1.323   8.784  19.122  0.00  0.00    +0.000 A 
ENDROOT
BRANCH   8  12
ATOM     12  S   UNL     1       4.404   5.636  17.829  0.00  0.00    +0.000 S 
ATOM     13  O   UNL     1       4.703   5.933  16.446  0.00  0.00    +0.000 OA
ATOM     14  O   UNL     1       5.448   5.598  18.834  0.00  0.00    +0.000 OA
BRANCH  12  15
ATOM     15  N   UNL     1       3.574   4.170  17.907  0.00  0.00    +0.000 NA
ATOM     16  C   UNL     1       2.145   4.050  17.579  0.00  0.00    +0.000 C 
ATOM     17  C   UNL     1       1.288   3.790  18.816  0.00  0.00    +0.000 C 
ATOM     18  C   UNL     1       1.880   2.808  19.838  0.00  0.00    +0.000 C 
ATOM     19  C   UNL     1       1.240   3.038  21.214  0.00  0.00    +0.000 C 
ATOM     20  C   UNL     1       3.409   2.881  19.973  0.00  0.00    +0.000 C 
ATOM     21  C   UNL     1       4.121   3.026  18.637  0.00  0.00    +0.000 C 
ENDBRANCH  12  15
ENDBRANCH   8  12
BRANCH   1  22
ATOM     22  C   UNL     1      -0.264  10.650  18.561  0.00  0.00    +0.000 C 
BRANCH  22  24
ATOM     23  N   UNL     1       1.507  12.256  19.076  0.00  0.00    +0.000 N 
ATOM     24  C   UNL     1       0.185  12.096  18.728  0.00  0.00    +0.000 C 
ATOM     25  O   UNL     1      -0.595  13.033  18.576  0.00  0.00    +0.000 OA
ATOM     26  H   UNL     1       2.016  11.437  19.410  0.00  0.00    +0.000 HD
BRANCH  23  27
ATOM     27  C   UNL     1       2.107  13.572  19.191  0.00  0.00    +0.000 C 
ATOM     28  C   UNL     1       2.571  13.824  20.625  0.00  0.00    +0.000 C 
BRANCH  27  30
ATOM     29  C   UNL     1       3.984  15.077  18.348  0.00  0.00    +0.000 C 
ATOM     30  C   UNL     1       3.262  13.743  18.196  0.00  0.00    +0.000 C 
ENDBRANCH  27  30
ENDBRANCH  23  27
ENDBRANCH  22  24
ENDBRANCH   1  22
TORSDOF 6
ENDMDL
MODEL 6
REMARK VINA RESULT:      -7.7      2.601      4.088
REMARK  Name = 
REMARK  9 active torsions:
REMARK  status: ('A' for Active; 'I' for Inactive)
REMARK    1  A    between atoms: C_1  and  C_2
REMARK    2  A    between atoms: C_2  and  C_3
REMARK    3  A    between atoms: C_3  and  C_4
REMARK    4  A    between atoms: C_3  and  N_5
REMARK    5  A    between atoms: C_6  and  C_8
REMARK    6  A    between atoms: C_8  and  N_9
REMARK    7  A    between atoms: C_16  and  S_17
REMARK    8  A    between atoms: S_17  and  N_20
REMARK    9  A    between atoms: C_23  and  C_24
REMARK                            x       y       z     vdW  Elec       q    Type
REMARK                         _______ _______ _______ _____ _____    ______ ____
ROOT
ATOM      1  N   UNL     1       1.508   9.328  20.323  0.00  0.00    +0.000 N 
ATOM      2  C   UNL     1       1.390  10.311  19.358  0.00  0.00    +0.000 A 
ATOM      3  O   UNL     1       0.958  11.444  19.587  0.00  0.00    +0.000 OA
ATOM      4  C   UNL     1       1.813   9.962  17.982  0.00  0.00    +0.000 A 
ATOM      5  C   UNL     1       2.208   8.724  17.662  0.00  0.00    +0.000 A 
ATOM      6  C   UNL     1       2.136   7.654  18.654  0.00  0.00    +0.000 A 
ATOM      7  C   UNL     1       2.413   6.325  18.290  0.00  0.00    +0.000 A 
ATOM      8  C   UNL     1       2.182   5.297  19.209  0.00  0.00    +0.000 A 
ATOM      9  C   UNL     1       1.658   5.593  20.460  0.00  0.00    +0.000 A 
ATOM     10  C   UNL     1       1.512   6.917  20.867  0.00  0.00    +0.000 A 
ATOM     11  C   UNL     1       1.738   7.965  19.968  0.00  0.00    +0.000 A 
ENDROOT
BRANCH   8  12
ATOM     12  S   UNL     1       2.483   3.593  18.785  0.00  0.00    +0.000 S 
ATOM     13  O   UNL     1       2.311   2.830  20.001  0.00  0.00    +0.000 OA
ATOM     14  O   UNL     1       1.694   3.313  17.602  0.00  0.00    +0.000 OA
BRANCH  12  15
ATOM     15  N   UNL     1       4.107   3.543  18.332  0.00  0.00    +0.000 NA
ATOM     16  C   UNL     1       5.200   3.870  19.261  0.00  0.00    +0.000 C 
ATOM     17  C   UNL     1       5.876   5.194  18.917  0.00  0.00    +0.000 C 
ATOM     18  C   UNL     1       6.099   5.453  17.418  0.00  0.00    +0.000 C 
ATOM     19  C   UNL     1       6.261   6.959  17.168  0.00  0.00    +0.000 C 
ATOM     20  C   UNL     1       4.988   4.906  16.509  0.00  0.00    +0.000 C 
ATOM     21  C   UNL     1       4.502   3.526  16.923  0.00  0.00    +0.000 C 
ENDBRANCH  12  15
ENDBRANCH   8  12
BRANCH   1  22
ATOM     22  C   UNL     1       1.310   9.713  21.723  0.00  0.00    +0.000 C 
BRANCH  22  24
ATOM     23  N   UNL     1      -0.551  11.284  21.944  0.00  0.00    +0.000 N 
ATOM     24  C   UNL     1      -0.155   9.970  22.049  0.00  0.00    +0.000 C 
ATOM     25  O   UNL     1      -0.906   9.060  22.394  0.00  0.00    +0.000 OA
ATOM     26  H   UNL     1       0.175  11.998  21.885  0.00  0.00    +0.000 HD
BRANCH  23  27
ATOM     27  C   UNL     1      -1.934  11.678  22.140  0.00  0.00    +0.000 C 
ATOM     28  C   UNL     1      -2.131  12.257  23.540  0.00  0.00    +0.000 C 
BRANCH  27  30
ATOM     29  C   UNL     1      -2.364  12.071  19.658  0.00  0.00    +0.000 C 
ATOM     30  C   UNL     1      -2.386  12.670  21.060  0.00  0.00    +0.000 C 
ENDBRANCH  27  30
ENDBRANCH  23  27
ENDBRANCH  22  24
ENDBRANCH   1  22
TORSDOF 6
ENDMDL
MODEL 7
REMARK VINA RESULT:      -7.7      2.034      3.102
REMARK  Name = 
REMARK  9 active torsions:
REMARK  status: ('A' for Active; 'I' for Inactive)
REMARK    1  A    between atoms: C_1  and  C_2
REMARK    2  A    between atoms: C_2  and  C_3
REMARK    3  A    between atoms: C_3  and  C_4
REMARK    4  A    between atoms: C_3  and  N_5
REMARK    5  A    between atoms: C_6  and  C_8
REMARK    6  A    between atoms: C_8  and  N_9
REMARK    7  A    between atoms: C_16  and  S_17
REMARK    8  A    between atoms: S_17  and  N_20
REMARK    9  A    between atoms: C_23  and  C_24
REMARK                            x       y       z     vdW  Elec       q    Type
REMARK                         _______ _______ _______ _____ _____    ______ ____
ROOT
ATOM      1  N   UNL     1       1.403   9.765  19.683  0.00  0.00    +0.000 N 
ATOM      2  C   UNL     1       1.189  10.198  20.979  0.00  0.00    +0.000 A 
ATOM      3  O   UNL     1       1.192  11.387  21.310  0.00  0.00    +0.000 OA
ATOM      4  C   UNL     1       0.942   9.160  22.006  0.00  0.00    +0.000 A 
ATOM      5  C   UNL     1       1.012   7.855  21.717  0.00  0.00    +0.000 A 
ATOM      6  C   UNL     1       1.434   7.423  20.386  0.00  0.00    +0.000 A 
ATOM      7  C   UNL     1       1.647   6.061  20.115  0.00  0.00    +0.000 A 
ATOM      8  C   UNL     1       2.204   5.682  18.890  0.00  0.00    +0.000 A 
ATOM      9  C   UNL     1       2.567   6.653  17.965  0.00  0.00    +0.000 A 
ATOM     10  C   UNL     1       2.232   7.988  18.179  0.00  0.00    +0.000 A 
ATOM     11  C   UNL     1       1.671   8.394  19.395  0.00  0.00    +0.000 A 
ENDROOT
BRANCH   8  12
ATOM     12  S   UNL     1       2.528   3.971  18.510  0.00  0.00    +0.000 S 
ATOM     13  O   UNL     1       2.207   3.217  19.701  0.00  0.00    +0.000 OA
ATOM     14  O   UNL     1       1.876   3.697  17.245  0.00  0.00    +0.000 OA
BRANCH  12  15
ATOM     15  N   UNL     1       4.192   3.897  18.247  0.00  0.00    +0.000 NA
ATOM     16  C   UNL     1       5.175   4.233  19.289  0.00  0.00    +0.000 C 
ATOM     17  C   UNL     1       5.902   5.544  18.997  0.00  0.00    +0.000 C 
ATOM     18  C   UNL     1       6.298   5.770  17.530  0.00  0.00    +0.000 C 
ATOM     19  C   UNL     1       6.504   7.268  17.270  0.00  0.00    +0.000 C 
ATOM     20  C   UNL     1       5.291   5.213  16.510  0.00  0.00    +0.000 C 
ATOM     21  C   UNL     1       4.745   3.847  16.893  0.00  0.00    +0.000 C 
ENDBRANCH  12  15
ENDBRANCH   8  12
BRANCH   1  22
ATOM     22  C   UNL     1       1.425  10.772  18.618  0.00  0.00    +0.000 C 
BRANCH  22  24
ATOM     23  N   UNL     1      -0.710  10.420  17.480  0.00  0.00    +0.000 N 
ATOM     24  C   UNL     1       0.030  11.272  18.269  0.00  0.00    +0.000 C 
ATOM     25  O   UNL     1      -0.379  12.363  18.658  0.00  0.00    +0.000 OA
ATOM     26  H   UNL     1      -0.221   9.657  17.012  0.00  0.00    +0.000 HD
BRANCH  23  27
ATOM     27  C   UNL     1      -2.087  10.715  17.130  0.00  0.00    +0.000 C 
ATOM     28  C   UNL     1      -2.511   9.909  15.903  0.00  0.00    +0.000 C 
BRANCH  27  30
ATOM     29  C   UNL     1      -3.997  11.606  18.564  0.00  0.00    +0.000 C 
ATOM     30  C   UNL     1      -3.027  10.456  18.315  0.00  0.00    +0.000 C 
ENDBRANCH  27  30
ENDBRANCH  23  27
ENDBRANCH  22  24
ENDBRANCH   1  22
TORSDOF 6
ENDMDL
MODEL 8
REMARK VINA RESULT:      -7.7      2.165      2.992
REMARK  Name = 
REMARK  9 active torsions:
REMARK  status: ('A' for Active; 'I' for Inactive)
REMARK    1  A    between atoms: C_1  and  C_2
REMARK    2  A    between atoms: C_2  and  C_3
REMARK    3  A    between atoms: C_3  and  C_4
REMARK    4  A    between atoms: C_3  and  N_5
REMARK    5  A    between atoms: C_6  and  C_8
REMARK    6  A    between atoms: C_8  and  N_9
REMARK    7  A    between atoms: C_16  and  S_17
REMARK    8  A    between atoms: S_17  and  N_20
REMARK    9  A    between atoms: C_23  and  C_24
REMARK                            x       y       z     vdW  Elec       q    Type
REMARK                         _______ _______ _______ _____ _____    ______ ____
ROOT
ATOM      1  N   UNL     1       0.430  10.036  19.696  0.00  0.00    +0.000 N 
ATOM      2  C   UNL     1       0.110  10.231  21.027  0.00  0.00    +0.000 A 
ATOM      3  O   UNL     1      -0.441  11.250  21.454  0.00  0.00    +0.000 OA
ATOM      4  C   UNL     1       0.452   9.143  21.972  0.00  0.00    +0.000 A 
ATOM      5  C   UNL     1       1.123   8.055  21.576  0.00  0.00    +0.000 A 
ATOM      6  C   UNL     1       1.624   7.963  20.207  0.00  0.00    +0.000 A 
ATOM      7  C   UNL     1       2.450   6.893  19.821  0.00  0.00    +0.000 A 
ATOM      8  C   UNL     1       3.049   6.907  18.558  0.00  0.00    +0.000 A 
ATOM      9  C   UNL     1       2.847   7.986  17.708  0.00  0.00    +0.000 A 
ATOM     10  C   UNL     1       1.923   8.976  18.036  0.00  0.00    +0.000 A 
ATOM     11  C   UNL     1       1.308   8.986  19.292  0.00  0.00    +0.000 A 
ENDROOT
BRANCH   8  12
ATOM     12  S   UNL     1       4.133   5.593  18.034  0.00  0.00    +0.000 S 
ATOM     13  O   UNL     1       4.501   5.884  16.667  0.00  0.00    +0.000 OA
ATOM     14  O   UNL     1       5.135   5.443  19.070  0.00  0.00    +0.000 OA
BRANCH  12  15
ATOM     15  N   UNL     1       3.171   4.207  18.058  0.00  0.00    +0.000 NA
ATOM     16  C   UNL     1       1.701   4.262  18.055  0.00  0.00    +0.000 C 
ATOM     17  C   UNL     1       1.103   3.843  19.395  0.00  0.00    +0.000 C 
ATOM     18  C   UNL     1       1.780   2.643  20.076  0.00  0.00    +0.000 C 
ATOM     19  C   UNL     1       1.480   2.661  21.581  0.00  0.00    +0.000 C 
ATOM     20  C   UNL     1       3.300   2.570  19.864  0.00  0.00    +0.000 C 
ATOM     21  C   UNL     1       3.722   2.908  18.443  0.00  0.00    +0.000 C 
ENDBRANCH  12  15
ENDBRANCH   8  12
BRANCH   1  22
ATOM     22  C   UNL     1      -0.095  10.990  18.717  0.00  0.00    +0.000 C 
BRANCH  22  24
ATOM     23  N   UNL     1      -0.182  13.338  19.394  0.00  0.00    +0.000 N 
ATOM     24  C   UNL     1       0.582  12.350  18.815  0.00  0.00    +0.000 C 
ATOM     25  O   UNL     1       1.720  12.534  18.388  0.00  0.00    +0.000 OA
ATOM     26  H   UNL     1      -1.182  13.166  19.503  0.00  0.00    +0.000 HD
BRANCH  23  27
ATOM     27  C   UNL     1       0.351  14.665  19.636  0.00  0.00    +0.000 C 
ATOM     28  C   UNL     1      -0.234  15.666  18.641  0.00  0.00    +0.000 C 
BRANCH  27  30
ATOM     29  C   UNL     1      -0.945  16.216  21.190  0.00  0.00    +0.000 C 
ATOM     30  C   UNL     1       0.098  15.109  21.083  0.00  0.00    +0.000 C 
ENDBRANCH  27  30
ENDBRANCH  23  27
ENDBRANCH  22  24
ENDBRANCH   1  22
TORSDOF 6
ENDMDL
MODEL 9
REMARK VINA RESULT:      -7.7      2.205      3.071
REMARK  Name = 
REMARK  9 active torsions:
REMARK  status: ('A' for Active; 'I' for Inactive)
REMARK    1  A    between atoms: C_1  and  C_2
REMARK    2  A    between atoms: C_2  and  C_3
REMARK    3  A    between atoms: C_3  and  C_4
REMARK    4  A    between atoms: C_3  and  N_5
REMARK    5  A    between atoms: C_6  and  C_8
REMARK    6  A    between atoms: C_8  and  N_9
REMARK    7  A    between atoms: C_16  and  S_17
REMARK    8  A    between atoms: S_17  and  N_20
REMARK    9  A    between atoms: C_23  and  C_24
REMARK                            x       y       z     vdW  Elec       q    Type
REMARK                         _______ _______ _______ _____ _____    ______ ____
ROOT
ATOM      1  N   UNL     1       0.100  10.516  19.689  0.00  0.00    +0.000 N 
ATOM      2  C   UNL     1      -0.033  11.029  20.966  0.00  0.00    +0.000 A 
ATOM      3  O   UNL     1      -0.488  12.151  21.206  0.00  0.00    +0.000 OA
ATOM      4  C   UNL     1       0.399  10.167  22.090  0.00  0.00    +0.000 A 
ATOM      5  C   UNL     1       0.977   8.978  21.881  0.00  0.00    +0.000 A 
ATOM      6  C   UNL     1       1.286   8.544  20.520  0.00  0.00    +0.000 A 
ATOM      7  C   UNL     1       2.019   7.366  20.298  0.00  0.00    +0.000 A 
ATOM      8  C   UNL     1       2.443   7.053  19.002  0.00  0.00    +0.000 A 
ATOM      9  C   UNL     1       2.162   7.921  17.954  0.00  0.00    +0.000 A 
ATOM     10  C   UNL     1       1.322   9.015  18.152  0.00  0.00    +0.000 A 
ATOM     11  C   UNL     1       0.882   9.349  19.437  0.00  0.00    +0.000 A 
ENDROOT
BRANCH   8  12
ATOM     12  S   UNL     1       3.404   5.590  18.672  0.00  0.00    +0.000 S 
ATOM     13  O   UNL     1       3.769   5.038  19.957  0.00  0.00    +0.000 OA
ATOM     14  O   UNL     1       2.658   4.814  17.702  0.00  0.00    +0.000 OA
BRANCH  12  15
ATOM     15  N   UNL     1       4.796   6.155  17.903  0.00  0.00    +0.000 NA
ATOM     16  C   UNL     1       4.753   6.923  16.650  0.00  0.00    +0.000 C 
ATOM     17  C   UNL     1       5.277   6.121  15.461  0.00  0.00    +0.000 C 
ATOM     18  C   UNL     1       6.518   5.259  15.739  0.00  0.00    +0.000 C 
ATOM     19  C   UNL     1       6.617   4.135  14.699  0.00  0.00    +0.000 C 
ATOM     20  C   UNL     1       6.563   4.650  17.149  0.00  0.00    +0.000 C 
ATOM     21  C   UNL     1       6.116   5.617  18.234  0.00  0.00    +0.000 C 
ENDBRANCH  12  15
ENDBRANCH   8  12
BRANCH   1  22
ATOM     22  C   UNL     1      -0.523  11.251  18.585  0.00  0.00    +0.000 C 
BRANCH  22  24
ATOM     23  N   UNL     1      -2.860  11.914  18.863  0.00  0.00    +0.000 N 
ATOM     24  C   UNL     1      -2.002  10.924  18.437  0.00  0.00    +0.000 C 
ATOM     25  O   UNL     1      -2.381   9.846  17.985  0.00  0.00    +0.000 OA
ATOM     26  H   UNL     1      -2.475  12.666  19.434  0.00  0.00    +0.000 HD
BRANCH  23  27
ATOM     27  C   UNL     1      -4.298  11.789  18.710  0.00  0.00    +0.000 C 
ATOM     28  C   UNL     1      -5.020  12.745  19.658  0.00  0.00    +0.000 C 
BRANCH  27  30
ATOM     29  C   UNL     1      -6.188  12.421  17.122  0.00  0.00    +0.000 C 
ATOM     30  C   UNL     1      -4.723  12.022  17.255  0.00  0.00    +0.000 C 
ENDBRANCH  27  30
ENDBRANCH  23  27
ENDBRANCH  22  24
ENDBRANCH   1  22
TORSDOF 6
ENDMDL
