MODEL 1
REMARK VINA RESULT:      -8.0      0.000      0.000
REMARK  Name = 
REMARK  5 active torsions:
REMARK  status: ('A' for Active; 'I' for Inactive)
REMARK    1  A    between atoms: C_1  and  O_2
REMARK    2  A    between atoms: O_2  and  C_3
REMARK    3  A    between atoms: C_6  and  C_7
REMARK    4  A    between atoms: C_9  and  N_10
REMARK    5  A    between atoms: N_13  and  C_14
REMARK                            x       y       z     vdW  Elec       q    Type
REMARK                         _______ _______ _______ _____ _____    ______ ____
ROOT
ATOM      1  N   UNL     1       3.882   5.156  18.283  0.00  0.00    +0.000 N 
ATOM      2  C   UNL     1       3.349   6.429  18.475  0.00  0.00    +0.000 C 
ATOM      3  O   UNL     1       3.643   7.414  17.804  0.00  0.00    +0.000 OA
ATOM      4  N   UNL     1       2.475   6.482  19.558  0.00  0.00    +0.000 N 
ATOM      5  H   UNL     1       3.269   4.369  18.454  0.00  0.00    +0.000 HD
ATOM      6  H   UNL     1       2.732   5.873  20.321  0.00  0.00    +0.000 HD
ENDROOT
BRANCH   4   7
ATOM      7  C   UNL     1       1.791   7.682  19.905  0.00  0.00    +0.000 A 
ATOM      8  C   UNL     1       1.634   8.691  18.939  0.00  0.00    +0.000 A 
ATOM      9  C   UNL     1       0.937   9.871  19.241  0.00  0.00    +0.000 A 
ATOM     10  C   UNL     1       0.453  10.056  20.526  0.00  0.00    +0.000 A 
ATOM     11  C   UNL     1       0.634   9.074  21.496  0.00  0.00    +0.000 A 
ATOM     12  C   UNL     1       1.282   7.882  21.198  0.00  0.00    +0.000 A 
ATOM     13  C   UNL     1       0.086   9.495  22.822  0.00  0.00    +0.000 C 
ATOM     14  C   UNL     1      -0.547  10.869  22.529  0.00  0.00    +0.000 C 
ATOM     15  C   UNL     1      -0.269  11.247  21.066  0.00  0.00    +0.000 C 
ENDBRANCH   4   7
BRANCH   1  22
ATOM     16  C   UNL     1       6.319   4.880  17.965  0.00  0.00    +0.000 A 
ATOM     17  C   UNL     1       7.392   4.557  17.111  0.00  0.00    +0.000 A 
ATOM     18  C   UNL     1       7.185   4.287  15.760  0.00  0.00    +0.000 A 
ATOM     19  C   UNL     1       5.901   4.343  15.228  0.00  0.00    +0.000 A 
ATOM     20  C   UNL     1       5.645   4.061  13.780  0.00  0.00    +0.000 C 
ATOM     21  C   UNL     1       4.829   4.646  16.074  0.00  0.00    +0.000 A 
ATOM     22  C   UNL     1       5.007   4.882  17.447  0.00  0.00    +0.000 A 
BRANCH  16  24
ATOM     23  C   UNL     1       7.761   5.715  19.657  0.00  0.00    +0.000 C 
ATOM     24  O   UNL     1       6.485   5.169  19.302  0.00  0.00    +0.000 OA
ENDBRANCH  16  24
ENDBRANCH   1  22
TORSDOF 3
ENDMDL
MODEL 2
REMARK VINA RESULT:      -7.9      4.881      7.514
REMARK  Name = 
REMARK  5 active torsions:
REMARK  status: ('A' for Active; 'I' for Inactive)
REMARK    1  A    between atoms: C_1  and  O_2
REMARK    2  A    between atoms: O_2  and  C_3
REMARK    3  A    between atoms: C_6  and  C_7
REMARK    4  A    between atoms: C_9  and  N_10
REMARK    5  A    between atoms: N_13  and  C_14
REMARK                            x       y       z     vdW  Elec       q    Type
REMARK                         _______ _______ _______ _____ _____    ______ ____
ROOT
ATOM      1  N   UNL     1       6.758   7.603  16.850  0.00  0.00    +0.000 N 
ATOM      2  C   UNL     1       7.723   8.146  17.696  0.00  0.00    +0.000 C 
ATOM      3  O   UNL     1       8.333   7.512  18.551  0.00  0.00    +0.000 OA
ATOM      4  N   UNL     1       7.887   9.515  17.505  0.00  0.00    +0.000 N 
ATOM      5  H   UNL     1       6.709   7.973  15.909  0.00  0.00    +0.000 HD
ATOM      6  H   UNL     1       7.036   9.999  17.260  0.00  0.00    +0.000 HD
ENDROOT
BRANCH   4   7
ATOM      7  C   UNL     1       8.851  10.260  18.243  0.00  0.00    +0.000 A 
ATOM      8  C   UNL     1       8.948  10.075  19.633  0.00  0.00    +0.000 A 
ATOM      9  C   UNL     1       9.910  10.770  20.383  0.00  0.00    +0.000 A 
ATOM     10  C   UNL     1      10.726  11.689  19.743  0.00  0.00    +0.000 A 
ATOM     11  C   UNL     1      10.613  11.900  18.372  0.00  0.00    +0.000 A 
ATOM     12  C   UNL     1       9.697  11.185  17.610  0.00  0.00    +0.000 A 
ATOM     13  C   UNL     1      11.545  12.966  17.895  0.00  0.00    +0.000 C 
ATOM     14  C   UNL     1      12.333  13.349  19.162  0.00  0.00    +0.000 C 
ATOM     15  C   UNL     1      11.773  12.561  20.357  0.00  0.00    +0.000 C 
ENDBRANCH   4   7
BRANCH   1  22
ATOM     16  C   UNL     1       6.553   5.227  16.192  0.00  0.00    +0.000 A 
ATOM     17  C   UNL     1       5.997   3.956  16.433  0.00  0.00    +0.000 A 
ATOM     18  C   UNL     1       5.060   3.756  17.446  0.00  0.00    +0.000 A 
ATOM     19  C   UNL     1       4.650   4.826  18.234  0.00  0.00    +0.000 A 
ATOM     20  C   UNL     1       3.644   4.646  19.329  0.00  0.00    +0.000 C 
ATOM     21  C   UNL     1       5.211   6.088  18.012  0.00  0.00    +0.000 A 
ATOM     22  C   UNL     1       6.186   6.305  17.025  0.00  0.00    +0.000 A 
BRANCH  16  24
ATOM     23  C   UNL     1       7.169   4.863  13.927  0.00  0.00    +0.000 C 
ATOM     24  O   UNL     1       7.468   5.469  15.191  0.00  0.00    +0.000 OA
ENDBRANCH  16  24
ENDBRANCH   1  22
TORSDOF 3
ENDMDL
MODEL 3
REMARK VINA RESULT:      -7.9      1.706      2.820
REMARK  Name = 
REMARK  5 active torsions:
REMARK  status: ('A' for Active; 'I' for Inactive)
REMARK    1  A    between atoms: C_1  and  O_2
REMARK    2  A    between atoms: O_2  and  C_3
REMARK    3  A    between atoms: C_6  and  C_7
REMARK    4  A    between atoms: C_9  and  N_10
REMARK    5  A    between atoms: N_13  and  C_14
REMARK                            x       y       z     vdW  Elec       q    Type
REMARK                         _______ _______ _______ _____ _____    ______ ____
ROOT
ATOM      1  N   UNL     1       3.041   5.794  19.928  0.00  0.00    +0.000 N 
ATOM      2  C   UNL     1       2.328   6.976  19.736  0.00  0.00    +0.000 C 
ATOM      3  O   UNL     1       2.189   7.534  18.651  0.00  0.00    +0.000 OA
ATOM      4  N   UNL     1       1.829   7.497  20.926  0.00  0.00    +0.000 N 
ATOM      5  H   UNL     1       2.691   5.155  20.632  0.00  0.00    +0.000 HD
ATOM      6  H   UNL     1       2.428   7.340  21.724  0.00  0.00    +0.000 HD
ENDROOT
BRANCH   4   7
ATOM      7  C   UNL     1       1.039   8.682  20.948  0.00  0.00    +0.000 A 
ATOM      8  C   UNL     1       0.994   9.501  19.807  0.00  0.00    +0.000 A 
ATOM      9  C   UNL     1       0.200  10.658  19.786  0.00  0.00    +0.000 A 
ATOM     10  C   UNL     1      -0.497  11.016  20.929  0.00  0.00    +0.000 A 
ATOM     11  C   UNL     1      -0.430  10.226  22.073  0.00  0.00    +0.000 A 
ATOM     12  C   UNL     1       0.315   9.053  22.092  0.00  0.00    +0.000 A 
ATOM     13  C   UNL     1      -1.208  10.818  23.204  0.00  0.00    +0.000 C 
ATOM     14  C   UNL     1      -1.851  12.071  22.581  0.00  0.00    +0.000 C 
ATOM     15  C   UNL     1      -1.355  12.222  21.134  0.00  0.00    +0.000 C 
ENDBRANCH   4   7
BRANCH   1  22
ATOM     16  C   UNL     1       3.373   4.397  17.915  0.00  0.00    +0.000 A 
ATOM     17  C   UNL     1       4.248   3.880  16.940  0.00  0.00    +0.000 A 
ATOM     18  C   UNL     1       5.620   4.120  16.999  0.00  0.00    +0.000 A 
ATOM     19  C   UNL     1       6.149   4.873  18.042  0.00  0.00    +0.000 A 
ATOM     20  C   UNL     1       7.619   5.147  18.137  0.00  0.00    +0.000 C 
ATOM     21  C   UNL     1       5.284   5.403  19.005  0.00  0.00    +0.000 A 
ATOM     22  C   UNL     1       3.894   5.209  18.944  0.00  0.00    +0.000 A 
BRANCH  16  24
ATOM     23  C   UNL     1       1.608   2.859  18.315  0.00  0.00    +0.000 C 
ATOM     24  O   UNL     1       2.014   4.168  17.900  0.00  0.00    +0.000 OA
ENDBRANCH  16  24
ENDBRANCH   1  22
TORSDOF 3
ENDMDL
MODEL 4
REMARK VINA RESULT:      -7.8      2.471      8.178
REMARK  Name = 
REMARK  5 active torsions:
REMARK  status: ('A' for Active; 'I' for Inactive)
REMARK    1  A    between atoms: C_1  and  O_2
REMARK    2  A    between atoms: O_2  and  C_3
REMARK    3  A    between atoms: C_6  and  C_7
REMARK    4  A    between atoms: C_9  and  N_10
REMARK    5  A    between atoms: N_13  and  C_14
REMARK                            x       y       z     vdW  Elec       q    Type
REMARK                         _______ _______ _______ _____ _____    ______ ____
ROOT
ATOM      1  N   UNL     1       1.227   9.310  19.285  0.00  0.00    +0.000 N 
ATOM      2  C   UNL     1       1.923   8.524  18.370  0.00  0.00    +0.000 C 
ATOM      3  O   UNL     1       2.006   8.764  17.169  0.00  0.00    +0.000 OA
ATOM      4  N   UNL     1       2.478   7.389  18.956  0.00  0.00    +0.000 N 
ATOM      5  H   UNL     1       1.614   9.384  20.218  0.00  0.00    +0.000 HD
ATOM      6  H   UNL     1       1.920   7.001  19.702  0.00  0.00    +0.000 HD
ENDROOT
BRANCH   4   7
ATOM      7  C   UNL     1       3.262   6.469  18.203  0.00  0.00    +0.000 A 
ATOM      8  C   UNL     1       2.756   5.182  17.947  0.00  0.00    +0.000 A 
ATOM      9  C   UNL     1       3.491   4.263  17.181  0.00  0.00    +0.000 A 
ATOM     10  C   UNL     1       4.750   4.621  16.728  0.00  0.00    +0.000 A 
ATOM     11  C   UNL     1       5.270   5.882  17.007  0.00  0.00    +0.000 A 
ATOM     12  C   UNL     1       4.534   6.817  17.724  0.00  0.00    +0.000 A 
ATOM     13  C   UNL     1       6.658   6.042  16.475  0.00  0.00    +0.000 C 
ATOM     14  C   UNL     1       6.916   4.713  15.741  0.00  0.00    +0.000 C 
ATOM     15  C   UNL     1       5.709   3.784  15.945  0.00  0.00    +0.000 C 
ENDBRANCH   4   7
BRANCH   1  22
ATOM     16  C   UNL     1       0.698  11.714  19.036  0.00  0.00    +0.000 A 
ATOM     17  C   UNL     1      -0.204  12.710  18.613  0.00  0.00    +0.000 A 
ATOM     18  C   UNL     1      -1.466  12.381  18.122  0.00  0.00    +0.000 A 
ATOM     19  C   UNL     1      -1.860  11.049  18.052  0.00  0.00    +0.000 A 
ATOM     20  C   UNL     1      -3.210  10.662  17.532  0.00  0.00    +0.000 C 
ATOM     21  C   UNL     1      -0.963  10.054  18.454  0.00  0.00    +0.000 A 
ATOM     22  C   UNL     1       0.329  10.357  18.914  0.00  0.00    +0.000 A 
BRANCH  16  24
ATOM     23  C   UNL     1       2.008  13.120  20.432  0.00  0.00    +0.000 C 
ATOM     24  O   UNL     1       1.948  11.998  19.542  0.00  0.00    +0.000 OA
ENDBRANCH  16  24
ENDBRANCH   1  22
TORSDOF 3
ENDMDL
MODEL 5
REMARK VINA RESULT:      -7.8      3.467      8.577
REMARK  Name = 
REMARK  5 active torsions:
REMARK  status: ('A' for Active; 'I' for Inactive)
REMARK    1  A    between atoms: C_1  and  O_2
REMARK    2  A    between atoms: O_2  and  C_3
REMARK    3  A    between atoms: C_6  and  C_7
REMARK    4  A    between atoms: C_9  and  N_10
REMARK    5  A    between atoms: N_13  and  C_14
REMARK                            x       y       z     vdW  Elec       q    Type
REMARK                         _______ _______ _______ _____ _____    ______ ____
ROOT
ATOM      1  N   UNL     1       1.088   9.928  21.763  0.00  0.00    +0.000 N 
ATOM      2  C   UNL     1       1.070   8.951  20.770  0.00  0.00    +0.000 C 
ATOM      3  O   UNL     1       0.460   9.050  19.710  0.00  0.00    +0.000 OA
ATOM      4  N   UNL     1       1.782   7.811  21.132  0.00  0.00    +0.000 N 
ATOM      5  H   UNL     1       1.947  10.037  22.288  0.00  0.00    +0.000 HD
ATOM      6  H   UNL     1       1.733   7.595  22.117  0.00  0.00    +0.000 HD
ENDROOT
BRANCH   4   7
ATOM      7  C   UNL     1       1.921   6.706  20.245  0.00  0.00    +0.000 A 
ATOM      8  C   UNL     1       2.598   6.881  19.026  0.00  0.00    +0.000 A 
ATOM      9  C   UNL     1       2.780   5.803  18.145  0.00  0.00    +0.000 A 
ATOM     10  C   UNL     1       2.230   4.573  18.467  0.00  0.00    +0.000 A 
ATOM     11  C   UNL     1       1.531   4.401  19.658  0.00  0.00    +0.000 A 
ATOM     12  C   UNL     1       1.383   5.448  20.560  0.00  0.00    +0.000 A 
ATOM     13  C   UNL     1       0.977   3.018  19.783  0.00  0.00    +0.000 C 
ATOM     14  C   UNL     1       1.500   2.306  18.522  0.00  0.00    +0.000 C 
ATOM     15  C   UNL     1       2.265   3.318  17.655  0.00  0.00    +0.000 C 
ENDBRANCH   4   7
BRANCH   1  22
ATOM     16  C   UNL     1       0.486  12.205  21.005  0.00  0.00    +0.000 A 
ATOM     17  C   UNL     1      -0.428  13.276  21.022  0.00  0.00    +0.000 A 
ATOM     18  C   UNL     1      -1.567  13.242  21.824  0.00  0.00    +0.000 A 
ATOM     19  C   UNL     1      -1.813  12.141  22.637  0.00  0.00    +0.000 A 
ATOM     20  C   UNL     1      -3.025  12.075  23.513  0.00  0.00    +0.000 C 
ATOM     21  C   UNL     1      -0.917  11.066  22.613  0.00  0.00    +0.000 A 
ATOM     22  C   UNL     1       0.215  11.059  21.783  0.00  0.00    +0.000 A 
BRANCH  16  24
ATOM     23  C   UNL     1       1.568  12.995  19.044  0.00  0.00    +0.000 C 
ATOM     24  O   UNL     1       1.631  12.207  20.238  0.00  0.00    +0.000 OA
ENDBRANCH  16  24
ENDBRANCH   1  22
TORSDOF 3
ENDMDL
MODEL 6
REMARK VINA RESULT:      -7.8      4.815      6.622
REMARK  Name = 
REMARK  5 active torsions:
REMARK  status: ('A' for Active; 'I' for Inactive)
REMARK    1  A    between atoms: C_1  and  O_2
REMARK    2  A    between atoms: O_2  and  C_3
REMARK    3  A    between atoms: C_6  and  C_7
REMARK    4  A    between atoms: C_9  and  N_10
REMARK    5  A    between atoms: N_13  and  C_14
REMARK                            x       y       z     vdW  Elec       q    Type
REMARK                         _______ _______ _______ _____ _____    ______ ____
ROOT
ATOM      1  N   UNL     1       7.663   6.614  18.317  0.00  0.00    +0.000 N 
ATOM      2  C   UNL     1       7.830   7.992  18.202  0.00  0.00    +0.000 C 
ATOM      3  O   UNL     1       7.157   8.714  17.473  0.00  0.00    +0.000 OA
ATOM      4  N   UNL     1       8.891   8.465  18.969  0.00  0.00    +0.000 N 
ATOM      5  H   UNL     1       7.827   6.204  19.229  0.00  0.00    +0.000 HD
ATOM      6  H   UNL     1       9.666   7.822  19.037  0.00  0.00    +0.000 HD
ENDROOT
BRANCH   4   7
ATOM      7  C   UNL     1       9.211   9.852  19.024  0.00  0.00    +0.000 A 
ATOM      8  C   UNL     1       9.449  10.552  17.828  0.00  0.00    +0.000 A 
ATOM      9  C   UNL     1       9.734  11.926  17.847  0.00  0.00    +0.000 A 
ATOM     10  C   UNL     1       9.837  12.575  19.067  0.00  0.00    +0.000 A 
ATOM     11  C   UNL     1       9.634  11.880  20.256  0.00  0.00    +0.000 A 
ATOM     12  C   UNL     1       9.305  10.530  20.250  0.00  0.00    +0.000 A 
ATOM     13  C   UNL     1       9.845  12.751  21.452  0.00  0.00    +0.000 C 
ATOM     14  C   UNL     1      10.135  14.135  20.842  0.00  0.00    +0.000 C 
ATOM     15  C   UNL     1      10.176  14.010  19.311  0.00  0.00    +0.000 C 
ENDBRANCH   4   7
BRANCH   1  22
ATOM     16  C   UNL     1       5.639   5.264  17.868  0.00  0.00    +0.000 A 
ATOM     17  C   UNL     1       4.855   4.542  16.948  0.00  0.00    +0.000 A 
ATOM     18  C   UNL     1       5.279   4.342  15.635  0.00  0.00    +0.000 A 
ATOM     19  C   UNL     1       6.504   4.850  15.216  0.00  0.00    +0.000 A 
ATOM     20  C   UNL     1       6.991   4.650  13.814  0.00  0.00    +0.000 C 
ATOM     21  C   UNL     1       7.281   5.583  16.119  0.00  0.00    +0.000 A 
ATOM     22  C   UNL     1       6.856   5.833  17.434  0.00  0.00    +0.000 A 
BRANCH  16  24
ATOM     23  C   UNL     1       3.855   5.382  19.431  0.00  0.00    +0.000 C 
ATOM     24  O   UNL     1       5.262   5.470  19.177  0.00  0.00    +0.000 OA
ENDBRANCH  16  24
ENDBRANCH   1  22
TORSDOF 3
ENDMDL
MODEL 7
REMARK VINA RESULT:      -7.7      5.224      7.979
REMARK  Name = 
REMARK  5 active torsions:
REMARK  status: ('A' for Active; 'I' for Inactive)
REMARK    1  A    between atoms: C_1  and  O_2
REMARK    2  A    between atoms: O_2  and  C_3
REMARK    3  A    between atoms: C_6  and  C_7
REMARK    4  A    between atoms: C_9  and  N_10
REMARK    5  A    between atoms: N_13  and  C_14
REMARK                            x       y       z     vdW  Elec       q    Type
REMARK                         _______ _______ _______ _____ _____    ______ ____
ROOT
ATOM      1  N   UNL     1       9.544   9.411  19.202  0.00  0.00    +0.000 N 
ATOM      2  C   UNL     1       8.522   8.739  18.536  0.00  0.00    +0.000 C 
ATOM      3  O   UNL     1       7.761   9.261  17.727  0.00  0.00    +0.000 OA
ATOM      4  N   UNL     1       8.415   7.408  18.929  0.00  0.00    +0.000 N 
ATOM      5  H   UNL     1      10.392   8.889  19.392  0.00  0.00    +0.000 HD
ATOM      6  H   UNL     1       8.633   7.250  19.902  0.00  0.00    +0.000 HD
ENDROOT
BRANCH   4   7
ATOM      7  C   UNL     1       7.456   6.533  18.343  0.00  0.00    +0.000 A 
ATOM      8  C   UNL     1       7.273   6.545  16.949  0.00  0.00    +0.000 A 
ATOM      9  C   UNL     1       6.359   5.672  16.339  0.00  0.00    +0.000 A 
ATOM     10  C   UNL     1       5.595   4.834  17.135  0.00  0.00    +0.000 A 
ATOM     11  C   UNL     1       5.750   4.840  18.518  0.00  0.00    +0.000 A 
ATOM     12  C   UNL     1       6.683   5.667  19.132  0.00  0.00    +0.000 A 
ATOM     13  C   UNL     1       4.795   3.905  19.189  0.00  0.00    +0.000 C 
ATOM     14  C   UNL     1       4.060   3.238  18.011  0.00  0.00    +0.000 C 
ATOM     15  C   UNL     1       4.541   3.870  16.696  0.00  0.00    +0.000 C 
ENDBRANCH   4   7
BRANCH   1  22
ATOM     16  C   UNL     1       9.305  11.597  20.334  0.00  0.00    +0.000 A 
ATOM     17  C   UNL     1       9.511  12.990  20.316  0.00  0.00    +0.000 A 
ATOM     18  C   UNL     1      10.043  13.628  19.197  0.00  0.00    +0.000 A 
ATOM     19  C   UNL     1      10.371  12.889  18.066  0.00  0.00    +0.000 A 
ATOM     20  C   UNL     1      10.943  13.544  16.846  0.00  0.00    +0.000 C 
ATOM     21  C   UNL     1      10.186  11.502  18.083  0.00  0.00    +0.000 A 
ATOM     22  C   UNL     1       9.689  10.832  19.213  0.00  0.00    +0.000 A 
BRANCH  16  24
ATOM     23  C   UNL     1       8.292  11.769  22.476  0.00  0.00    +0.000 C 
ATOM     24  O   UNL     1       8.766  10.932  21.414  0.00  0.00    +0.000 OA
ENDBRANCH  16  24
ENDBRANCH   1  22
TORSDOF 3
ENDMDL
MODEL 8
REMARK VINA RESULT:      -7.7      1.725      3.239
REMARK  Name = 
REMARK  5 active torsions:
REMARK  status: ('A' for Active; 'I' for Inactive)
REMARK    1  A    between atoms: C_1  and  O_2
REMARK    2  A    between atoms: O_2  and  C_3
REMARK    3  A    between atoms: C_6  and  C_7
REMARK    4  A    between atoms: C_9  and  N_10
REMARK    5  A    between atoms: N_13  and  C_14
REMARK                            x       y       z     vdW  Elec       q    Type
REMARK                         _______ _______ _______ _____ _____    ______ ____
ROOT
ATOM      1  N   UNL     1       2.990   5.857  20.048  0.00  0.00    +0.000 N 
ATOM      2  C   UNL     1       2.274   7.044  19.913  0.00  0.00    +0.000 C 
ATOM      3  O   UNL     1       2.146   7.662  18.860  0.00  0.00    +0.000 OA
ATOM      4  N   UNL     1       1.756   7.494  21.124  0.00  0.00    +0.000 N 
ATOM      5  H   UNL     1       2.635   5.177  20.709  0.00  0.00    +0.000 HD
ATOM      6  H   UNL     1       2.344   7.295  21.920  0.00  0.00    +0.000 HD
ENDROOT
BRANCH   4   7
ATOM      7  C   UNL     1       0.959   8.672  21.203  0.00  0.00    +0.000 A 
ATOM      8  C   UNL     1       0.526   9.128  22.460  0.00  0.00    +0.000 A 
ATOM      9  C   UNL     1      -0.233  10.304  22.573  0.00  0.00    +0.000 A 
ATOM     10  C   UNL     1      -0.601  10.980  21.421  0.00  0.00    +0.000 A 
ATOM     11  C   UNL     1      -0.202  10.516  20.171  0.00  0.00    +0.000 A 
ATOM     12  C   UNL     1       0.589   9.379  20.048  0.00  0.00    +0.000 A 
ATOM     13  C   UNL     1      -0.749  11.358  19.064  0.00  0.00    +0.000 C 
ATOM     14  C   UNL     1      -1.495  12.483  19.804  0.00  0.00    +0.000 C 
ATOM     15  C   UNL     1      -1.439  12.213  21.316  0.00  0.00    +0.000 C 
ENDBRANCH   4   7
BRANCH   1  22
ATOM     16  C   UNL     1       3.355   4.597  17.951  0.00  0.00    +0.000 A 
ATOM     17  C   UNL     1       4.247   4.141  16.961  0.00  0.00    +0.000 A 
ATOM     18  C   UNL     1       5.619   4.365  17.065  0.00  0.00    +0.000 A 
ATOM     19  C   UNL     1       6.131   5.040  18.167  0.00  0.00    +0.000 A 
ATOM     20  C   UNL     1       7.600   5.295  18.310  0.00  0.00    +0.000 C 
ATOM     21  C   UNL     1       5.249   5.511  19.146  0.00  0.00    +0.000 A 
ATOM     22  C   UNL     1       3.860   5.333  19.043  0.00  0.00    +0.000 A 
BRANCH  16  24
ATOM     23  C   UNL     1       1.567   3.065  18.262  0.00  0.00    +0.000 C 
ATOM     24  O   UNL     1       1.995   4.381  17.893  0.00  0.00    +0.000 OA
ENDBRANCH  16  24
ENDBRANCH   1  22
TORSDOF 3
ENDMDL
MODEL 9
REMARK VINA RESULT:      -7.7      4.985      7.054
REMARK  Name = 
REMARK  5 active torsions:
REMARK  status: ('A' for Active; 'I' for Inactive)
REMARK    1  A    between atoms: C_1  and  O_2
REMARK    2  A    between atoms: O_2  and  C_3
REMARK    3  A    between atoms: C_6  and  C_7
REMARK    4  A    between atoms: C_9  and  N_10
REMARK    5  A    between atoms: N_13  and  C_14
REMARK                            x       y       z     vdW  Elec       q    Type
REMARK                         _______ _______ _______ _____ _____    ______ ____
ROOT
ATOM      1  N   UNL     1       7.745   6.763  18.351  0.00  0.00    +0.000 N 
ATOM      2  C   UNL     1       7.922   8.142  18.272  0.00  0.00    +0.000 C 
ATOM      3  O   UNL     1       7.239   8.891  17.579  0.00  0.00    +0.000 OA
ATOM      4  N   UNL     1       9.003   8.585  19.028  0.00  0.00    +0.000 N 
ATOM      5  H   UNL     1       7.925   6.325  19.247  0.00  0.00    +0.000 HD
ATOM      6  H   UNL     1       9.774   7.933  19.060  0.00  0.00    +0.000 HD
ENDROOT
BRANCH   4   7
ATOM      7  C   UNL     1       9.337   9.967  19.115  0.00  0.00    +0.000 A 
ATOM      8  C   UNL     1       9.159  10.643  20.334  0.00  0.00    +0.000 A 
ATOM      9  C   UNL     1       9.509  11.996  20.461  0.00  0.00    +0.000 A 
ATOM     10  C   UNL     1       9.978  12.676  19.349  0.00  0.00    +0.000 A 
ATOM     11  C   UNL     1      10.126  12.020  18.130  0.00  0.00    +0.000 A 
ATOM     12  C   UNL     1       9.827  10.669  18.003  0.00  0.00    +0.000 A 
ATOM     13  C   UNL     1      10.592  12.946  17.053  0.00  0.00    +0.000 C 
ATOM     14  C   UNL     1      10.798  14.281  17.792  0.00  0.00    +0.000 C 
ATOM     15  C   UNL     1      10.359  14.118  19.255  0.00  0.00    +0.000 C 
ENDBRANCH   4   7
BRANCH   1  22
ATOM     16  C   UNL     1       5.658   5.519  17.884  0.00  0.00    +0.000 A 
ATOM     17  C   UNL     1       4.851   4.827  16.960  0.00  0.00    +0.000 A 
ATOM     18  C   UNL     1       5.287   4.585  15.658  0.00  0.00    +0.000 A 
ATOM     19  C   UNL     1       6.544   5.020  15.254  0.00  0.00    +0.000 A 
ATOM     20  C   UNL     1       7.043   4.774  13.863  0.00  0.00    +0.000 C 
ATOM     21  C   UNL     1       7.344   5.723  16.161  0.00  0.00    +0.000 A 
ATOM     22  C   UNL     1       6.911   6.014  17.465  0.00  0.00    +0.000 A 
BRANCH  16  24
ATOM     23  C   UNL     1       3.956   5.309  19.527  0.00  0.00    +0.000 C 
ATOM     24  O   UNL     1       5.271   5.764  19.184  0.00  0.00    +0.000 OA
ENDBRANCH  16  24
ENDBRANCH   1  22
TORSDOF 3
ENDMDL
