MODEL 1
REMARK VINA RESULT:      -7.7      0.000      0.000
REMARK  Name = 
REMARK  13 active torsions:
REMARK  status: ('A' for Active; 'I' for Inactive)
REMARK    1  A    between atoms: C_1  and  C_2
REMARK    2  A    between atoms: C_2  and  C_3
REMARK    3  A    between atoms: C_3  and  C_4
REMARK    4  A    between atoms: C_4  and  C_5
REMARK    5  A    between atoms: C_5  and  C_6
REMARK    6  A    between atoms: C_6  and  C_7
REMARK    7  A    between atoms: C_7  and  C_8
REMARK    8  A    between atoms: C_8  and  S_9
REMARK    9  A    between atoms: S_9  and  N_12
REMARK   10  A    between atoms: N_12  and  C_13
REMARK   11  A    between atoms: C_16  and  C_17
REMARK   12  A    between atoms: C_25  and  C_26
REMARK   13  A    between atoms: C_26  and  O_28
REMARK                            x       y       z     vdW  Elec       q    Type
REMARK                         _______ _______ _______ _____ _____    ______ ____
ROOT
ATOM      1  C   UNL     1       2.914   5.862  18.883  0.00  0.00    +0.000 A 
ATOM      2  C   UNL     1       2.910   7.183  18.424  0.00  0.00    +0.000 A 
ATOM      3  C   UNL     1       2.187   8.174  19.109  0.00  0.00    +0.000 A 
ATOM      4  C   UNL     1       1.411   7.864  20.234  0.00  0.00    +0.000 A 
ATOM      5  C   UNL     1       1.408   6.530  20.662  0.00  0.00    +0.000 A 
ATOM      6  C   UNL     1       2.166   5.537  20.021  0.00  0.00    +0.000 A 
ENDROOT
BRANCH   4   7
ATOM      7  C   UNL     1       0.630   8.899  20.958  0.00  0.00    +0.000 A 
ATOM      8  C   UNL     1       0.482   8.849  22.365  0.00  0.00    +0.000 A 
ATOM      9  C   UNL     1      -0.232   9.831  23.060  0.00  0.00    +0.000 A 
ATOM     10  C   UNL     1      -0.812  10.884  22.370  0.00  0.00    +0.000 A 
ATOM     11  C   UNL     1      -0.677  10.953  20.992  0.00  0.00    +0.000 A 
ATOM     12  F   UNL     1      -1.233  11.971  20.317  0.00  0.00    +0.000 F 
ATOM     13  C   UNL     1       0.035   9.976  20.289  0.00  0.00    +0.000 A 
ENDBRANCH   4   7
BRANCH   1  14
ATOM     14  N   UNL     1       3.659   4.878  18.130  0.00  0.00    +0.000 N 
ATOM     15  H   UNL     1       3.186   3.964  18.110  0.00  0.00    +0.000 HD
BRANCH  14  16
ATOM     16  S   UNL     1       5.230   4.527  18.744  0.00  0.00    +0.000 S 
ATOM     17  O   UNL     1       5.136   3.164  19.223  0.00  0.00    +0.000 OA
ATOM     18  O   UNL     1       5.671   5.606  19.596  0.00  0.00    +0.000 OA
BRANCH  16  19
ATOM     19  C   UNL     1       6.203   4.531  17.235  0.00  0.00    +0.000 C 
BRANCH  19  20
ATOM     20  C   UNL     1       5.411   3.940  16.072  0.00  0.00    +0.000 C 
BRANCH  20  21
ATOM     21  C   UNL     1       5.473   4.825  14.828  0.00  0.00    +0.000 C 
BRANCH  21  22
ATOM     22  C   UNL     1       6.635   4.405  13.925  0.00  0.00    +0.000 C 
BRANCH  22  23
ATOM     23  C   UNL     1       6.176   3.436  12.838  0.00  0.00    +0.000 C 
BRANCH  23  24
ATOM     24  C   UNL     1       4.723   3.702  12.444  0.00  0.00    +0.000 C 
BRANCH  24  26
ATOM     25  C   UNL     1       3.315   3.725  10.361  0.00  0.00    +0.000 C 
ATOM     26  C   UNL     1       4.360   2.964  11.157  0.00  0.00    +0.000 C 
ENDBRANCH  24  26
ENDBRANCH  23  24
ENDBRANCH  22  23
ENDBRANCH  21  22
ENDBRANCH  20  21
ENDBRANCH  19  20
ENDBRANCH  16  19
ENDBRANCH  14  16
ENDBRANCH   1  14
BRANCH   6  27
ATOM     27  C   UNL     1       2.186   4.216  20.701  0.00  0.00    +0.000 C 
ATOM     28  O   UNL     1       2.378   4.081  21.897  0.00  0.00    +0.000 OA
BRANCH  27  29
ATOM     29  O   UNL     1       2.120   3.173  19.843  0.00  0.00    +0.000 OA
ATOM     30  H   UNL     1       1.387   2.556  20.036  0.00  0.00    +0.000 HD
ENDBRANCH  27  29
ENDBRANCH   6  27
TORSDOF 12
ENDMDL
MODEL 2
REMARK VINA RESULT:      -7.6      2.454      3.668
REMARK  Name = 
REMARK  13 active torsions:
REMARK  status: ('A' for Active; 'I' for Inactive)
REMARK    1  A    between atoms: C_1  and  C_2
REMARK    2  A    between atoms: C_2  and  C_3
REMARK    3  A    between atoms: C_3  and  C_4
REMARK    4  A    between atoms: C_4  and  C_5
REMARK    5  A    between atoms: C_5  and  C_6
REMARK    6  A    between atoms: C_6  and  C_7
REMARK    7  A    between atoms: C_7  and  C_8
REMARK    8  A    between atoms: C_8  and  S_9
REMARK    9  A    between atoms: S_9  and  N_12
REMARK   10  A    between atoms: N_12  and  C_13
REMARK   11  A    between atoms: C_16  and  C_17
REMARK   12  A    between atoms: C_25  and  C_26
REMARK   13  A    between atoms: C_26  and  O_28
REMARK                            x       y       z     vdW  Elec       q    Type
REMARK                         _______ _______ _______ _____ _____    ______ ____
ROOT
ATOM      1  C   UNL     1       3.104   4.888  19.617  0.00  0.00    +0.000 A 
ATOM      2  C   UNL     1       3.430   6.121  19.041  0.00  0.00    +0.000 A 
ATOM      3  C   UNL     1       2.752   7.289  19.427  0.00  0.00    +0.000 A 
ATOM      4  C   UNL     1       1.701   7.251  20.354  0.00  0.00    +0.000 A 
ATOM      5  C   UNL     1       1.373   6.002  20.899  0.00  0.00    +0.000 A 
ATOM      6  C   UNL     1       2.075   4.833  20.564  0.00  0.00    +0.000 A 
ENDROOT
BRANCH   4   7
ATOM      7  C   UNL     1       0.966   8.477  20.758  0.00  0.00    +0.000 A 
ATOM      8  C   UNL     1       0.683   9.498  19.820  0.00  0.00    +0.000 A 
ATOM      9  C   UNL     1      -0.029  10.647  20.182  0.00  0.00    +0.000 A 
ATOM     10  C   UNL     1      -0.476  10.801  21.486  0.00  0.00    +0.000 A 
ATOM     11  C   UNL     1      -0.211   9.811  22.419  0.00  0.00    +0.000 A 
ATOM     12  F   UNL     1      -0.643   9.951  23.682  0.00  0.00    +0.000 F 
ATOM     13  C   UNL     1       0.499   8.660  22.065  0.00  0.00    +0.000 A 
ENDBRANCH   4   7
BRANCH   1  14
ATOM     14  N   UNL     1       3.819   3.714  19.170  0.00  0.00    +0.000 N 
ATOM     15  H   UNL     1       4.786   3.929  18.893  0.00  0.00    +0.000 HD
BRANCH  14  16
ATOM     16  S   UNL     1       3.148   2.936  17.786  0.00  0.00    +0.000 S 
ATOM     17  O   UNL     1       1.736   3.246  17.845  0.00  0.00    +0.000 OA
ATOM     18  O   UNL     1       3.628   1.576  17.714  0.00  0.00    +0.000 OA
BRANCH  16  19
ATOM     19  C   UNL     1       3.884   3.893  16.457  0.00  0.00    +0.000 C 
BRANCH  19  20
ATOM     20  C   UNL     1       5.342   3.496  16.240  0.00  0.00    +0.000 C 
BRANCH  20  21
ATOM     21  C   UNL     1       6.254   4.714  16.100  0.00  0.00    +0.000 C 
BRANCH  21  22
ATOM     22  C   UNL     1       5.430   6.003  16.069  0.00  0.00    +0.000 C 
BRANCH  22  23
ATOM     23  C   UNL     1       5.993   7.047  17.031  0.00  0.00    +0.000 C 
BRANCH  23  24
ATOM     24  C   UNL     1       7.515   6.956  17.111  0.00  0.00    +0.000 C 
BRANCH  24  26
ATOM     25  C   UNL     1       7.785   5.702  19.275  0.00  0.00    +0.000 C 
ATOM     26  C   UNL     1       7.993   7.026  18.561  0.00  0.00    +0.000 C 
ENDBRANCH  24  26
ENDBRANCH  23  24
ENDBRANCH  22  23
ENDBRANCH  21  22
ENDBRANCH  20  21
ENDBRANCH  19  20
ENDBRANCH  16  19
ENDBRANCH  14  16
ENDBRANCH   1  14
BRANCH   6  27
ATOM     27  C   UNL     1       1.715   3.628  21.357  0.00  0.00    +0.000 C 
ATOM     28  O   UNL     1       2.409   3.186  22.256  0.00  0.00    +0.000 OA
BRANCH  27  29
ATOM     29  O   UNL     1       0.621   2.989  20.887  0.00  0.00    +0.000 OA
ATOM     30  H   UNL     1       0.577   2.048  21.149  0.00  0.00    +0.000 HD
ENDBRANCH  27  29
ENDBRANCH   6  27
TORSDOF 12
ENDMDL
MODEL 3
REMARK VINA RESULT:      -7.4      4.682      7.523
REMARK  Name = 
REMARK  13 active torsions:
REMARK  status: ('A' for Active; 'I' for Inactive)
REMARK    1  A    between atoms: C_1  and  C_2
REMARK    2  A    between atoms: C_2  and  C_3
REMARK    3  A    between atoms: C_3  and  C_4
REMARK    4  A    between atoms: C_4  and  C_5
REMARK    5  A    between atoms: C_5  and  C_6
REMARK    6  A    between atoms: C_6  and  C_7
REMARK    7  A    between atoms: C_7  and  C_8
REMARK    8  A    between atoms: C_8  and  S_9
REMARK    9  A    between atoms: S_9  and  N_12
REMARK   10  A    between atoms: N_12  and  C_13
REMARK   11  A    between atoms: C_16  and  C_17
REMARK   12  A    between atoms: C_25  and  C_26
REMARK   13  A    between atoms: C_26  and  O_28
REMARK                            x       y       z     vdW  Elec       q    Type
REMARK                         _______ _______ _______ _____ _____    ______ ____
ROOT
ATOM      1  C   UNL     1       7.283   5.553  17.996  0.00  0.00    +0.000 A 
ATOM      2  C   UNL     1       7.942   5.943  19.166  0.00  0.00    +0.000 A 
ATOM      3  C   UNL     1       8.383   7.266  19.329  0.00  0.00    +0.000 A 
ATOM      4  C   UNL     1       8.228   8.218  18.312  0.00  0.00    +0.000 A 
ATOM      5  C   UNL     1       7.589   7.800  17.137  0.00  0.00    +0.000 A 
ATOM      6  C   UNL     1       7.094   6.495  16.978  0.00  0.00    +0.000 A 
ENDROOT
BRANCH   4   7
ATOM      7  C   UNL     1       8.705   9.616  18.466  0.00  0.00    +0.000 A 
ATOM      8  C   UNL     1       8.281  10.631  17.576  0.00  0.00    +0.000 A 
ATOM      9  C   UNL     1       8.704  11.957  17.724  0.00  0.00    +0.000 A 
ATOM     10  C   UNL     1       9.557  12.299  18.762  0.00  0.00    +0.000 A 
ATOM     11  C   UNL     1       9.982  11.319  19.646  0.00  0.00    +0.000 A 
ATOM     12  F   UNL     1      10.806  11.642  20.656  0.00  0.00    +0.000 F 
ATOM     13  C   UNL     1       9.563   9.992  19.506  0.00  0.00    +0.000 A 
ENDBRANCH   4   7
BRANCH   1  14
ATOM     14  N   UNL     1       6.866   4.174  17.871  0.00  0.00    +0.000 N 
ATOM     15  H   UNL     1       7.030   3.802  16.926  0.00  0.00    +0.000 HD
BRANCH  14  16
ATOM     16  S   UNL     1       5.190   3.892  18.151  0.00  0.00    +0.000 S 
ATOM     17  O   UNL     1       5.159   2.928  19.230  0.00  0.00    +0.000 OA
ATOM     18  O   UNL     1       4.521   3.651  16.894  0.00  0.00    +0.000 OA
BRANCH  16  19
ATOM     19  C   UNL     1       4.671   5.485  18.798  0.00  0.00    +0.000 C 
BRANCH  19  20
ATOM     20  C   UNL     1       3.422   5.986  18.079  0.00  0.00    +0.000 C 
BRANCH  20  21
ATOM     21  C   UNL     1       2.139   5.456  18.719  0.00  0.00    +0.000 C 
BRANCH  21  22
ATOM     22  C   UNL     1       1.402   4.523  17.755  0.00  0.00    +0.000 C 
BRANCH  22  23
ATOM     23  C   UNL     1       1.324   3.101  18.307  0.00  0.00    +0.000 C 
BRANCH  23  24
ATOM     24  C   UNL     1       0.793   3.097  19.739  0.00  0.00    +0.000 C 
BRANCH  24  26
ATOM     25  C   UNL     1       2.213   3.400  21.793  0.00  0.00    +0.000 C 
ATOM     26  C   UNL     1       1.791   2.442  20.692  0.00  0.00    +0.000 C 
ENDBRANCH  24  26
ENDBRANCH  23  24
ENDBRANCH  22  23
ENDBRANCH  21  22
ENDBRANCH  20  21
ENDBRANCH  19  20
ENDBRANCH  16  19
ENDBRANCH  14  16
ENDBRANCH   1  14
BRANCH   6  27
ATOM     27  C   UNL     1       6.295   6.266  15.746  0.00  0.00    +0.000 C 
ATOM     28  O   UNL     1       5.280   6.887  15.481  0.00  0.00    +0.000 OA
BRANCH  27  29
ATOM     29  O   UNL     1       6.719   5.204  15.026  0.00  0.00    +0.000 OA
ATOM     30  H   UNL     1       7.181   4.530  15.562  0.00  0.00    +0.000 HD
ENDBRANCH  27  29
ENDBRANCH   6  27
TORSDOF 12
ENDMDL
MODEL 4
REMARK VINA RESULT:      -7.4      3.552      8.589
REMARK  Name = 
REMARK  13 active torsions:
REMARK  status: ('A' for Active; 'I' for Inactive)
REMARK    1  A    between atoms: C_1  and  C_2
REMARK    2  A    between atoms: C_2  and  C_3
REMARK    3  A    between atoms: C_3  and  C_4
REMARK    4  A    between atoms: C_4  and  C_5
REMARK    5  A    between atoms: C_5  and  C_6
REMARK    6  A    between atoms: C_6  and  C_7
REMARK    7  A    between atoms: C_7  and  C_8
REMARK    8  A    between atoms: C_8  and  S_9
REMARK    9  A    between atoms: S_9  and  N_12
REMARK   10  A    between atoms: N_12  and  C_13
REMARK   11  A    between atoms: C_16  and  C_17
REMARK   12  A    between atoms: C_25  and  C_26
REMARK   13  A    between atoms: C_26  and  O_28
REMARK                            x       y       z     vdW  Elec       q    Type
REMARK                         _______ _______ _______ _____ _____    ______ ____
ROOT
ATOM      1  C   UNL     1       4.404   5.077  18.261  0.00  0.00    +0.000 A 
ATOM      2  C   UNL     1       5.090   6.123  17.635  0.00  0.00    +0.000 A 
ATOM      3  C   UNL     1       5.638   5.950  16.353  0.00  0.00    +0.000 A 
ATOM      4  C   UNL     1       5.563   4.719  15.687  0.00  0.00    +0.000 A 
ATOM      5  C   UNL     1       4.895   3.676  16.343  0.00  0.00    +0.000 A 
ATOM      6  C   UNL     1       4.295   3.847  17.601  0.00  0.00    +0.000 A 
ENDROOT
BRANCH   4   7
ATOM      7  C   UNL     1       6.153   4.519  14.339  0.00  0.00    +0.000 A 
ATOM      8  C   UNL     1       7.270   5.277  13.914  0.00  0.00    +0.000 A 
ATOM      9  C   UNL     1       7.850   5.081  12.655  0.00  0.00    +0.000 A 
ATOM     10  C   UNL     1       7.330   4.125  11.795  0.00  0.00    +0.000 A 
ATOM     11  C   UNL     1       6.238   3.371  12.194  0.00  0.00    +0.000 A 
ATOM     12  F   UNL     1       5.731   2.441  11.369  0.00  0.00    +0.000 F 
ATOM     13  C   UNL     1       5.653   3.560  13.450  0.00  0.00    +0.000 A 
ENDBRANCH   4   7
BRANCH   1  14
ATOM     14  N   UNL     1       3.876   5.302  19.587  0.00  0.00    +0.000 N 
ATOM     15  H   UNL     1       3.942   4.463  20.180  0.00  0.00    +0.000 HD
BRANCH  14  16
ATOM     16  S   UNL     1       2.207   5.727  19.645  0.00  0.00    +0.000 S 
ATOM     17  O   UNL     1       1.774   5.321  20.964  0.00  0.00    +0.000 OA
ATOM     18  O   UNL     1       1.546   5.263  18.448  0.00  0.00    +0.000 OA
BRANCH  16  19
ATOM     19  C   UNL     1       2.303   7.520  19.607  0.00  0.00    +0.000 C 
BRANCH  19  20
ATOM     20  C   UNL     1       2.081   8.049  18.193  0.00  0.00    +0.000 C 
BRANCH  20  21
ATOM     21  C   UNL     1       1.578   9.493  18.192  0.00  0.00    +0.000 C 
BRANCH  21  22
ATOM     22  C   UNL     1       0.762   9.780  19.455  0.00  0.00    +0.000 C 
BRANCH  22  23
ATOM     23  C   UNL     1      -0.668  10.192  19.112  0.00  0.00    +0.000 C 
BRANCH  23  24
ATOM     24  C   UNL     1      -0.940  10.039  17.617  0.00  0.00    +0.000 C 
BRANCH  24  26
ATOM     25  C   UNL     1      -2.809  10.418  15.977  0.00  0.00    +0.000 C 
ATOM     26  C   UNL     1      -2.434   9.876  17.345  0.00  0.00    +0.000 C 
ENDBRANCH  24  26
ENDBRANCH  23  24
ENDBRANCH  22  23
ENDBRANCH  21  22
ENDBRANCH  20  21
ENDBRANCH  19  20
ENDBRANCH  16  19
ENDBRANCH  14  16
ENDBRANCH   1  14
BRANCH   6  27
ATOM     27  C   UNL     1       3.483   2.697  18.078  0.00  0.00    +0.000 C 
ATOM     28  O   UNL     1       3.926   1.814  18.791  0.00  0.00    +0.000 OA
BRANCH  27  29
ATOM     29  O   UNL     1       2.251   2.649  17.523  0.00  0.00    +0.000 OA
ATOM     30  H   UNL     1       2.120   3.302  16.808  0.00  0.00    +0.000 HD
ENDBRANCH  27  29
ENDBRANCH   6  27
TORSDOF 12
ENDMDL
MODEL 5
REMARK VINA RESULT:      -7.4      4.634      7.604
REMARK  Name = 
REMARK  13 active torsions:
REMARK  status: ('A' for Active; 'I' for Inactive)
REMARK    1  A    between atoms: C_1  and  C_2
REMARK    2  A    between atoms: C_2  and  C_3
REMARK    3  A    between atoms: C_3  and  C_4
REMARK    4  A    between atoms: C_4  and  C_5
REMARK    5  A    between atoms: C_5  and  C_6
REMARK    6  A    between atoms: C_6  and  C_7
REMARK    7  A    between atoms: C_7  and  C_8
REMARK    8  A    between atoms: C_8  and  S_9
REMARK    9  A    between atoms: S_9  and  N_12
REMARK   10  A    between atoms: N_12  and  C_13
REMARK   11  A    between atoms: C_16  and  C_17
REMARK   12  A    between atoms: C_25  and  C_26
REMARK   13  A    between atoms: C_26  and  O_28
REMARK                            x       y       z     vdW  Elec       q    Type
REMARK                         _______ _______ _______ _____ _____    ______ ____
ROOT
ATOM      1  C   UNL     1       7.032   5.641  18.065  0.00  0.00    +0.000 A 
ATOM      2  C   UNL     1       7.956   5.930  19.075  0.00  0.00    +0.000 A 
ATOM      3  C   UNL     1       8.474   7.228  19.217  0.00  0.00    +0.000 A 
ATOM      4  C   UNL     1       8.125   8.254  18.329  0.00  0.00    +0.000 A 
ATOM      5  C   UNL     1       7.218   7.937  17.309  0.00  0.00    +0.000 A 
ATOM      6  C   UNL     1       6.651   6.659  17.183  0.00  0.00    +0.000 A 
ENDROOT
BRANCH   4   7
ATOM      7  C   UNL     1       8.678   9.626  18.459  0.00  0.00    +0.000 A 
ATOM      8  C   UNL     1       8.297  10.653  17.562  0.00  0.00    +0.000 A 
ATOM      9  C   UNL     1       8.792  11.955  17.689  0.00  0.00    +0.000 A 
ATOM     10  C   UNL     1       9.676  12.263  18.712  0.00  0.00    +0.000 A 
ATOM     11  C   UNL     1      10.059  11.273  19.603  0.00  0.00    +0.000 A 
ATOM     12  F   UNL     1      10.912  11.563  20.598  0.00  0.00    +0.000 F 
ATOM     13  C   UNL     1       9.569   9.969  19.484  0.00  0.00    +0.000 A 
ENDBRANCH   4   7
BRANCH   1  14
ATOM     14  N   UNL     1       6.546   4.284  17.950  0.00  0.00    +0.000 N 
ATOM     15  H   UNL     1       6.317   4.034  16.979  0.00  0.00    +0.000 HD
BRANCH  14  16
ATOM     16  S   UNL     1       5.097   3.954  18.823  0.00  0.00    +0.000 S 
ATOM     17  O   UNL     1       4.673   5.244  19.324  0.00  0.00    +0.000 OA
ATOM     18  O   UNL     1       5.304   2.825  19.700  0.00  0.00    +0.000 OA
BRANCH  16  19
ATOM     19  C   UNL     1       3.991   3.472  17.493  0.00  0.00    +0.000 C 
BRANCH  19  20
ATOM     20  C   UNL     1       2.722   4.320  17.503  0.00  0.00    +0.000 C 
BRANCH  20  21
ATOM     21  C   UNL     1       1.511   3.535  18.006  0.00  0.00    +0.000 C 
BRANCH  21  22
ATOM     22  C   UNL     1       1.647   3.233  19.500  0.00  0.00    +0.000 C 
BRANCH  22  23
ATOM     23  C   UNL     1       0.865   4.236  20.345  0.00  0.00    +0.000 C 
BRANCH  23  24
ATOM     24  C   UNL     1       1.800   5.265  20.978  0.00  0.00    +0.000 C 
BRANCH  24  26
ATOM     25  C   UNL     1       1.306   7.729  21.083  0.00  0.00    +0.000 C 
ATOM     26  C   UNL     1       1.770   6.582  20.204  0.00  0.00    +0.000 C 
ENDBRANCH  24  26
ENDBRANCH  23  24
ENDBRANCH  22  23
ENDBRANCH  21  22
ENDBRANCH  20  21
ENDBRANCH  19  20
ENDBRANCH  16  19
ENDBRANCH  14  16
ENDBRANCH   1  14
BRANCH   6  27
ATOM     27  C   UNL     1       5.582   6.537  16.158  0.00  0.00    +0.000 C 
ATOM     28  O   UNL     1       4.463   6.998  16.299  0.00  0.00    +0.000 OA
BRANCH  27  29
ATOM     29  O   UNL     1       5.926   5.741  15.121  0.00  0.00    +0.000 OA
ATOM     30  H   UNL     1       6.661   6.097  14.584  0.00  0.00    +0.000 HD
ENDBRANCH  27  29
ENDBRANCH   6  27
TORSDOF 12
ENDMDL
MODEL 6
REMARK VINA RESULT:      -7.4      0.913      1.274
REMARK  Name = 
REMARK  13 active torsions:
REMARK  status: ('A' for Active; 'I' for Inactive)
REMARK    1  A    between atoms: C_1  and  C_2
REMARK    2  A    between atoms: C_2  and  C_3
REMARK    3  A    between atoms: C_3  and  C_4
REMARK    4  A    between atoms: C_4  and  C_5
REMARK    5  A    between atoms: C_5  and  C_6
REMARK    6  A    between atoms: C_6  and  C_7
REMARK    7  A    between atoms: C_7  and  C_8
REMARK    8  A    between atoms: C_8  and  S_9
REMARK    9  A    between atoms: S_9  and  N_12
REMARK   10  A    between atoms: N_12  and  C_13
REMARK   11  A    between atoms: C_16  and  C_17
REMARK   12  A    between atoms: C_25  and  C_26
REMARK   13  A    between atoms: C_26  and  O_28
REMARK                            x       y       z     vdW  Elec       q    Type
REMARK                         _______ _______ _______ _____ _____    ______ ____
ROOT
ATOM      1  C   UNL     1       2.954   5.879  18.732  0.00  0.00    +0.000 A 
ATOM      2  C   UNL     1       3.021   7.165  18.187  0.00  0.00    +0.000 A 
ATOM      3  C   UNL     1       2.358   8.237  18.806  0.00  0.00    +0.000 A 
ATOM      4  C   UNL     1       1.571   8.047  19.950  0.00  0.00    +0.000 A 
ATOM      5  C   UNL     1       1.496   6.746  20.465  0.00  0.00    +0.000 A 
ATOM      6  C   UNL     1       2.194   5.672  19.890  0.00  0.00    +0.000 A 
ENDROOT
BRANCH   4   7
ATOM      7  C   UNL     1       0.853   9.170  20.604  0.00  0.00    +0.000 A 
ATOM      8  C   UNL     1       0.592  10.373  19.906  0.00  0.00    +0.000 A 
ATOM      9  C   UNL     1      -0.105  11.429  20.503  0.00  0.00    +0.000 A 
ATOM     10  C   UNL     1      -0.559  11.308  21.808  0.00  0.00    +0.000 A 
ATOM     11  C   UNL     1      -0.316  10.137  22.508  0.00  0.00    +0.000 A 
ATOM     12  F   UNL     1      -0.754  10.011  23.771  0.00  0.00    +0.000 F 
ATOM     13  C   UNL     1       0.379   9.077  21.918  0.00  0.00    +0.000 A 
ENDBRANCH   4   7
BRANCH   1  14
ATOM     14  N   UNL     1       3.638   4.807  18.045  0.00  0.00    +0.000 N 
ATOM     15  H   UNL     1       3.165   3.902  18.167  0.00  0.00    +0.000 HD
BRANCH  14  16
ATOM     16  S   UNL     1       5.251   4.515  18.575  0.00  0.00    +0.000 S 
ATOM     17  O   UNL     1       5.331   3.077  18.718  0.00  0.00    +0.000 OA
ATOM     18  O   UNL     1       5.575   5.409  19.662  0.00  0.00    +0.000 OA
BRANCH  16  19
ATOM     19  C   UNL     1       6.189   4.993  17.121  0.00  0.00    +0.000 C 
BRANCH  19  20
ATOM     20  C   UNL     1       5.383   4.750  15.847  0.00  0.00    +0.000 C 
BRANCH  20  21
ATOM     21  C   UNL     1       5.998   3.651  14.980  0.00  0.00    +0.000 C 
BRANCH  21  22
ATOM     22  C   UNL     1       6.467   4.222  13.640  0.00  0.00    +0.000 C 
BRANCH  22  23
ATOM     23  C   UNL     1       5.979   3.370  12.470  0.00  0.00    +0.000 C 
BRANCH  23  24
ATOM     24  C   UNL     1       4.484   3.573  12.229  0.00  0.00    +0.000 C 
BRANCH  24  26
ATOM     25  C   UNL     1       3.210   4.010  10.105  0.00  0.00    +0.000 C 
ATOM     26  C   UNL     1       4.068   3.016  10.869  0.00  0.00    +0.000 C 
ENDBRANCH  24  26
ENDBRANCH  23  24
ENDBRANCH  22  23
ENDBRANCH  21  22
ENDBRANCH  20  21
ENDBRANCH  19  20
ENDBRANCH  16  19
ENDBRANCH  14  16
ENDBRANCH   1  14
BRANCH   6  27
ATOM     27  C   UNL     1       2.144   4.400  20.656  0.00  0.00    +0.000 C 
ATOM     28  O   UNL     1       2.506   4.302  21.816  0.00  0.00    +0.000 OA
BRANCH  27  29
ATOM     29  O   UNL     1       1.799   3.335  19.899  0.00  0.00    +0.000 OA
ATOM     30  H   UNL     1       1.448   3.580  19.020  0.00  0.00    +0.000 HD
ENDBRANCH  27  29
ENDBRANCH   6  27
TORSDOF 12
ENDMDL
MODEL 7
REMARK VINA RESULT:      -7.3      2.350      3.481
REMARK  Name = 
REMARK  13 active torsions:
REMARK  status: ('A' for Active; 'I' for Inactive)
REMARK    1  A    between atoms: C_1  and  C_2
REMARK    2  A    between atoms: C_2  and  C_3
REMARK    3  A    between atoms: C_3  and  C_4
REMARK    4  A    between atoms: C_4  and  C_5
REMARK    5  A    between atoms: C_5  and  C_6
REMARK    6  A    between atoms: C_6  and  C_7
REMARK    7  A    between atoms: C_7  and  C_8
REMARK    8  A    between atoms: C_8  and  S_9
REMARK    9  A    between atoms: S_9  and  N_12
REMARK   10  A    between atoms: N_12  and  C_13
REMARK   11  A    between atoms: C_16  and  C_17
REMARK   12  A    between atoms: C_25  and  C_26
REMARK   13  A    between atoms: C_26  and  O_28
REMARK                            x       y       z     vdW  Elec       q    Type
REMARK                         _______ _______ _______ _____ _____    ______ ____
ROOT
ATOM      1  C   UNL     1       3.180   4.690  19.759  0.00  0.00    +0.000 A 
ATOM      2  C   UNL     1       3.558   5.909  19.185  0.00  0.00    +0.000 A 
ATOM      3  C   UNL     1       2.892   7.096  19.531  0.00  0.00    +0.000 A 
ATOM      4  C   UNL     1       1.804   7.093  20.413  0.00  0.00    +0.000 A 
ATOM      5  C   UNL     1       1.424   5.858  20.956  0.00  0.00    +0.000 A 
ATOM      6  C   UNL     1       2.112   4.669  20.663  0.00  0.00    +0.000 A 
ENDROOT
BRANCH   4   7
ATOM      7  C   UNL     1       1.081   8.339  20.774  0.00  0.00    +0.000 A 
ATOM      8  C   UNL     1       0.569   8.532  22.079  0.00  0.00    +0.000 A 
ATOM      9  C   UNL     1      -0.093   9.711  22.438  0.00  0.00    +0.000 A 
ATOM     10  C   UNL     1      -0.256  10.724  21.506  0.00  0.00    +0.000 A 
ATOM     11  C   UNL     1       0.241  10.557  20.223  0.00  0.00    +0.000 A 
ATOM     12  F   UNL     1       0.090  11.534  19.315  0.00  0.00    +0.000 F 
ATOM     13  C   UNL     1       0.904   9.381  19.856  0.00  0.00    +0.000 A 
ENDBRANCH   4   7
BRANCH   1  14
ATOM     14  N   UNL     1       3.885   3.496  19.354  0.00  0.00    +0.000 N 
ATOM     15  H   UNL     1       4.869   3.685  19.120  0.00  0.00    +0.000 HD
BRANCH  14  16
ATOM     16  S   UNL     1       3.259   2.722  17.946  0.00  0.00    +0.000 S 
ATOM     17  O   UNL     1       1.822   2.832  18.081  0.00  0.00    +0.000 OA
ATOM     18  O   UNL     1       3.913   1.448  17.761  0.00  0.00    +0.000 OA
BRANCH  16  19
ATOM     19  C   UNL     1       3.796   3.853  16.659  0.00  0.00    +0.000 C 
BRANCH  19  20
ATOM     20  C   UNL     1       5.190   3.487  16.157  0.00  0.00    +0.000 C 
BRANCH  20  21
ATOM     21  C   UNL     1       6.053   4.724  15.906  0.00  0.00    +0.000 C 
BRANCH  21  22
ATOM     22  C   UNL     1       5.231   6.001  16.093  0.00  0.00    +0.000 C 
BRANCH  22  23
ATOM     23  C   UNL     1       6.010   7.056  16.876  0.00  0.00    +0.000 C 
BRANCH  23  24
ATOM     24  C   UNL     1       7.453   6.611  17.109  0.00  0.00    +0.000 C 
BRANCH  24  26
ATOM     25  C   UNL     1       7.405   5.576  19.401  0.00  0.00    +0.000 C 
ATOM     26  C   UNL     1       7.845   6.773  18.577  0.00  0.00    +0.000 C 
ENDBRANCH  24  26
ENDBRANCH  23  24
ENDBRANCH  22  23
ENDBRANCH  21  22
ENDBRANCH  20  21
ENDBRANCH  19  20
ENDBRANCH  16  19
ENDBRANCH  14  16
ENDBRANCH   1  14
BRANCH   6  27
ATOM     27  C   UNL     1       1.691   3.482  21.451  0.00  0.00    +0.000 C 
ATOM     28  O   UNL     1       2.355   3.011  22.359  0.00  0.00    +0.000 OA
BRANCH  27  29
ATOM     29  O   UNL     1       0.576   2.889  20.969  0.00  0.00    +0.000 OA
ATOM     30  H   UNL     1       0.498   1.947  21.217  0.00  0.00    +0.000 HD
ENDBRANCH  27  29
ENDBRANCH   6  27
TORSDOF 12
ENDMDL
MODEL 8
REMARK VINA RESULT:      -7.3      3.589      5.242
REMARK  Name = 
REMARK  13 active torsions:
REMARK  status: ('A' for Active; 'I' for Inactive)
REMARK    1  A    between atoms: C_1  and  C_2
REMARK    2  A    between atoms: C_2  and  C_3
REMARK    3  A    between atoms: C_3  and  C_4
REMARK    4  A    between atoms: C_4  and  C_5
REMARK    5  A    between atoms: C_5  and  C_6
REMARK    6  A    between atoms: C_6  and  C_7
REMARK    7  A    between atoms: C_7  and  C_8
REMARK    8  A    between atoms: C_8  and  S_9
REMARK    9  A    between atoms: S_9  and  N_12
REMARK   10  A    between atoms: N_12  and  C_13
REMARK   11  A    between atoms: C_16  and  C_17
REMARK   12  A    between atoms: C_25  and  C_26
REMARK   13  A    between atoms: C_26  and  O_28
REMARK                            x       y       z     vdW  Elec       q    Type
REMARK                         _______ _______ _______ _____ _____    ______ ____
ROOT
ATOM      1  C   UNL     1       4.637   5.468  17.088  0.00  0.00    +0.000 A 
ATOM      2  C   UNL     1       4.293   6.742  16.627  0.00  0.00    +0.000 A 
ATOM      3  C   UNL     1       3.452   7.573  17.386  0.00  0.00    +0.000 A 
ATOM      4  C   UNL     1       2.893   7.136  18.595  0.00  0.00    +0.000 A 
ATOM      5  C   UNL     1       3.230   5.846  19.026  0.00  0.00    +0.000 A 
ATOM      6  C   UNL     1       4.110   5.022  18.306  0.00  0.00    +0.000 A 
ENDROOT
BRANCH   4   7
ATOM      7  C   UNL     1       1.991   7.999  19.399  0.00  0.00    +0.000 A 
ATOM      8  C   UNL     1       1.641   7.649  20.725  0.00  0.00    +0.000 A 
ATOM      9  C   UNL     1       0.810   8.465  21.502  0.00  0.00    +0.000 A 
ATOM     10  C   UNL     1       0.312   9.647  20.974  0.00  0.00    +0.000 A 
ATOM     11  C   UNL     1       0.645  10.008  19.678  0.00  0.00    +0.000 A 
ATOM     12  F   UNL     1       0.169  11.152  19.160  0.00  0.00    +0.000 F 
ATOM     13  C   UNL     1       1.475   9.199  18.896  0.00  0.00    +0.000 A 
ENDBRANCH   4   7
BRANCH   1  14
ATOM     14  N   UNL     1       5.489   4.646  16.259  0.00  0.00    +0.000 N 
ATOM     15  H   UNL     1       5.528   3.672  16.585  0.00  0.00    +0.000 HD
BRANCH  14  16
ATOM     16  S   UNL     1       7.140   5.137  16.200  0.00  0.00    +0.000 S 
ATOM     17  O   UNL     1       7.372   5.465  14.809  0.00  0.00    +0.000 OA
ATOM     18  O   UNL     1       7.957   4.177  16.904  0.00  0.00    +0.000 OA
BRANCH  16  19
ATOM     19  C   UNL     1       7.083   6.666  17.140  0.00  0.00    +0.000 C 
BRANCH  19  20
ATOM     20  C   UNL     1       7.595   6.451  18.562  0.00  0.00    +0.000 C 
BRANCH  20  21
ATOM     21  C   UNL     1       8.575   7.543  18.990  0.00  0.00    +0.000 C 
BRANCH  21  22
ATOM     22  C   UNL     1       8.297   8.844  18.232  0.00  0.00    +0.000 C 
BRANCH  22  23
ATOM     23  C   UNL     1       8.938  10.043  18.929  0.00  0.00    +0.000 C 
BRANCH  23  24
ATOM     24  C   UNL     1       9.466  11.051  17.910  0.00  0.00    +0.000 C 
BRANCH  24  26
ATOM     25  C   UNL     1       7.941  12.930  17.223  0.00  0.00    +0.000 C 
ATOM     26  C   UNL     1       8.975  12.462  18.232  0.00  0.00    +0.000 C 
ENDBRANCH  24  26
ENDBRANCH  23  24
ENDBRANCH  22  23
ENDBRANCH  21  22
ENDBRANCH  20  21
ENDBRANCH  19  20
ENDBRANCH  16  19
ENDBRANCH  14  16
ENDBRANCH   1  14
BRANCH   6  27
ATOM     27  C   UNL     1       4.494   3.758  18.986  0.00  0.00    +0.000 C 
ATOM     28  O   UNL     1       3.714   3.081  19.633  0.00  0.00    +0.000 OA
BRANCH  27  29
ATOM     29  O   UNL     1       5.822   3.510  18.940  0.00  0.00    +0.000 OA
ATOM     30  H   UNL     1       6.350   4.114  19.499  0.00  0.00    +0.000 HD
ENDBRANCH  27  29
ENDBRANCH   6  27
TORSDOF 12
ENDMDL
MODEL 9
REMARK VINA RESULT:      -7.3      3.119      9.325
REMARK  Name = 
REMARK  13 active torsions:
REMARK  status: ('A' for Active; 'I' for Inactive)
REMARK    1  A    between atoms: C_1  and  C_2
REMARK    2  A    between atoms: C_2  and  C_3
REMARK    3  A    between atoms: C_3  and  C_4
REMARK    4  A    between atoms: C_4  and  C_5
REMARK    5  A    between atoms: C_5  and  C_6
REMARK    6  A    between atoms: C_6  and  C_7
REMARK    7  A    between atoms: C_7  and  C_8
REMARK    8  A    between atoms: C_8  and  S_9
REMARK    9  A    between atoms: S_9  and  N_12
REMARK   10  A    between atoms: N_12  and  C_13
REMARK   11  A    between atoms: C_16  and  C_17
REMARK   12  A    between atoms: C_25  and  C_26
REMARK   13  A    between atoms: C_26  and  O_28
REMARK                            x       y       z     vdW  Elec       q    Type
REMARK                         _______ _______ _______ _____ _____    ______ ____
ROOT
ATOM      1  C   UNL     1       4.342   5.076  18.568  0.00  0.00    +0.000 A 
ATOM      2  C   UNL     1       4.646   6.185  17.772  0.00  0.00    +0.000 A 
ATOM      3  C   UNL     1       5.182   6.014  16.485  0.00  0.00    +0.000 A 
ATOM      4  C   UNL     1       5.477   4.741  15.980  0.00  0.00    +0.000 A 
ATOM      5  C   UNL     1       5.189   3.644  16.804  0.00  0.00    +0.000 A 
ATOM      6  C   UNL     1       4.605   3.793  18.071  0.00  0.00    +0.000 A 
ENDROOT
BRANCH   4   7
ATOM      7  C   UNL     1       6.059   4.548  14.628  0.00  0.00    +0.000 A 
ATOM      8  C   UNL     1       5.485   3.635  13.711  0.00  0.00    +0.000 A 
ATOM      9  C   UNL     1       6.009   3.461  12.426  0.00  0.00    +0.000 A 
ATOM     10  C   UNL     1       7.116   4.194  12.025  0.00  0.00    +0.000 A 
ATOM     11  C   UNL     1       7.692   5.096  12.907  0.00  0.00    +0.000 A 
ATOM     12  F   UNL     1       8.762   5.811  12.526  0.00  0.00    +0.000 F 
ATOM     13  C   UNL     1       7.173   5.275  14.193  0.00  0.00    +0.000 A 
ENDBRANCH   4   7
BRANCH   1  14
ATOM     14  N   UNL     1       3.810   5.308  19.891  0.00  0.00    +0.000 N 
ATOM     15  H   UNL     1       4.212   4.668  20.590  0.00  0.00    +0.000 HD
BRANCH  14  16
ATOM     16  S   UNL     1       2.109   5.082  20.043  0.00  0.00    +0.000 S 
ATOM     17  O   UNL     1       1.970   3.988  20.980  0.00  0.00    +0.000 OA
ATOM     18  O   UNL     1       1.505   5.044  18.731  0.00  0.00    +0.000 OA
BRANCH  16  19
ATOM     19  C   UNL     1       1.627   6.601  20.870  0.00  0.00    +0.000 C 
BRANCH  19  20
ATOM     20  C   UNL     1       1.796   7.804  19.945  0.00  0.00    +0.000 C 
BRANCH  20  21
ATOM     21  C   UNL     1       1.015   9.021  20.438  0.00  0.00    +0.000 C 
BRANCH  21  22
ATOM     22  C   UNL     1       1.065   9.111  21.965  0.00  0.00    +0.000 C 
BRANCH  22  23
ATOM     23  C   UNL     1      -0.296   9.492  22.545  0.00  0.00    +0.000 C 
BRANCH  23  24
ATOM     24  C   UNL     1      -0.835  10.763  21.892  0.00  0.00    +0.000 C 
BRANCH  24  26
ATOM     25  C   UNL     1      -2.565  12.065  23.173  0.00  0.00    +0.000 C 
ATOM     26  C   UNL     1      -1.080  11.854  22.934  0.00  0.00    +0.000 C 
ENDBRANCH  24  26
ENDBRANCH  23  24
ENDBRANCH  22  23
ENDBRANCH  21  22
ENDBRANCH  20  21
ENDBRANCH  19  20
ENDBRANCH  16  19
ENDBRANCH  14  16
ENDBRANCH   1  14
BRANCH   6  27
ATOM     27  C   UNL     1       4.208   2.527  18.740  0.00  0.00    +0.000 C 
ATOM     28  O   UNL     1       3.209   1.896  18.442  0.00  0.00    +0.000 OA
BRANCH  27  29
ATOM     29  O   UNL     1       4.981   2.223  19.807  0.00  0.00    +0.000 OA
ATOM     30  H   UNL     1       5.699   2.868  19.964  0.00  0.00    +0.000 HD
ENDBRANCH  27  29
ENDBRANCH   6  27
TORSDOF 12
ENDMDL
