MODEL 1
REMARK VINA RESULT:      -7.2      0.000      0.000
REMARK  Name = 
REMARK  6 active torsions:
REMARK  status: ('A' for Active; 'I' for Inactive)
REMARK    1  A    between atoms: C_2  and  C_3
REMARK    2  A    between atoms: C_8  and  N_9
REMARK    3  A    between atoms: N_9  and  C_10
REMARK    4  A    between atoms: N_9  and  C_18
REMARK    5  A    between atoms: C_10  and  C_11
REMARK    6  A    between atoms: C_18  and  C_19
REMARK                            x       y       z     vdW  Elec       q    Type
REMARK                         _______ _______ _______ _____ _____    ______ ____
ROOT
ATOM      1  N   UNL     1       4.330   4.385  18.701  0.00  0.00    +0.000 N 
ENDROOT
BRANCH   1   7
ATOM      2  C   UNL     1       6.674   4.851  17.820  0.00  0.00    +0.000 A 
ATOM      3  C   UNL     1       7.406   4.678  16.597  0.00  0.00    +0.000 A 
ATOM      4  C   UNL     1       6.777   4.482  15.347  0.00  0.00    +0.000 A 
ATOM      5  C   UNL     1       5.420   4.345  15.316  0.00  0.00    +0.000 A 
ATOM      6  N   UNL     1       4.739   4.270  16.447  0.00  0.00    +0.000 NA
ATOM      7  C   UNL     1       5.276   4.553  17.676  0.00  0.00    +0.000 A 
BRANCH   2   9
ATOM      8  N   UNL     1       7.922   5.556  20.076  0.00  0.00    +0.000 NA
ATOM      9  C   UNL     1       7.423   5.282  19.072  0.00  0.00    +0.000 C 
ENDBRANCH   2   9
ENDBRANCH   1   7
BRANCH   1  10
ATOM     10  C   UNL     1       3.844   5.672  19.350  0.00  0.00    +0.000 C 
BRANCH  10  11
ATOM     11  C   UNL     1       3.050   6.838  18.634  0.00  0.00    +0.000 C 
ATOM     12  O   UNL     1       3.116   7.149  17.434  0.00  0.00    +0.000 OA
ATOM     13  N   UNL     1       2.264   7.581  19.521  0.00  0.00    +0.000 N 
ATOM     14  C   UNL     1       1.522   8.763  19.122  0.00  0.00    +0.000 C 
ATOM     15  C   UNL     1       1.084   9.341  20.463  0.00  0.00    +0.000 C 
ATOM     16  C   UNL     1       0.741   8.092  21.274  0.00  0.00    +0.000 C 
ATOM     17  C   UNL     1       1.625   6.999  20.684  0.00  0.00    +0.000 C 
ENDBRANCH  10  11
ENDBRANCH   1  10
BRANCH   1  18
ATOM     18  C   UNL     1       4.391   3.194  19.599  0.00  0.00    +0.000 C 
BRANCH  18  19
ATOM     19  C   UNL     1       2.978   2.456  19.785  0.00  0.00    +0.000 C 
ATOM     20  C   UNL     1       2.035   2.944  20.905  0.00  0.00    +0.000 C 
ATOM     21  C   UNL     1       0.645   3.112  20.270  0.00  0.00    +0.000 C 
ATOM     22  C   UNL     1       0.795   2.624  18.826  0.00  0.00    +0.000 C 
ATOM     23  O   UNL     1       2.198   2.419  18.567  0.00  0.00    +0.000 OA
ENDBRANCH  18  19
ENDBRANCH   1  18
TORSDOF 6
ENDMDL
MODEL 2
REMARK VINA RESULT:      -7.1      1.482      4.178
REMARK  Name = 
REMARK  6 active torsions:
REMARK  status: ('A' for Active; 'I' for Inactive)
REMARK    1  A    between atoms: C_2  and  C_3
REMARK    2  A    between atoms: C_8  and  N_9
REMARK    3  A    between atoms: N_9  and  C_10
REMARK    4  A    between atoms: N_9  and  C_18
REMARK    5  A    between atoms: C_10  and  C_11
REMARK    6  A    between atoms: C_18  and  C_19
REMARK                            x       y       z     vdW  Elec       q    Type
REMARK                         _______ _______ _______ _____ _____    ______ ____
ROOT
ATOM      1  N   UNL     1       4.091   6.093  17.731  0.00  0.00    +0.000 N 
ENDROOT
BRANCH   1   7
ATOM      2  C   UNL     1       6.480   5.224  17.564  0.00  0.00    +0.000 A 
ATOM      3  C   UNL     1       7.298   4.532  16.608  0.00  0.00    +0.000 A 
ATOM      4  C   UNL     1       6.987   4.477  15.230  0.00  0.00    +0.000 A 
ATOM      5  C   UNL     1       5.804   5.011  14.808  0.00  0.00    +0.000 A 
ATOM      6  N   UNL     1       4.927   5.450  15.694  0.00  0.00    +0.000 NA
ATOM      7  C   UNL     1       5.210   5.622  17.023  0.00  0.00    +0.000 A 
BRANCH   2   9
ATOM      8  N   UNL     1       7.410   5.475  20.058  0.00  0.00    +0.000 NA
ATOM      9  C   UNL     1       7.009   5.425  18.977  0.00  0.00    +0.000 C 
ENDBRANCH   2   9
ENDBRANCH   1   7
BRANCH   1  10
ATOM     10  C   UNL     1       2.843   5.230  17.616  0.00  0.00    +0.000 C 
BRANCH  10  11
ATOM     11  C   UNL     1       2.719   3.707  18.025  0.00  0.00    +0.000 C 
ATOM     12  O   UNL     1       2.895   2.726  17.286  0.00  0.00    +0.000 OA
ATOM     13  N   UNL     1       2.311   3.535  19.353  0.00  0.00    +0.000 N 
ATOM     14  C   UNL     1       2.029   2.235  19.932  0.00  0.00    +0.000 C 
ATOM     15  C   UNL     1       1.372   2.604  21.257  0.00  0.00    +0.000 C 
ATOM     16  C   UNL     1       2.181   3.819  21.709  0.00  0.00    +0.000 C 
ATOM     17  C   UNL     1       2.679   4.451  20.414  0.00  0.00    +0.000 C 
ENDBRANCH  10  11
ENDBRANCH   1  10
BRANCH   1  18
ATOM     18  C   UNL     1       3.849   7.559  17.874  0.00  0.00    +0.000 C 
BRANCH  18  19
ATOM     19  C   UNL     1       2.314   7.932  18.152  0.00  0.00    +0.000 C 
ATOM     20  C   UNL     1       1.851   8.105  19.614  0.00  0.00    +0.000 C 
ATOM     21  C   UNL     1       1.061   9.422  19.675  0.00  0.00    +0.000 C 
ATOM     22  C   UNL     1       1.001   9.929  18.231  0.00  0.00    +0.000 C 
ATOM     23  O   UNL     1       1.882   9.113  17.434  0.00  0.00    +0.000 OA
ENDBRANCH  18  19
ENDBRANCH   1  18
TORSDOF 6
ENDMDL
MODEL 3
REMARK VINA RESULT:      -7.1      1.450      4.304
REMARK  Name = 
REMARK  6 active torsions:
REMARK  status: ('A' for Active; 'I' for Inactive)
REMARK    1  A    between atoms: C_2  and  C_3
REMARK    2  A    between atoms: C_8  and  N_9
REMARK    3  A    between atoms: N_9  and  C_10
REMARK    4  A    between atoms: N_9  and  C_18
REMARK    5  A    between atoms: C_10  and  C_11
REMARK    6  A    between atoms: C_18  and  C_19
REMARK                            x       y       z     vdW  Elec       q    Type
REMARK                         _______ _______ _______ _____ _____    ______ ____
ROOT
ATOM      1  N   UNL     1       4.359   6.189  18.299  0.00  0.00    +0.000 N 
ENDROOT
BRANCH   1   7
ATOM      2  C   UNL     1       6.695   5.360  17.712  0.00  0.00    +0.000 A 
ATOM      3  C   UNL     1       7.364   4.769  16.587  0.00  0.00    +0.000 A 
ATOM      4  C   UNL     1       6.859   4.842  15.269  0.00  0.00    +0.000 A 
ATOM      5  C   UNL     1       5.632   5.404  15.072  0.00  0.00    +0.000 A 
ATOM      6  N   UNL     1       4.891   5.749  16.112  0.00  0.00    +0.000 NA
ATOM      7  C   UNL     1       5.363   5.797  17.397  0.00  0.00    +0.000 A 
BRANCH   2   9
ATOM      8  N   UNL     1       7.882   5.512  20.101  0.00  0.00    +0.000 NA
ATOM      9  C   UNL     1       7.421   5.430  19.047  0.00  0.00    +0.000 C 
ENDBRANCH   2   9
ENDBRANCH   1   7
BRANCH   1  10
ATOM     10  C   UNL     1       4.232   5.322  19.543  0.00  0.00    +0.000 C 
BRANCH  10  11
ATOM     11  C   UNL     1       4.050   3.751  19.573  0.00  0.00    +0.000 C 
ATOM     12  O   UNL     1       4.952   2.904  19.670  0.00  0.00    +0.000 OA
ATOM     13  N   UNL     1       2.717   3.358  19.409  0.00  0.00    +0.000 N 
ATOM     14  C   UNL     1       2.309   1.969  19.301  0.00  0.00    +0.000 C 
ATOM     15  C   UNL     1       0.853   2.091  18.864  0.00  0.00    +0.000 C 
ATOM     16  C   UNL     1       0.356   3.287  19.673  0.00  0.00    +0.000 C 
ATOM     17  C   UNL     1       1.600   4.137  19.906  0.00  0.00    +0.000 C 
ENDBRANCH  10  11
ENDBRANCH   1  10
BRANCH   1  18
ATOM     18  C   UNL     1       3.085   6.787  17.799  0.00  0.00    +0.000 C 
BRANCH  18  19
ATOM     19  C   UNL     1       2.718   8.187  18.492  0.00  0.00    +0.000 C 
ATOM     20  C   UNL     1       1.944   9.237  17.666  0.00  0.00    +0.000 C 
ATOM     21  C   UNL     1       0.784   9.725  18.548  0.00  0.00    +0.000 C 
ATOM     22  C   UNL     1       0.972   9.023  19.895  0.00  0.00    +0.000 C 
ATOM     23  O   UNL     1       2.004   8.028  19.740  0.00  0.00    +0.000 OA
ENDBRANCH  18  19
ENDBRANCH   1  18
TORSDOF 6
ENDMDL
MODEL 4
REMARK VINA RESULT:      -7.0      1.696      4.286
REMARK  Name = 
REMARK  6 active torsions:
REMARK  status: ('A' for Active; 'I' for Inactive)
REMARK    1  A    between atoms: C_2  and  C_3
REMARK    2  A    between atoms: C_8  and  N_9
REMARK    3  A    between atoms: N_9  and  C_10
REMARK    4  A    between atoms: N_9  and  C_18
REMARK    5  A    between atoms: C_10  and  C_11
REMARK    6  A    between atoms: C_18  and  C_19
REMARK                            x       y       z     vdW  Elec       q    Type
REMARK                         _______ _______ _______ _____ _____    ______ ____
ROOT
ATOM      1  N   UNL     1       4.464   6.232  18.026  0.00  0.00    +0.000 N 
ENDROOT
BRANCH   1   7
ATOM      2  C   UNL     1       6.693   6.132  16.796  0.00  0.00    +0.000 A 
ATOM      3  C   UNL     1       7.339   5.291  15.828  0.00  0.00    +0.000 A 
ATOM      4  C   UNL     1       6.630   4.397  14.995  0.00  0.00    +0.000 A 
ATOM      5  C   UNL     1       5.288   4.248  15.192  0.00  0.00    +0.000 A 
ATOM      6  N   UNL     1       4.705   4.835  16.223  0.00  0.00    +0.000 NA
ATOM      7  C   UNL     1       5.314   5.786  16.999  0.00  0.00    +0.000 A 
BRANCH   2   9
ATOM      8  N   UNL     1       8.050   8.044  18.080  0.00  0.00    +0.000 NA
ATOM      9  C   UNL     1       7.504   7.222  17.483  0.00  0.00    +0.000 C 
ENDBRANCH   2   9
ENDBRANCH   1   7
BRANCH   1  10
ATOM     10  C   UNL     1       4.579   5.469  19.337  0.00  0.00    +0.000 C 
BRANCH  10  11
ATOM     11  C   UNL     1       4.331   3.919  19.541  0.00  0.00    +0.000 C 
ATOM     12  O   UNL     1       5.198   3.033  19.587  0.00  0.00    +0.000 OA
ATOM     13  N   UNL     1       2.972   3.594  19.608  0.00  0.00    +0.000 N 
ATOM     14  C   UNL     1       2.490   2.227  19.691  0.00  0.00    +0.000 C 
ATOM     15  C   UNL     1       0.992   2.397  19.458  0.00  0.00    +0.000 C 
ATOM     16  C   UNL     1       0.676   3.686  20.213  0.00  0.00    +0.000 C 
ATOM     17  C   UNL     1       1.979   4.477  20.184  0.00  0.00    +0.000 C 
ENDBRANCH  10  11
ENDBRANCH   1  10
BRANCH   1  18
ATOM     18  C   UNL     1       3.106   6.763  17.707  0.00  0.00    +0.000 C 
BRANCH  18  19
ATOM     19  C   UNL     1       2.769   8.148  18.443  0.00  0.00    +0.000 C 
ATOM     20  C   UNL     1       1.967   9.217  17.669  0.00  0.00    +0.000 C 
ATOM     21  C   UNL     1       0.842   9.688  18.605  0.00  0.00    +0.000 C 
ATOM     22  C   UNL     1       1.078   8.956  19.928  0.00  0.00    +0.000 C 
ATOM     23  O   UNL     1       2.101   7.963  19.714  0.00  0.00    +0.000 OA
ENDBRANCH  18  19
ENDBRANCH   1  18
TORSDOF 6
ENDMDL
MODEL 5
REMARK VINA RESULT:      -6.9      1.037      1.427
REMARK  Name = 
REMARK  6 active torsions:
REMARK  status: ('A' for Active; 'I' for Inactive)
REMARK    1  A    between atoms: C_2  and  C_3
REMARK    2  A    between atoms: C_8  and  N_9
REMARK    3  A    between atoms: N_9  and  C_10
REMARK    4  A    between atoms: N_9  and  C_18
REMARK    5  A    between atoms: C_10  and  C_11
REMARK    6  A    between atoms: C_18  and  C_19
REMARK                            x       y       z     vdW  Elec       q    Type
REMARK                         _______ _______ _______ _____ _____    ______ ____
ROOT
ATOM      1  N   UNL     1       4.099   4.344  18.021  0.00  0.00    +0.000 N 
ENDROOT
BRANCH   1   7
ATOM      2  C   UNL     1       6.532   4.912  17.523  0.00  0.00    +0.000 A 
ATOM      3  C   UNL     1       7.446   4.807  16.421  0.00  0.00    +0.000 A 
ATOM      4  C   UNL     1       7.019   4.641  15.084  0.00  0.00    +0.000 A 
ATOM      5  C   UNL     1       5.688   4.465  14.842  0.00  0.00    +0.000 A 
ATOM      6  N   UNL     1       4.848   4.328  15.854  0.00  0.00    +0.000 NA
ATOM      7  C   UNL     1       5.183   4.579  17.158  0.00  0.00    +0.000 A 
BRANCH   2   9
ATOM      8  N   UNL     1       7.472   5.525  19.949  0.00  0.00    +0.000 NA
ATOM      9  C   UNL     1       7.067   5.317  18.889  0.00  0.00    +0.000 C 
ENDBRANCH   2   9
ENDBRANCH   1   7
BRANCH   1  10
ATOM     10  C   UNL     1       3.049   5.446  18.056  0.00  0.00    +0.000 C 
BRANCH  10  11
ATOM     11  C   UNL     1       2.654   6.319  19.315  0.00  0.00    +0.000 C 
ATOM     12  O   UNL     1       2.699   5.965  20.503  0.00  0.00    +0.000 OA
ATOM     13  N   UNL     1       2.160   7.580  18.964  0.00  0.00    +0.000 N 
ATOM     14  C   UNL     1       1.637   8.524  19.935  0.00  0.00    +0.000 C 
ATOM     15  C   UNL     1       0.988   9.580  19.047  0.00  0.00    +0.000 C 
ATOM     16  C   UNL     1       1.966   9.686  17.878  0.00  0.00    +0.000 C 
ATOM     17  C   UNL     1       2.624   8.313  17.803  0.00  0.00    +0.000 C 
ENDBRANCH  10  11
ENDBRANCH   1  10
BRANCH   1  18
ATOM     18  C   UNL     1       4.298   3.604  19.303  0.00  0.00    +0.000 C 
BRANCH  18  19
ATOM     19  C   UNL     1       3.112   2.579  19.643  0.00  0.00    +0.000 C 
ATOM     20  C   UNL     1       2.251   2.839  20.898  0.00  0.00    +0.000 C 
ATOM     21  C   UNL     1       0.783   2.714  20.460  0.00  0.00    +0.000 C 
ATOM     22  C   UNL     1       0.831   2.287  18.990  0.00  0.00    +0.000 C 
ATOM     23  O   UNL     1       2.196   2.390  18.539  0.00  0.00    +0.000 OA
ENDBRANCH  18  19
ENDBRANCH   1  18
TORSDOF 6
ENDMDL
MODEL 6
REMARK VINA RESULT:      -6.9      1.188      1.408
REMARK  Name = 
REMARK  6 active torsions:
REMARK  status: ('A' for Active; 'I' for Inactive)
REMARK    1  A    between atoms: C_2  and  C_3
REMARK    2  A    between atoms: C_8  and  N_9
REMARK    3  A    between atoms: N_9  and  C_10
REMARK    4  A    between atoms: N_9  and  C_18
REMARK    5  A    between atoms: C_10  and  C_11
REMARK    6  A    between atoms: C_18  and  C_19
REMARK                            x       y       z     vdW  Elec       q    Type
REMARK                         _______ _______ _______ _____ _____    ______ ____
ROOT
ATOM      1  N   UNL     1       3.655   5.395  17.511  0.00  0.00    +0.000 N 
ENDROOT
BRANCH   1   7
ATOM      2  C   UNL     1       6.180   5.058  17.495  0.00  0.00    +0.000 A 
ATOM      3  C   UNL     1       7.191   4.626  16.572  0.00  0.00    +0.000 A 
ATOM      4  C   UNL     1       6.996   4.611  15.172  0.00  0.00    +0.000 A 
ATOM      5  C   UNL     1       5.759   4.918  14.684  0.00  0.00    +0.000 A 
ATOM      6  N   UNL     1       4.748   5.096  15.517  0.00  0.00    +0.000 NA
ATOM      7  C   UNL     1       4.896   5.223  16.874  0.00  0.00    +0.000 A 
BRANCH   2   9
ATOM      8  N   UNL     1       6.852   5.308  20.070  0.00  0.00    +0.000 NA
ATOM      9  C   UNL     1       6.554   5.258  18.957  0.00  0.00    +0.000 C 
ENDBRANCH   2   9
ENDBRANCH   1   7
BRANCH   1  10
ATOM     10  C   UNL     1       3.547   6.632  18.392  0.00  0.00    +0.000 C 
BRANCH  10  11
ATOM     11  C   UNL     1       2.594   7.871  18.150  0.00  0.00    +0.000 C 
ATOM     12  O   UNL     1       2.401   8.455  17.072  0.00  0.00    +0.000 OA
ATOM     13  N   UNL     1       1.992   8.327  19.327  0.00  0.00    +0.000 N 
ATOM     14  C   UNL     1       1.155   9.512  19.380  0.00  0.00    +0.000 C 
ATOM     15  C   UNL     1       0.992   9.729  20.881  0.00  0.00    +0.000 C 
ATOM     16  C   UNL     1       0.857   8.305  21.415  0.00  0.00    +0.000 C 
ATOM     17  C   UNL     1       1.624   7.446  20.417  0.00  0.00    +0.000 C 
ENDBRANCH  10  11
ENDBRANCH   1  10
BRANCH   1  18
ATOM     18  C   UNL     1       2.866   4.212  17.964  0.00  0.00    +0.000 C 
BRANCH  18  19
ATOM     19  C   UNL     1       2.571   4.201  19.541  0.00  0.00    +0.000 C 
ATOM     20  C   UNL     1       1.142   3.868  20.021  0.00  0.00    +0.000 C 
ATOM     21  C   UNL     1       1.284   2.815  21.131  0.00  0.00    +0.000 C 
ATOM     22  C   UNL     1       2.791   2.638  21.336  0.00  0.00    +0.000 C 
ATOM     23  O   UNL     1       3.472   3.340  20.277  0.00  0.00    +0.000 OA
ENDBRANCH  18  19
ENDBRANCH   1  18
TORSDOF 6
ENDMDL
MODEL 7
REMARK VINA RESULT:      -6.8      1.742      4.448
REMARK  Name = 
REMARK  6 active torsions:
REMARK  status: ('A' for Active; 'I' for Inactive)
REMARK    1  A    between atoms: C_2  and  C_3
REMARK    2  A    between atoms: C_8  and  N_9
REMARK    3  A    between atoms: N_9  and  C_10
REMARK    4  A    between atoms: N_9  and  C_18
REMARK    5  A    between atoms: C_10  and  C_11
REMARK    6  A    between atoms: C_18  and  C_19
REMARK                            x       y       z     vdW  Elec       q    Type
REMARK                         _______ _______ _______ _____ _____    ______ ____
ROOT
ATOM      1  N   UNL     1       4.162   4.879  18.442  0.00  0.00    +0.000 N 
ENDROOT
BRANCH   1   7
ATOM      2  C   UNL     1       3.159   2.810  19.538  0.00  0.00    +0.000 A 
ATOM      3  C   UNL     1       1.862   2.220  19.712  0.00  0.00    +0.000 A 
ATOM      4  C   UNL     1       0.752   2.555  18.904  0.00  0.00    +0.000 A 
ATOM      5  C   UNL     1       0.891   3.559  17.991  0.00  0.00    +0.000 A 
ATOM      6  N   UNL     1       2.002   4.276  17.965  0.00  0.00    +0.000 NA
ATOM      7  C   UNL     1       3.141   3.936  18.647  0.00  0.00    +0.000 A 
BRANCH   2   9
ATOM      8  N   UNL     1       5.196   1.690  20.858  0.00  0.00    +0.000 NA
ATOM      9  C   UNL     1       4.342   2.225  20.296  0.00  0.00    +0.000 C 
ENDBRANCH   2   9
ENDBRANCH   1   7
BRANCH   1  10
ATOM     10  C   UNL     1       3.906   6.252  19.047  0.00  0.00    +0.000 C 
BRANCH  10  11
ATOM     11  C   UNL     1       2.950   7.368  18.460  0.00  0.00    +0.000 C 
ATOM     12  O   UNL     1       2.899   7.752  17.281  0.00  0.00    +0.000 OA
ATOM     13  N   UNL     1       2.158   7.971  19.442  0.00  0.00    +0.000 N 
ATOM     14  C   UNL     1       1.274   9.090  19.169  0.00  0.00    +0.000 C 
ATOM     15  C   UNL     1       0.876   9.541  20.570  0.00  0.00    +0.000 C 
ATOM     16  C   UNL     1       0.720   8.218  21.319  0.00  0.00    +0.000 C 
ATOM     17  C   UNL     1       1.666   7.259  20.604  0.00  0.00    +0.000 C 
ENDBRANCH  10  11
ENDBRANCH   1  10
BRANCH   1  18
ATOM     18  C   UNL     1       4.958   4.871  17.178  0.00  0.00    +0.000 C 
BRANCH  18  19
ATOM     19  C   UNL     1       6.521   5.158  17.402  0.00  0.00    +0.000 C 
ATOM     20  C   UNL     1       7.048   6.588  17.159  0.00  0.00    +0.000 C 
ATOM     21  C   UNL     1       7.907   6.955  18.379  0.00  0.00    +0.000 C 
ATOM     22  C   UNL     1       7.938   5.696  19.250  0.00  0.00    +0.000 C 
ATOM     23  O   UNL     1       6.985   4.757  18.712  0.00  0.00    +0.000 OA
ENDBRANCH  18  19
ENDBRANCH   1  18
TORSDOF 6
ENDMDL
MODEL 8
REMARK VINA RESULT:      -6.8      1.758      3.900
REMARK  Name = 
REMARK  6 active torsions:
REMARK  status: ('A' for Active; 'I' for Inactive)
REMARK    1  A    between atoms: C_2  and  C_3
REMARK    2  A    between atoms: C_8  and  N_9
REMARK    3  A    between atoms: N_9  and  C_10
REMARK    4  A    between atoms: N_9  and  C_18
REMARK    5  A    between atoms: C_10  and  C_11
REMARK    6  A    between atoms: C_18  and  C_19
REMARK                            x       y       z     vdW  Elec       q    Type
REMARK                         _______ _______ _______ _____ _____    ______ ____
ROOT
ATOM      1  N   UNL     1       5.329   4.376  17.899  0.00  0.00    +0.000 N 
ENDROOT
BRANCH   1   7
ATOM      2  C   UNL     1       6.870   5.643  16.315  0.00  0.00    +0.000 A 
ATOM      3  C   UNL     1       7.381   5.495  14.981  0.00  0.00    +0.000 A 
ATOM      4  C   UNL     1       6.778   4.656  14.017  0.00  0.00    +0.000 A 
ATOM      5  C   UNL     1       5.731   3.870  14.402  0.00  0.00    +0.000 A 
ATOM      6  N   UNL     1       5.385   3.813  15.677  0.00  0.00    +0.000 NA
ATOM      7  C   UNL     1       5.860   4.672  16.632  0.00  0.00    +0.000 A 
BRANCH   2   9
ATOM      8  N   UNL     1       7.789   7.560  17.934  0.00  0.00    +0.000 NA
ATOM      9  C   UNL     1       7.443   6.735  17.206  0.00  0.00    +0.000 C 
ENDBRANCH   2   9
ENDBRANCH   1   7
BRANCH   1  10
ATOM     10  C   UNL     1       4.551   3.071  17.986  0.00  0.00    +0.000 C 
BRANCH  10  11
ATOM     11  C   UNL     1       2.976   2.925  18.035  0.00  0.00    +0.000 C 
ATOM     12  O   UNL     1       2.215   2.795  17.064  0.00  0.00    +0.000 OA
ATOM     13  N   UNL     1       2.465   3.020  19.334  0.00  0.00    +0.000 N 
ATOM     14  C   UNL     1       1.044   3.017  19.627  0.00  0.00    +0.000 C 
ATOM     15  C   UNL     1       1.014   3.418  21.098  0.00  0.00    +0.000 C 
ATOM     16  C   UNL     1       2.222   2.681  21.674  0.00  0.00    +0.000 C 
ATOM     17  C   UNL     1       3.185   2.547  20.500  0.00  0.00    +0.000 C 
ENDBRANCH  10  11
ENDBRANCH   1  10
BRANCH   1  18
ATOM     18  C   UNL     1       4.851   5.472  18.793  0.00  0.00    +0.000 C 
BRANCH  18  19
ATOM     19  C   UNL     1       3.515   6.191  18.270  0.00  0.00    +0.000 C 
ATOM     20  C   UNL     1       2.440   6.588  19.304  0.00  0.00    +0.000 C 
ATOM     21  C   UNL     1       2.054   8.045  19.002  0.00  0.00    +0.000 C 
ATOM     22  C   UNL     1       2.840   8.423  17.744  0.00  0.00    +0.000 C 
ATOM     23  O   UNL     1       3.784   7.368  17.473  0.00  0.00    +0.000 OA
ENDBRANCH  18  19
ENDBRANCH   1  18
TORSDOF 6
ENDMDL
MODEL 9
REMARK VINA RESULT:      -6.8      2.308      5.031
REMARK  Name = 
REMARK  6 active torsions:
REMARK  status: ('A' for Active; 'I' for Inactive)
REMARK    1  A    between atoms: C_2  and  C_3
REMARK    2  A    between atoms: C_8  and  N_9
REMARK    3  A    between atoms: N_9  and  C_10
REMARK    4  A    between atoms: N_9  and  C_18
REMARK    5  A    between atoms: C_10  and  C_11
REMARK    6  A    between atoms: C_18  and  C_19
REMARK                            x       y       z     vdW  Elec       q    Type
REMARK                         _______ _______ _______ _____ _____    ______ ____
ROOT
ATOM      1  N   UNL     1       4.876   6.330  16.694  0.00  0.00    +0.000 N 
ENDROOT
BRANCH   1   7
ATOM      2  C   UNL     1       6.530   5.680  18.520  0.00  0.00    +0.000 A 
ATOM      3  C   UNL     1       7.835   6.080  18.966  0.00  0.00    +0.000 A 
ATOM      4  C   UNL     1       8.411   7.327  18.634  0.00  0.00    +0.000 A 
ATOM      5  C   UNL     1       7.745   8.139  17.763  0.00  0.00    +0.000 A 
ATOM      6  N   UNL     1       6.655   7.702  17.156  0.00  0.00    +0.000 NA
ATOM      7  C   UNL     1       5.998   6.554  17.511  0.00  0.00    +0.000 A 
BRANCH   2   9
ATOM      8  N   UNL     1       5.379   3.463  19.469  0.00  0.00    +0.000 NA
ATOM      9  C   UNL     1       5.901   4.427  19.111  0.00  0.00    +0.000 C 
ENDBRANCH   2   9
ENDBRANCH   1   7
BRANCH   1  10
ATOM     10  C   UNL     1       3.792   5.457  17.308  0.00  0.00    +0.000 C 
BRANCH  10  11
ATOM     11  C   UNL     1       2.845   5.852  18.513  0.00  0.00    +0.000 C 
ATOM     12  O   UNL     1       2.714   6.981  19.011  0.00  0.00    +0.000 OA
ATOM     13  N   UNL     1       2.168   4.752  19.051  0.00  0.00    +0.000 N 
ATOM     14  C   UNL     1       1.320   4.842  20.225  0.00  0.00    +0.000 C 
ATOM     15  C   UNL     1       1.063   3.375  20.555  0.00  0.00    +0.000 C 
ATOM     16  C   UNL     1       0.906   2.741  19.174  0.00  0.00    +0.000 C 
ATOM     17  C   UNL     1       1.741   3.622  18.251  0.00  0.00    +0.000 C 
ENDBRANCH  10  11
ENDBRANCH   1  10
BRANCH   1  18
ATOM     18  C   UNL     1       5.029   6.220  15.213  0.00  0.00    +0.000 C 
BRANCH  18  19
ATOM     19  C   UNL     1       6.033   5.054  14.756  0.00  0.00    +0.000 C 
ATOM     20  C   UNL     1       5.485   3.918  13.865  0.00  0.00    +0.000 C 
ATOM     21  C   UNL     1       6.477   3.751  12.704  0.00  0.00    +0.000 C 
ATOM     22  C   UNL     1       7.623   4.723  13.001  0.00  0.00    +0.000 C 
ATOM     23  O   UNL     1       7.224   5.558  14.107  0.00  0.00    +0.000 OA
ENDBRANCH  18  19
ENDBRANCH   1  18
TORSDOF 6
ENDMDL
