MODEL 1
REMARK VINA RESULT:      -7.0      0.000      0.000
REMARK  Name = 
REMARK  9 active torsions:
REMARK  status: ('A' for Active; 'I' for Inactive)
REMARK    1  A    between atoms: C_1  and  C_2
REMARK    2  A    between atoms: C_2  and  N_3
REMARK    3  A    between atoms: C_4  and  C_5
REMARK    4  A    between atoms: C_6  and  C_7
REMARK    5  A    between atoms: C_10  and  O_11
REMARK    6  A    between atoms: O_11  and  C_12
REMARK    7  A    between atoms: C_13  and  O_14
REMARK    8  A    between atoms: O_14  and  C_15
REMARK    9  A    between atoms: N_17  and  C_18
REMARK                            x       y       z     vdW  Elec       q    Type
REMARK                         _______ _______ _______ _____ _____    ______ ____
ROOT
ATOM      1  N   UNL     1       4.414   5.823  16.530  0.00  0.00    +0.000 N 
ATOM      2  C   UNL     1       4.806   6.495  17.604  0.00  0.00    +0.000 C 
ATOM      3  N   UNL     1       5.545   5.730  18.412  0.00  0.00    +0.000 N 
ATOM      4  C   UNL     1       4.775   4.494  18.469  0.00  0.00    +0.000 C 
ATOM      5  C   UNL     1       3.791   4.831  19.546  0.00  0.00    +0.000 C 
ATOM      6  O   UNL     1       4.057   5.488  20.554  0.00  0.00    +0.000 OA
ATOM      7  C   UNL     1       2.495   4.195  19.418  0.00  0.00    +0.000 A 
ATOM      8  C   UNL     1       1.658   4.195  20.554  0.00  0.00    +0.000 A 
ATOM      9  C   UNL     1       0.675   3.230  20.654  0.00  0.00    +0.000 A 
ATOM     10  C   UNL     1       0.536   2.285  19.638  0.00  0.00    +0.000 A 
ATOM     11  C   UNL     1       1.295   2.374  18.457  0.00  0.00    +0.000 A 
ATOM     12  C   UNL     1       2.251   3.382  18.311  0.00  0.00    +0.000 A 
ATOM     13  C   UNL     1       3.061   3.525  17.044  0.00  0.00    +0.000 C 
ATOM     14  O   UNL     1       2.742   2.856  16.061  0.00  0.00    +0.000 OA
ATOM     15  C   UNL     1       4.303   4.387  17.007  0.00  0.00    +0.000 C 
ENDROOT
BRANCH   3  16
ATOM     16  C   UNL     1       6.997   5.557  18.279  0.00  0.00    +0.000 C 
ATOM     17  C   UNL     1       7.908   6.773  18.312  0.00  0.00    +0.000 C 
ATOM     18  C   UNL     1       7.940   5.824  19.460  0.00  0.00    +0.000 C 
ENDBRANCH   3  16
BRANCH   1  20
ATOM     19  C   UNL     1       5.993   5.351  14.634  0.00  0.00    +0.000 C 
ATOM     20  C   UNL     1       5.050   6.339  15.287  0.00  0.00    +0.000 C 
ENDBRANCH   1  20
BRANCH   2  21
ATOM     21  C   UNL     1       3.811   7.565  17.899  0.00  0.00    +0.000 C 
ATOM     22  C   UNL     1       2.512   7.735  17.629  0.00  0.00    +0.000 C 
BRANCH  22  23
ATOM     23  C   UNL     1       1.840   9.014  17.980  0.00  0.00    +0.000 A 
ATOM     24  C   UNL     1       2.563  10.210  18.037  0.00  0.00    +0.000 A 
ATOM     25  C   UNL     1       1.906  11.438  18.222  0.00  0.00    +0.000 A 
ATOM     26  C   UNL     1       0.516  11.489  18.362  0.00  0.00    +0.000 A 
ATOM     27  C   UNL     1      -0.218  10.289  18.374  0.00  0.00    +0.000 A 
ATOM     28  C   UNL     1       0.448   9.070  18.188  0.00  0.00    +0.000 A 
BRANCH  26  29
ATOM     29  O   UNL     1      -0.220  12.640  18.481  0.00  0.00    +0.000 OA
ATOM     30  C   UNL     1       0.012  13.468  19.611  0.00  0.00    +0.000 C 
ENDBRANCH  26  29
BRANCH  27  31
ATOM     31  O   UNL     1      -1.575  10.412  18.543  0.00  0.00    +0.000 OA
ATOM     32  C   UNL     1      -2.428   9.953  17.505  0.00  0.00    +0.000 C 
ENDBRANCH  27  31
ENDBRANCH  22  23
ENDBRANCH   2  21
TORSDOF 6
ENDMDL
MODEL 2
REMARK VINA RESULT:      -7.0      1.178      1.347
REMARK  Name = 
REMARK  9 active torsions:
REMARK  status: ('A' for Active; 'I' for Inactive)
REMARK    1  A    between atoms: C_1  and  C_2
REMARK    2  A    between atoms: C_2  and  N_3
REMARK    3  A    between atoms: C_4  and  C_5
REMARK    4  A    between atoms: C_6  and  C_7
REMARK    5  A    between atoms: C_10  and  O_11
REMARK    6  A    between atoms: O_11  and  C_12
REMARK    7  A    between atoms: C_13  and  O_14
REMARK    8  A    between atoms: O_14  and  C_15
REMARK    9  A    between atoms: N_17  and  C_18
REMARK                            x       y       z     vdW  Elec       q    Type
REMARK                         _______ _______ _______ _____ _____    ______ ____
ROOT
ATOM      1  N   UNL     1       4.353   5.816  16.723  0.00  0.00    +0.000 N 
ATOM      2  C   UNL     1       4.805   6.373  17.839  0.00  0.00    +0.000 C 
ATOM      3  N   UNL     1       5.566   5.522  18.532  0.00  0.00    +0.000 N 
ATOM      4  C   UNL     1       4.777   4.297  18.503  0.00  0.00    +0.000 C 
ATOM      5  C   UNL     1       3.848   4.539  19.653  0.00  0.00    +0.000 C 
ATOM      6  O   UNL     1       4.172   5.090  20.707  0.00  0.00    +0.000 OA
ATOM      7  C   UNL     1       2.536   3.937  19.523  0.00  0.00    +0.000 A 
ATOM      8  C   UNL     1       1.751   3.835  20.692  0.00  0.00    +0.000 A 
ATOM      9  C   UNL     1       0.757   2.879  20.743  0.00  0.00    +0.000 A 
ATOM     10  C   UNL     1       0.555   2.041  19.645  0.00  0.00    +0.000 A 
ATOM     11  C   UNL     1       1.262   2.236  18.445  0.00  0.00    +0.000 A 
ATOM     12  C   UNL     1       2.228   3.241  18.355  0.00  0.00    +0.000 A 
ATOM     13  C   UNL     1       2.983   3.498  17.071  0.00  0.00    +0.000 C 
ATOM     14  O   UNL     1       2.608   2.933  16.043  0.00  0.00    +0.000 OA
ATOM     15  C   UNL     1       4.237   4.342  17.061  0.00  0.00    +0.000 C 
ENDROOT
BRANCH   3  16
ATOM     16  C   UNL     1       7.007   5.343  18.315  0.00  0.00    +0.000 C 
ATOM     17  C   UNL     1       7.901   6.561  18.142  0.00  0.00    +0.000 C 
ATOM     18  C   UNL     1       8.027   5.752  19.386  0.00  0.00    +0.000 C 
ENDBRANCH   3  16
BRANCH   1  20
ATOM     19  C   UNL     1       5.841   5.514  14.721  0.00  0.00    +0.000 C 
ATOM     20  C   UNL     1       4.941   6.445  15.508  0.00  0.00    +0.000 C 
ENDBRANCH   1  20
BRANCH   2  21
ATOM     21  C   UNL     1       3.844   7.422  18.283  0.00  0.00    +0.000 C 
ATOM     22  C   UNL     1       2.517   7.573  18.199  0.00  0.00    +0.000 C 
BRANCH  22  23
ATOM     23  C   UNL     1       1.880   8.836  18.656  0.00  0.00    +0.000 A 
ATOM     24  C   UNL     1       1.949   9.995  17.877  0.00  0.00    +0.000 A 
ATOM     25  C   UNL     1       1.225  11.145  18.235  0.00  0.00    +0.000 A 
ATOM     26  C   UNL     1       0.428  11.157  19.383  0.00  0.00    +0.000 A 
ATOM     27  C   UNL     1       0.403  10.022  20.213  0.00  0.00    +0.000 A 
ATOM     28  C   UNL     1       1.128   8.881  19.846  0.00  0.00    +0.000 A 
BRANCH  26  29
ATOM     29  O   UNL     1      -0.363  12.205  19.779  0.00  0.00    +0.000 OA
ATOM     30  C   UNL     1      -1.514  12.504  19.003  0.00  0.00    +0.000 C 
ENDBRANCH  26  29
BRANCH  27  31
ATOM     31  O   UNL     1      -0.379  10.114  21.338  0.00  0.00    +0.000 OA
ATOM     32  C   UNL     1       0.069   9.477  22.525  0.00  0.00    +0.000 C 
ENDBRANCH  27  31
ENDBRANCH  22  23
ENDBRANCH   2  21
TORSDOF 6
ENDMDL
MODEL 3
REMARK VINA RESULT:      -6.9      0.722      1.660
REMARK  Name = 
REMARK  9 active torsions:
REMARK  status: ('A' for Active; 'I' for Inactive)
REMARK    1  A    between atoms: C_1  and  C_2
REMARK    2  A    between atoms: C_2  and  N_3
REMARK    3  A    between atoms: C_4  and  C_5
REMARK    4  A    between atoms: C_6  and  C_7
REMARK    5  A    between atoms: C_10  and  O_11
REMARK    6  A    between atoms: O_11  and  C_12
REMARK    7  A    between atoms: C_13  and  O_14
REMARK    8  A    between atoms: O_14  and  C_15
REMARK    9  A    between atoms: N_17  and  C_18
REMARK                            x       y       z     vdW  Elec       q    Type
REMARK                         _______ _______ _______ _____ _____    ______ ____
ROOT
ATOM      1  N   UNL     1       4.404   5.841  16.469  0.00  0.00    +0.000 N 
ATOM      2  C   UNL     1       4.767   6.553  17.528  0.00  0.00    +0.000 C 
ATOM      3  N   UNL     1       5.516   5.830  18.364  0.00  0.00    +0.000 N 
ATOM      4  C   UNL     1       4.778   4.577  18.449  0.00  0.00    +0.000 C 
ATOM      5  C   UNL     1       3.773   4.919  19.505  0.00  0.00    +0.000 C 
ATOM      6  O   UNL     1       4.011   5.611  20.497  0.00  0.00    +0.000 OA
ATOM      7  C   UNL     1       2.495   4.246  19.381  0.00  0.00    +0.000 A 
ATOM      8  C   UNL     1       1.646   4.256  20.509  0.00  0.00    +0.000 A 
ATOM      9  C   UNL     1       0.687   3.270  20.626  0.00  0.00    +0.000 A 
ATOM     10  C   UNL     1       0.584   2.293  19.635  0.00  0.00    +0.000 A 
ATOM     11  C   UNL     1       1.353   2.369  18.461  0.00  0.00    +0.000 A 
ATOM     12  C   UNL     1       2.284   3.397  18.296  0.00  0.00    +0.000 A 
ATOM     13  C   UNL     1       3.105   3.525  17.034  0.00  0.00    +0.000 C 
ATOM     14  O   UNL     1       2.814   2.820  16.067  0.00  0.00    +0.000 OA
ATOM     15  C   UNL     1       4.325   4.417  16.985  0.00  0.00    +0.000 C 
ENDROOT
BRANCH   3  16
ATOM     16  C   UNL     1       6.974   5.691  18.251  0.00  0.00    +0.000 C 
ATOM     17  C   UNL     1       7.861   6.920  18.372  0.00  0.00    +0.000 C 
ATOM     18  C   UNL     1       7.888   5.908  19.465  0.00  0.00    +0.000 C 
ENDBRANCH   3  16
BRANCH   1  20
ATOM     19  C   UNL     1       6.061   5.383  14.637  0.00  0.00    +0.000 C 
ATOM     20  C   UNL     1       5.040   6.339  15.218  0.00  0.00    +0.000 C 
ENDBRANCH   1  20
BRANCH   2  21
ATOM     21  C   UNL     1       3.742   7.604  17.782  0.00  0.00    +0.000 C 
ATOM     22  C   UNL     1       2.425   7.700  17.567  0.00  0.00    +0.000 C 
BRANCH  22  23
ATOM     23  C   UNL     1       1.715   8.977  17.841  0.00  0.00    +0.000 A 
ATOM     24  C   UNL     1       0.318   9.040  17.810  0.00  0.00    +0.000 A 
ATOM     25  C   UNL     1      -0.357  10.205  18.211  0.00  0.00    +0.000 A 
ATOM     26  C   UNL     1       0.355  11.329  18.642  0.00  0.00    +0.000 A 
ATOM     27  C   UNL     1       1.760  11.304  18.614  0.00  0.00    +0.000 A 
ATOM     28  C   UNL     1       2.423  10.137  18.212  0.00  0.00    +0.000 A 
BRANCH  26  29
ATOM     29  O   UNL     1      -0.213  12.485  19.113  0.00  0.00    +0.000 OA
ATOM     30  C   UNL     1      -1.608  12.483  19.384  0.00  0.00    +0.000 C 
ENDBRANCH  26  29
BRANCH  27  31
ATOM     31  O   UNL     1       2.393  12.452  19.023  0.00  0.00    +0.000 OA
ATOM     32  C   UNL     1       2.951  13.304  18.035  0.00  0.00    +0.000 C 
ENDBRANCH  27  31
ENDBRANCH  22  23
ENDBRANCH   2  21
TORSDOF 6
ENDMDL
MODEL 4
REMARK VINA RESULT:      -6.3      3.331      9.111
REMARK  Name = 
REMARK  9 active torsions:
REMARK  status: ('A' for Active; 'I' for Inactive)
REMARK    1  A    between atoms: C_1  and  C_2
REMARK    2  A    between atoms: C_2  and  N_3
REMARK    3  A    between atoms: C_4  and  C_5
REMARK    4  A    between atoms: C_6  and  C_7
REMARK    5  A    between atoms: C_10  and  O_11
REMARK    6  A    between atoms: O_11  and  C_12
REMARK    7  A    between atoms: C_13  and  O_14
REMARK    8  A    between atoms: O_14  and  C_15
REMARK    9  A    between atoms: N_17  and  C_18
REMARK                            x       y       z     vdW  Elec       q    Type
REMARK                         _______ _______ _______ _____ _____    ______ ____
ROOT
ATOM      1  N   UNL     1      -1.280  11.875  21.423  0.00  0.00    +0.000 N 
ATOM      2  C   UNL     1      -0.161  12.028  20.728  0.00  0.00    +0.000 C 
ATOM      3  N   UNL     1      -0.141  13.203  20.094  0.00  0.00    +0.000 N 
ATOM      4  C   UNL     1      -1.472  13.268  19.506  0.00  0.00    +0.000 C 
ATOM      5  C   UNL     1      -1.258  12.488  18.247  0.00  0.00    +0.000 C 
ATOM      6  O   UNL     1      -0.233  12.534  17.564  0.00  0.00    +0.000 OA
ATOM      7  C   UNL     1      -2.416  11.760  17.767  0.00  0.00    +0.000 A 
ATOM      8  C   UNL     1      -2.383  11.296  16.435  0.00  0.00    +0.000 A 
ATOM      9  C   UNL     1      -3.578  11.047  15.789  0.00  0.00    +0.000 A 
ATOM     10  C   UNL     1      -4.780  11.261  16.465  0.00  0.00    +0.000 A 
ATOM     11  C   UNL     1      -4.793  11.604  17.829  0.00  0.00    +0.000 A 
ATOM     12  C   UNL     1      -3.592  11.798  18.515  0.00  0.00    +0.000 A 
ATOM     13  C   UNL     1      -3.569  12.138  19.988  0.00  0.00    +0.000 C 
ATOM     14  O   UNL     1      -4.619  12.059  20.627  0.00  0.00    +0.000 OA
ATOM     15  C   UNL     1      -2.315  12.666  20.646  0.00  0.00    +0.000 C 
ENDROOT
BRANCH   3  16
ATOM     16  C   UNL     1       0.339  14.453  20.696  0.00  0.00    +0.000 C 
ATOM     17  C   UNL     1       1.635  14.459  21.492  0.00  0.00    +0.000 C 
ATOM     18  C   UNL     1       1.602  15.152  20.174  0.00  0.00    +0.000 C 
ENDBRANCH   3  16
BRANCH   1  20
ATOM     19  C   UNL     1      -1.495  13.131  23.589  0.00  0.00    +0.000 C 
ATOM     20  C   UNL     1      -1.027  11.870  22.891  0.00  0.00    +0.000 C 
ENDBRANCH   1  20
BRANCH   2  21
ATOM     21  C   UNL     1       0.353  10.686  20.331  0.00  0.00    +0.000 C 
ATOM     22  C   UNL     1       0.750   9.599  21.003  0.00  0.00    +0.000 C 
BRANCH  22  23
ATOM     23  C   UNL     1       1.335   8.444  20.273  0.00  0.00    +0.000 A 
ATOM     24  C   UNL     1       1.831   8.595  18.974  0.00  0.00    +0.000 A 
ATOM     25  C   UNL     1       2.514   7.544  18.340  0.00  0.00    +0.000 A 
ATOM     26  C   UNL     1       2.705   6.322  18.991  0.00  0.00    +0.000 A 
ATOM     27  C   UNL     1       2.153   6.132  20.270  0.00  0.00    +0.000 A 
ATOM     28  C   UNL     1       1.473   7.187  20.893  0.00  0.00    +0.000 A 
BRANCH  26  29
ATOM     29  O   UNL     1       3.413   5.263  18.482  0.00  0.00    +0.000 OA
ATOM     30  C   UNL     1       4.813   5.419  18.302  0.00  0.00    +0.000 C 
ENDBRANCH  26  29
BRANCH  27  31
ATOM     31  O   UNL     1       2.355   4.898  20.838  0.00  0.00    +0.000 OA
ATOM     32  C   UNL     1       1.284   3.967  20.828  0.00  0.00    +0.000 C 
ENDBRANCH  27  31
ENDBRANCH  22  23
ENDBRANCH   2  21
TORSDOF 6
ENDMDL
MODEL 5
REMARK VINA RESULT:      -6.1      3.530      9.252
REMARK  Name = 
REMARK  9 active torsions:
REMARK  status: ('A' for Active; 'I' for Inactive)
REMARK    1  A    between atoms: C_1  and  C_2
REMARK    2  A    between atoms: C_2  and  N_3
REMARK    3  A    between atoms: C_4  and  C_5
REMARK    4  A    between atoms: C_6  and  C_7
REMARK    5  A    between atoms: C_10  and  O_11
REMARK    6  A    between atoms: O_11  and  C_12
REMARK    7  A    between atoms: C_13  and  O_14
REMARK    8  A    between atoms: O_14  and  C_15
REMARK    9  A    between atoms: N_17  and  C_18
REMARK                            x       y       z     vdW  Elec       q    Type
REMARK                         _______ _______ _______ _____ _____    ______ ____
ROOT
ATOM      1  N   UNL     1      -1.729  12.162  21.654  0.00  0.00    +0.000 N 
ATOM      2  C   UNL     1      -0.527  12.367  21.134  0.00  0.00    +0.000 C 
ATOM      3  N   UNL     1      -0.492  13.499  20.425  0.00  0.00    +0.000 N 
ATOM      4  C   UNL     1      -1.711  13.413  19.632  0.00  0.00    +0.000 C 
ATOM      5  C   UNL     1      -1.236  12.577  18.484  0.00  0.00    +0.000 C 
ATOM      6  O   UNL     1      -0.120  12.669  17.969  0.00  0.00    +0.000 OA
ATOM      7  C   UNL     1      -2.242  11.724  17.884  0.00  0.00    +0.000 A 
ATOM      8  C   UNL     1      -1.958  11.182  16.612  0.00  0.00    +0.000 A 
ATOM      9  C   UNL     1      -3.009  10.792  15.807  0.00  0.00    +0.000 A 
ATOM     10  C   UNL     1      -4.318  10.943  16.267  0.00  0.00    +0.000 A 
ATOM     11  C   UNL     1      -4.579  11.368  17.582  0.00  0.00    +0.000 A 
ATOM     12  C   UNL     1      -3.524  11.707  18.432  0.00  0.00    +0.000 A 
ATOM     13  C   UNL     1      -3.767  12.137  19.860  0.00  0.00    +0.000 C 
ATOM     14  O   UNL     1      -4.898  12.009  20.330  0.00  0.00    +0.000 OA
ATOM     15  C   UNL     1      -2.680  12.811  20.667  0.00  0.00    +0.000 C 
ENDROOT
BRANCH   3  16
ATOM     16  C   UNL     1      -0.212  14.821  21.000  0.00  0.00    +0.000 C 
ATOM     17  C   UNL     1       0.920  14.983  22.002  0.00  0.00    +0.000 C 
ATOM     18  C   UNL     1       1.073  15.583  20.647  0.00  0.00    +0.000 C 
ENDBRANCH   3  16
BRANCH   1  20
ATOM     19  C   UNL     1      -3.104  12.258  23.756  0.00  0.00    +0.000 C 
ATOM     20  C   UNL     1      -1.720  12.270  23.139  0.00  0.00    +0.000 C 
ENDBRANCH   1  20
BRANCH   2  21
ATOM     21  C   UNL     1       0.144  11.053  20.925  0.00  0.00    +0.000 C 
ATOM     22  C   UNL     1       0.947  10.551  19.980  0.00  0.00    +0.000 C 
BRANCH  22  23
ATOM     23  C   UNL     1       1.349   9.121  20.025  0.00  0.00    +0.000 A 
ATOM     24  C   UNL     1       1.029   8.323  21.128  0.00  0.00    +0.000 A 
ATOM     25  C   UNL     1       1.277   6.940  21.110  0.00  0.00    +0.000 A 
ATOM     26  C   UNL     1       1.857   6.334  19.991  0.00  0.00    +0.000 A 
ATOM     27  C   UNL     1       2.246   7.134  18.902  0.00  0.00    +0.000 A 
ATOM     28  C   UNL     1       1.994   8.512  18.931  0.00  0.00    +0.000 A 
BRANCH  26  29
ATOM     29  O   UNL     1       2.077   4.988  19.853  0.00  0.00    +0.000 OA
ATOM     30  C   UNL     1       1.095   4.094  20.357  0.00  0.00    +0.000 C 
ENDBRANCH  26  29
BRANCH  27  31
ATOM     31  O   UNL     1       2.834   6.477  17.850  0.00  0.00    +0.000 OA
ATOM     32  C   UNL     1       4.186   6.778  17.536  0.00  0.00    +0.000 C 
ENDBRANCH  27  31
ENDBRANCH  22  23
ENDBRANCH   2  21
TORSDOF 6
ENDMDL
MODEL 6
REMARK VINA RESULT:      -6.0      2.194      5.100
REMARK  Name = 
REMARK  9 active torsions:
REMARK  status: ('A' for Active; 'I' for Inactive)
REMARK    1  A    between atoms: C_1  and  C_2
REMARK    2  A    between atoms: C_2  and  N_3
REMARK    3  A    between atoms: C_4  and  C_5
REMARK    4  A    between atoms: C_6  and  C_7
REMARK    5  A    between atoms: C_10  and  O_11
REMARK    6  A    between atoms: O_11  and  C_12
REMARK    7  A    between atoms: C_13  and  O_14
REMARK    8  A    between atoms: O_14  and  C_15
REMARK    9  A    between atoms: N_17  and  C_18
REMARK                            x       y       z     vdW  Elec       q    Type
REMARK                         _______ _______ _______ _____ _____    ______ ____
ROOT
ATOM      1  N   UNL     1       5.315   4.450  18.524  0.00  0.00    +0.000 N 
ATOM      2  C   UNL     1       4.594   4.942  17.525  0.00  0.00    +0.000 C 
ATOM      3  N   UNL     1       5.287   4.950  16.384  0.00  0.00    +0.000 N 
ATOM      4  C   UNL     1       6.572   5.498  16.798  0.00  0.00    +0.000 C 
ATOM      5  C   UNL     1       6.282   6.965  16.732  0.00  0.00    +0.000 C 
ATOM      6  O   UNL     1       5.586   7.500  15.868  0.00  0.00    +0.000 OA
ATOM      7  C   UNL     1       7.010   7.781  17.684  0.00  0.00    +0.000 A 
ATOM      8  C   UNL     1       7.044   9.173  17.451  0.00  0.00    +0.000 A 
ATOM      9  C   UNL     1       8.072   9.912  18.000  0.00  0.00    +0.000 A 
ATOM     10  C   UNL     1       9.047   9.269  18.764  0.00  0.00    +0.000 A 
ATOM     11  C   UNL     1       8.931   7.906  19.088  0.00  0.00    +0.000 A 
ATOM     12  C   UNL     1       7.862   7.156  18.594  0.00  0.00    +0.000 A 
ATOM     13  C   UNL     1       7.690   5.697  18.948  0.00  0.00    +0.000 C 
ATOM     14  O   UNL     1       8.401   5.217  19.830  0.00  0.00    +0.000 OA
ATOM     15  C   UNL     1       6.744   4.812  18.167  0.00  0.00    +0.000 C 
ENDROOT
BRANCH   3  16
ATOM     16  C   UNL     1       5.361   3.812  15.459  0.00  0.00    +0.000 C 
ATOM     17  C   UNL     1       4.945   3.990  14.008  0.00  0.00    +0.000 C 
ATOM     18  C   UNL     1       6.387   3.782  14.318  0.00  0.00    +0.000 C 
ENDBRANCH   3  16
BRANCH   1  20
ATOM     19  C   UNL     1       3.503   2.722  18.315  0.00  0.00    +0.000 C 
ATOM     20  C   UNL     1       4.782   3.147  19.006  0.00  0.00    +0.000 C 
ENDBRANCH   1  20
BRANCH   2  21
ATOM     21  C   UNL     1       3.590   5.898  18.074  0.00  0.00    +0.000 C 
ATOM     22  C   UNL     1       3.125   7.091  17.688  0.00  0.00    +0.000 C 
BRANCH  22  23
ATOM     23  C   UNL     1       2.185   7.842  18.561  0.00  0.00    +0.000 A 
ATOM     24  C   UNL     1       2.064   7.529  19.919  0.00  0.00    +0.000 A 
ATOM     25  C   UNL     1       1.289   8.330  20.775  0.00  0.00    +0.000 A 
ATOM     26  C   UNL     1       0.615   9.452  20.284  0.00  0.00    +0.000 A 
ATOM     27  C   UNL     1       0.672   9.741  18.909  0.00  0.00    +0.000 A 
ATOM     28  C   UNL     1       1.448   8.936  18.065  0.00  0.00    +0.000 A 
BRANCH  26  29
ATOM     29  O   UNL     1      -0.110  10.330  21.050  0.00  0.00    +0.000 OA
ATOM     30  C   UNL     1      -0.352   9.991  22.408  0.00  0.00    +0.000 C 
ENDBRANCH  26  29
BRANCH  27  31
ATOM     31  O   UNL     1      -0.036  10.842  18.493  0.00  0.00    +0.000 OA
ATOM     32  C   UNL     1      -1.278  10.637  17.837  0.00  0.00    +0.000 C 
ENDBRANCH  27  31
ENDBRANCH  22  23
ENDBRANCH   2  21
TORSDOF 6
ENDMDL
MODEL 7
REMARK VINA RESULT:      -6.0      8.630      9.946
REMARK  Name = 
REMARK  9 active torsions:
REMARK  status: ('A' for Active; 'I' for Inactive)
REMARK    1  A    between atoms: C_1  and  C_2
REMARK    2  A    between atoms: C_2  and  N_3
REMARK    3  A    between atoms: C_4  and  C_5
REMARK    4  A    between atoms: C_6  and  C_7
REMARK    5  A    between atoms: C_10  and  O_11
REMARK    6  A    between atoms: O_11  and  C_12
REMARK    7  A    between atoms: C_13  and  O_14
REMARK    8  A    between atoms: O_14  and  C_15
REMARK    9  A    between atoms: N_17  and  C_18
REMARK                            x       y       z     vdW  Elec       q    Type
REMARK                         _______ _______ _______ _____ _____    ______ ____
ROOT
ATOM      1  N   UNL     1       9.385  13.395  18.962  0.00  0.00    +0.000 N 
ATOM      2  C   UNL     1       9.376  14.706  19.164  0.00  0.00    +0.000 C 
ATOM      3  N   UNL     1      10.364  15.077  19.982  0.00  0.00    +0.000 N 
ATOM      4  C   UNL     1      10.274  14.095  21.054  0.00  0.00    +0.000 C 
ATOM      5  C   UNL     1       9.214  14.716  21.911  0.00  0.00    +0.000 C 
ATOM      6  O   UNL     1       9.104  15.926  22.115  0.00  0.00    +0.000 OA
ATOM      7  C   UNL     1       8.382  13.779  22.639  0.00  0.00    +0.000 A 
ATOM      8  C   UNL     1       7.611  14.290  23.705  0.00  0.00    +0.000 A 
ATOM      9  C   UNL     1       7.203  13.428  24.702  0.00  0.00    +0.000 A 
ATOM     10  C   UNL     1       7.563  12.081  24.634  0.00  0.00    +0.000 A 
ATOM     11  C   UNL     1       8.225  11.565  23.506  0.00  0.00    +0.000 A 
ATOM     12  C   UNL     1       8.589  12.412  22.457  0.00  0.00    +0.000 A 
ATOM     13  C   UNL     1       9.274  11.885  21.217  0.00  0.00    +0.000 C 
ATOM     14  O   UNL     1       9.343  10.667  21.054  0.00  0.00    +0.000 OA
ATOM     15  C   UNL     1       9.956  12.822  20.246  0.00  0.00    +0.000 C 
ENDROOT
BRANCH   3  16
ATOM     16  C   UNL     1      11.726  15.392  19.535  0.00  0.00    +0.000 C 
ATOM     17  C   UNL     1      11.943  16.057  18.185  0.00  0.00    +0.000 C 
ATOM     18  C   UNL     1      12.209  16.845  19.421  0.00  0.00    +0.000 C 
ENDBRANCH   3  16
BRANCH   1  20
ATOM     19  C   UNL     1      11.052  12.310  17.427  0.00  0.00    +0.000 C 
ATOM     20  C   UNL     1       9.737  13.049  17.558  0.00  0.00    +0.000 C 
ENDBRANCH   1  20
BRANCH   2  21
ATOM     21  C   UNL     1       7.983  15.212  19.008  0.00  0.00    +0.000 C 
ATOM     22  C   UNL     1       6.796  14.862  19.518  0.00  0.00    +0.000 C 
BRANCH  22  23
ATOM     23  C   UNL     1       5.555  15.526  19.041  0.00  0.00    +0.000 A 
ATOM     24  C   UNL     1       4.898  15.074  17.892  0.00  0.00    +0.000 A 
ATOM     25  C   UNL     1       3.649  15.603  17.524  0.00  0.00    +0.000 A 
ATOM     26  C   UNL     1       3.042  16.599  18.294  0.00  0.00    +0.000 A 
ATOM     27  C   UNL     1       3.721  17.111  19.414  0.00  0.00    +0.000 A 
ATOM     28  C   UNL     1       4.966  16.576  19.772  0.00  0.00    +0.000 A 
BRANCH  26  29
ATOM     29  O   UNL     1       1.800  17.130  18.054  0.00  0.00    +0.000 OA
ATOM     30  C   UNL     1       1.617  17.895  16.871  0.00  0.00    +0.000 C 
ENDBRANCH  26  29
BRANCH  27  31
ATOM     31  O   UNL     1       3.078  18.107  20.107  0.00  0.00    +0.000 OA
ATOM     32  C   UNL     1       2.754  17.879  21.470  0.00  0.00    +0.000 C 
ENDBRANCH  27  31
ENDBRANCH  22  23
ENDBRANCH   2  21
TORSDOF 6
ENDMDL
MODEL 8
REMARK VINA RESULT:      -6.0      7.576     10.871
REMARK  Name = 
REMARK  9 active torsions:
REMARK  status: ('A' for Active; 'I' for Inactive)
REMARK    1  A    between atoms: C_1  and  C_2
REMARK    2  A    between atoms: C_2  and  N_3
REMARK    3  A    between atoms: C_4  and  C_5
REMARK    4  A    between atoms: C_6  and  C_7
REMARK    5  A    between atoms: C_10  and  O_11
REMARK    6  A    between atoms: O_11  and  C_12
REMARK    7  A    between atoms: C_13  and  O_14
REMARK    8  A    between atoms: O_14  and  C_15
REMARK    9  A    between atoms: N_17  and  C_18
REMARK                            x       y       z     vdW  Elec       q    Type
REMARK                         _______ _______ _______ _____ _____    ______ ____
ROOT
ATOM      1  N   UNL     1      -1.961  12.406  22.736  0.00  0.00    +0.000 N 
ATOM      2  C   UNL     1      -1.764  13.261  21.741  0.00  0.00    +0.000 C 
ATOM      3  N   UNL     1      -1.860  14.525  22.161  0.00  0.00    +0.000 N 
ATOM      4  C   UNL     1      -3.070  14.497  22.973  0.00  0.00    +0.000 C 
ATOM      5  C   UNL     1      -4.116  14.677  21.917  0.00  0.00    +0.000 C 
ATOM      6  O   UNL     1      -3.998  15.413  20.936  0.00  0.00    +0.000 OA
ATOM      7  C   UNL     1      -5.386  14.034  22.192  0.00  0.00    +0.000 A 
ATOM      8  C   UNL     1      -6.498  14.441  21.423  0.00  0.00    +0.000 A 
ATOM      9  C   UNL     1      -7.765  14.247  21.935  0.00  0.00    +0.000 A 
ATOM     10  C   UNL     1      -7.914  13.660  23.192  0.00  0.00    +0.000 A 
ATOM     11  C   UNL     1      -6.804  13.148  23.889  0.00  0.00    +0.000 A 
ATOM     12  C   UNL     1      -5.520  13.279  23.356  0.00  0.00    +0.000 A 
ATOM     13  C   UNL     1      -4.310  12.714  24.064  0.00  0.00    +0.000 C 
ATOM     14  O   UNL     1      -4.486  11.970  25.029  0.00  0.00    +0.000 OA
ATOM     15  C   UNL     1      -2.911  13.132  23.670  0.00  0.00    +0.000 C 
ENDROOT
BRANCH   3  16
ATOM     16  C   UNL     1      -0.743  15.290  22.729  0.00  0.00    +0.000 C 
ATOM     17  C   UNL     1       0.143  16.122  21.816  0.00  0.00    +0.000 C 
ATOM     18  C   UNL     1      -0.768  16.824  22.762  0.00  0.00    +0.000 C 
ENDBRANCH   3  16
BRANCH   1  20
ATOM     19  C   UNL     1      -0.919  10.150  23.105  0.00  0.00    +0.000 C 
ATOM     20  C   UNL     1      -0.724  11.652  23.077  0.00  0.00    +0.000 C 
ENDBRANCH   1  20
BRANCH   2  21
ATOM     21  C   UNL     1      -2.164  12.616  20.459  0.00  0.00    +0.000 C 
ATOM     22  C   UNL     1      -1.691  11.593  19.737  0.00  0.00    +0.000 C 
BRANCH  22  23
ATOM     23  C   UNL     1      -2.278  11.285  18.406  0.00  0.00    +0.000 A 
ATOM     24  C   UNL     1      -1.609  10.451  17.505  0.00  0.00    +0.000 A 
ATOM     25  C   UNL     1      -2.226  10.041  16.312  0.00  0.00    +0.000 A 
ATOM     26  C   UNL     1      -3.520  10.467  15.996  0.00  0.00    +0.000 A 
ATOM     27  C   UNL     1      -4.179  11.360  16.859  0.00  0.00    +0.000 A 
ATOM     28  C   UNL     1      -3.553  11.762  18.047  0.00  0.00    +0.000 A 
BRANCH  26  29
ATOM     29  O   UNL     1      -4.229  10.070  14.891  0.00  0.00    +0.000 OA
ATOM     30  C   UNL     1      -3.539   9.970  13.654  0.00  0.00    +0.000 C 
ENDBRANCH  26  29
BRANCH  27  31
ATOM     31  O   UNL     1      -5.435  11.758  16.473  0.00  0.00    +0.000 OA
ATOM     32  C   UNL     1      -6.078  12.781  17.218  0.00  0.00    +0.000 C 
ENDBRANCH  27  31
ENDBRANCH  22  23
ENDBRANCH   2  21
TORSDOF 6
ENDMDL
MODEL 9
REMARK VINA RESULT:      -5.9      4.451      8.458
REMARK  Name = 
REMARK  9 active torsions:
REMARK  status: ('A' for Active; 'I' for Inactive)
REMARK    1  A    between atoms: C_1  and  C_2
REMARK    2  A    between atoms: C_2  and  N_3
REMARK    3  A    between atoms: C_4  and  C_5
REMARK    4  A    between atoms: C_6  and  C_7
REMARK    5  A    between atoms: C_10  and  O_11
REMARK    6  A    between atoms: O_11  and  C_12
REMARK    7  A    between atoms: C_13  and  O_14
REMARK    8  A    between atoms: O_14  and  C_15
REMARK    9  A    between atoms: N_17  and  C_18
REMARK                            x       y       z     vdW  Elec       q    Type
REMARK                         _______ _______ _______ _____ _____    ______ ____
ROOT
ATOM      1  N   UNL     1      -0.606  11.885  21.826  0.00  0.00    +0.000 N 
ATOM      2  C   UNL     1      -0.920  12.524  20.707  0.00  0.00    +0.000 C 
ATOM      3  N   UNL     1      -1.800  11.829  19.982  0.00  0.00    +0.000 N 
ATOM      4  C   UNL     1      -1.244  10.483  20.014  0.00  0.00    +0.000 C 
ATOM      5  C   UNL     1      -0.255  10.565  18.893  0.00  0.00    +0.000 C 
ATOM      6  O   UNL     1      -0.446  11.174  17.839  0.00  0.00    +0.000 OA
ATOM      7  C   UNL     1       0.924   9.737  19.048  0.00  0.00    +0.000 A 
ATOM      8  C   UNL     1       1.711   9.508  17.899  0.00  0.00    +0.000 A 
ATOM      9  C   UNL     1       2.520   8.390  17.860  0.00  0.00    +0.000 A 
ATOM     10  C   UNL     1       2.538   7.519  18.951  0.00  0.00    +0.000 A 
ATOM     11  C   UNL     1       1.845   7.827  20.135  0.00  0.00    +0.000 A 
ATOM     12  C   UNL     1       1.071   8.987  20.214  0.00  0.00    +0.000 A 
ATOM     13  C   UNL     1       0.338   9.363  21.481  0.00  0.00    +0.000 C 
ATOM     14  O   UNL     1       0.578   8.731  22.510  0.00  0.00    +0.000 OA
ATOM     15  C   UNL     1      -0.745  10.417  21.471  0.00  0.00    +0.000 C 
ENDROOT
BRANCH   3  16
ATOM     16  C   UNL     1      -3.256  11.908  20.160  0.00  0.00    +0.000 C 
ATOM     17  C   UNL     1      -3.936  13.267  20.216  0.00  0.00    +0.000 C 
ATOM     18  C   UNL     1      -4.168  12.399  19.027  0.00  0.00    +0.000 C 
ENDBRANCH   3  16
BRANCH   1  20
ATOM     19  C   UNL     1      -2.443  12.086  23.528  0.00  0.00    +0.000 C 
ATOM     20  C   UNL     1      -1.106  12.597  23.033  0.00  0.00    +0.000 C 
ENDBRANCH   1  20
BRANCH   2  21
ATOM     21  C   UNL     1       0.225  13.388  20.302  0.00  0.00    +0.000 C 
ATOM     22  C   UNL     1       1.554  13.237  20.289  0.00  0.00    +0.000 C 
BRANCH  22  23
ATOM     23  C   UNL     1       2.431  14.380  19.922  0.00  0.00    +0.000 A 
ATOM     24  C   UNL     1       3.507  14.745  20.738  0.00  0.00    +0.000 A 
ATOM     25  C   UNL     1       4.422  15.727  20.321  0.00  0.00    +0.000 A 
ATOM     26  C   UNL     1       4.271  16.365  19.087  0.00  0.00    +0.000 A 
ATOM     27  C   UNL     1       3.156  16.057  18.287  0.00  0.00    +0.000 A 
ATOM     28  C   UNL     1       2.250  15.076  18.712  0.00  0.00    +0.000 A 
BRANCH  26  29
ATOM     29  O   UNL     1       5.144  17.285  18.566  0.00  0.00    +0.000 OA
ATOM     30  C   UNL     1       6.536  17.054  18.731  0.00  0.00    +0.000 C 
ENDBRANCH  26  29
BRANCH  27  31
ATOM     31  O   UNL     1       3.056  16.742  17.101  0.00  0.00    +0.000 OA
ATOM     32  C   UNL     1       1.986  17.661  16.941  0.00  0.00    +0.000 C 
ENDBRANCH  27  31
ENDBRANCH  22  23
ENDBRANCH   2  21
TORSDOF 6
ENDMDL
