MODEL 1
REMARK VINA RESULT:      -7.5      0.000      0.000
REMARK  Name = 
REMARK  3 active torsions:
REMARK  status: ('A' for Active; 'I' for Inactive)
REMARK    1  A    between atoms: O_1  and  C_2
REMARK    2  A    between atoms: C_5  and  N_6
REMARK    3  A    between atoms: N_9  and  C_10
REMARK                            x       y       z     vdW  Elec       q    Type
REMARK                         _______ _______ _______ _____ _____    ______ ____
ROOT
ATOM      1  N   UNL     1       2.592   7.391  18.740  0.00  0.00    +0.000 N 
ATOM      2  C   UNL     1       1.757   7.229  19.945  0.00  0.00    +0.000 C 
ATOM      3  C   UNL     1       1.544   8.607  20.630  0.00  0.00    +0.000 C 
ATOM      4  N   UNL     1       1.021   9.572  19.640  0.00  0.00    +0.000 N 
ATOM      5  C   UNL     1       1.923   9.752  18.483  0.00  0.00    +0.000 C 
ATOM      6  C   UNL     1       2.090   8.388  17.774  0.00  0.00    +0.000 C 
ENDROOT
BRANCH   4   7
ATOM      7  C   UNL     1      -0.023  10.441  19.923  0.00  0.00    +0.000 A 
ATOM      8  C   UNL     1      -0.036  11.136  21.138  0.00  0.00    +0.000 A 
ATOM      9  C   UNL     1      -1.079  11.994  21.425  0.00  0.00    +0.000 A 
ATOM     10  N   UNL     1      -2.107  12.229  20.592  0.00  0.00    +0.000 NA
ATOM     11  C   UNL     1      -2.129  11.574  19.424  0.00  0.00    +0.000 A 
ATOM     12  C   UNL     1      -3.204  11.817  18.580  0.00  0.00    +0.000 A 
ATOM     13  C   UNL     1      -3.333  11.167  17.356  0.00  0.00    +0.000 A 
ATOM     14 CL   UNL     1      -4.670  11.511  16.329  0.00  0.00    +0.000 Cl
ATOM     15  C   UNL     1      -2.398  10.230  16.969  0.00  0.00    +0.000 A 
ATOM     16  C   UNL     1      -1.330   9.953  17.817  0.00  0.00    +0.000 A 
ATOM     17  C   UNL     1      -1.130  10.647  19.039  0.00  0.00    +0.000 A 
ENDBRANCH   4   7
BRANCH   1  21
ATOM     18  C   UNL     1       5.718   4.810  17.669  0.00  0.00    +0.000 A 
ATOM     19  C   UNL     1       5.102   4.655  18.905  0.00  0.00    +0.000 A 
ATOM     20  C   UNL     1       4.053   5.512  19.262  0.00  0.00    +0.000 A 
ATOM     21  C   UNL     1       3.602   6.521  18.400  0.00  0.00    +0.000 A 
ATOM     22  C   UNL     1       4.256   6.643  17.161  0.00  0.00    +0.000 A 
ATOM     23  C   UNL     1       5.301   5.802  16.792  0.00  0.00    +0.000 A 
BRANCH  18  24
ATOM     24  O   UNL     1       6.747   4.006  17.278  0.00  0.00    +0.000 OA
ATOM     25  H   UNL     1       7.579   4.448  17.496  0.00  0.00    +0.000 HD
ENDBRANCH  18  24
ENDBRANCH   1  21
TORSDOF 3
ENDMDL
MODEL 2
REMARK VINA RESULT:      -7.4      0.641      1.063
REMARK  Name = 
REMARK  3 active torsions:
REMARK  status: ('A' for Active; 'I' for Inactive)
REMARK    1  A    between atoms: O_1  and  C_2
REMARK    2  A    between atoms: C_5  and  N_6
REMARK    3  A    between atoms: N_9  and  C_10
REMARK                            x       y       z     vdW  Elec       q    Type
REMARK                         _______ _______ _______ _____ _____    ______ ____
ROOT
ATOM      1  N   UNL     1       2.581   7.324  18.308  0.00  0.00    +0.000 N 
ATOM      2  C   UNL     1       1.835   7.117  19.564  0.00  0.00    +0.000 C 
ATOM      3  C   UNL     1       1.738   8.455  20.348  0.00  0.00    +0.000 C 
ATOM      4  N   UNL     1       1.184   9.502  19.465  0.00  0.00    +0.000 N 
ATOM      5  C   UNL     1       2.001   9.722  18.254  0.00  0.00    +0.000 C 
ATOM      6  C   UNL     1       2.052   8.402  17.450  0.00  0.00    +0.000 C 
ENDROOT
BRANCH   4   7
ATOM      7  C   UNL     1       0.205  10.392  19.885  0.00  0.00    +0.000 A 
ATOM      8  C   UNL     1       0.353  11.059  21.106  0.00  0.00    +0.000 A 
ATOM      9  C   UNL     1      -0.625  11.938  21.529  0.00  0.00    +0.000 A 
ATOM     10  N   UNL     1      -1.735  12.218  20.825  0.00  0.00    +0.000 NA
ATOM     11  C   UNL     1      -1.911  11.591  19.656  0.00  0.00    +0.000 A 
ATOM     12  C   UNL     1      -3.069  11.881  18.948  0.00  0.00    +0.000 A 
ATOM     13  C   UNL     1      -3.357  11.262  17.735  0.00  0.00    +0.000 A 
ATOM     14 CL   UNL     1      -4.793  11.664  16.876  0.00  0.00    +0.000 Cl
ATOM     15  C   UNL     1      -2.501  10.310  17.223  0.00  0.00    +0.000 A 
ATOM     16  C   UNL     1      -1.350   9.986  17.936  0.00  0.00    +0.000 A 
ATOM     17  C   UNL     1      -0.990  10.647  19.139  0.00  0.00    +0.000 A 
ENDBRANCH   4   7
BRANCH   1  21
ATOM     18  C   UNL     1       5.380   4.568  16.840  0.00  0.00    +0.000 A 
ATOM     19  C   UNL     1       5.572   5.924  16.603  0.00  0.00    +0.000 A 
ATOM     20  C   UNL     1       4.641   6.847  17.098  0.00  0.00    +0.000 A 
ATOM     21  C   UNL     1       3.522   6.438  17.835  0.00  0.00    +0.000 A 
ATOM     22  C   UNL     1       3.365   5.057  18.049  0.00  0.00    +0.000 A 
ATOM     23  C   UNL     1       4.279   4.127  17.561  0.00  0.00    +0.000 A 
BRANCH  18  24
ATOM     24  O   UNL     1       6.253   3.631  16.374  0.00  0.00    +0.000 OA
ATOM     25  H   UNL     1       6.573   3.113  17.124  0.00  0.00    +0.000 HD
ENDBRANCH  18  24
ENDBRANCH   1  21
TORSDOF 3
ENDMDL
MODEL 3
REMARK VINA RESULT:      -7.3      1.464      1.923
REMARK  Name = 
REMARK  3 active torsions:
REMARK  status: ('A' for Active; 'I' for Inactive)
REMARK    1  A    between atoms: O_1  and  C_2
REMARK    2  A    between atoms: C_5  and  N_6
REMARK    3  A    between atoms: N_9  and  C_10
REMARK                            x       y       z     vdW  Elec       q    Type
REMARK                         _______ _______ _______ _____ _____    ______ ____
ROOT
ATOM      1  N   UNL     1       2.279   6.564  19.599  0.00  0.00    +0.000 N 
ATOM      2  C   UNL     1       1.384   6.994  20.690  0.00  0.00    +0.000 C 
ATOM      3  C   UNL     1       1.547   8.519  20.938  0.00  0.00    +0.000 C 
ATOM      4  N   UNL     1       1.364   9.246  19.665  0.00  0.00    +0.000 N 
ATOM      5  C   UNL     1       2.326   8.830  18.624  0.00  0.00    +0.000 C 
ATOM      6  C   UNL     1       2.125   7.323  18.342  0.00  0.00    +0.000 C 
ENDROOT
BRANCH   4   7
ATOM      7  C   UNL     1       0.603  10.402  19.568  0.00  0.00    +0.000 A 
ATOM      8  C   UNL     1       0.879  11.487  20.407  0.00  0.00    +0.000 A 
ATOM      9  C   UNL     1       0.116  12.634  20.317  0.00  0.00    +0.000 A 
ATOM     10  N   UNL     1      -0.895  12.796  19.447  0.00  0.00    +0.000 NA
ATOM     11  C   UNL     1      -1.191  11.773  18.635  0.00  0.00    +0.000 A 
ATOM     12  C   UNL     1      -2.247  11.950  17.752  0.00  0.00    +0.000 A 
ATOM     13  C   UNL     1      -2.651  10.939  16.884  0.00  0.00    +0.000 A 
ATOM     14 CL   UNL     1      -3.951  11.204  15.789  0.00  0.00    +0.000 Cl
ATOM     15  C   UNL     1      -2.021   9.712  16.912  0.00  0.00    +0.000 A 
ATOM     16  C   UNL     1      -0.980   9.509  17.813  0.00  0.00    +0.000 A 
ATOM     17  C   UNL     1      -0.497  10.539  18.661  0.00  0.00    +0.000 A 
ENDBRANCH   4   7
BRANCH   1  21
ATOM     18  C   UNL     1       4.431   2.966  19.699  0.00  0.00    +0.000 A 
ATOM     19  C   UNL     1       4.996   4.080  19.090  0.00  0.00    +0.000 A 
ATOM     20  C   UNL     1       4.282   5.285  19.061  0.00  0.00    +0.000 A 
ATOM     21  C   UNL     1       3.010   5.399  19.638  0.00  0.00    +0.000 A 
ATOM     22  C   UNL     1       2.475   4.247  20.241  0.00  0.00    +0.000 A 
ATOM     23  C   UNL     1       3.171   3.042  20.275  0.00  0.00    +0.000 A 
BRANCH  18  24
ATOM     24  O   UNL     1       5.083   1.770  19.746  0.00  0.00    +0.000 OA
ATOM     25  H   UNL     1       5.641   1.759  20.535  0.00  0.00    +0.000 HD
ENDBRANCH  18  24
ENDBRANCH   1  21
TORSDOF 3
ENDMDL
MODEL 4
REMARK VINA RESULT:      -7.1      4.505      8.377
REMARK  Name = 
REMARK  3 active torsions:
REMARK  status: ('A' for Active; 'I' for Inactive)
REMARK    1  A    between atoms: O_1  and  C_2
REMARK    2  A    between atoms: C_5  and  N_6
REMARK    3  A    between atoms: N_9  and  C_10
REMARK                            x       y       z     vdW  Elec       q    Type
REMARK                         _______ _______ _______ _____ _____    ______ ____
ROOT
ATOM      1  N   UNL     1       0.920   9.420  19.991  0.00  0.00    +0.000 N 
ATOM      2  C   UNL     1       1.054   9.264  18.530  0.00  0.00    +0.000 C 
ATOM      3  C   UNL     1       2.306   8.407  18.201  0.00  0.00    +0.000 C 
ATOM      4  N   UNL     1       2.244   7.137  18.955  0.00  0.00    +0.000 N 
ATOM      5  C   UNL     1       2.180   7.341  20.417  0.00  0.00    +0.000 C 
ATOM      6  C   UNL     1       0.904   8.150  20.745  0.00  0.00    +0.000 C 
ENDROOT
BRANCH   4   7
ATOM      7  C   UNL     1       2.541   5.911  18.378  0.00  0.00    +0.000 A 
ATOM      8  C   UNL     1       1.719   4.807  18.633  0.00  0.00    +0.000 A 
ATOM      9  C   UNL     1       2.020   3.584  18.067  0.00  0.00    +0.000 A 
ATOM     10  N   UNL     1       3.068   3.372  17.254  0.00  0.00    +0.000 NA
ATOM     11  C   UNL     1       3.879   4.405  16.996  0.00  0.00    +0.000 A 
ATOM     12  C   UNL     1       4.965   4.167  16.164  0.00  0.00    +0.000 A 
ATOM     13  C   UNL     1       5.882   5.168  15.856  0.00  0.00    +0.000 A 
ATOM     14 CL   UNL     1       7.203   4.839  14.804  0.00  0.00    +0.000 Cl
ATOM     15  C   UNL     1       5.745   6.425  16.406  0.00  0.00    +0.000 A 
ATOM     16  C   UNL     1       4.678   6.672  17.265  0.00  0.00    +0.000 A 
ATOM     17  C   UNL     1       3.686   5.696  17.546  0.00  0.00    +0.000 A 
ENDBRANCH   4   7
BRANCH   1  21
ATOM     18  C   UNL     1      -0.120  12.998  21.914  0.00  0.00    +0.000 A 
ATOM     19  C   UNL     1       0.772  13.033  20.849  0.00  0.00    +0.000 A 
ATOM     20  C   UNL     1       1.116  11.839  20.200  0.00  0.00    +0.000 A 
ATOM     21  C   UNL     1       0.577  10.607  20.595  0.00  0.00    +0.000 A 
ATOM     22  C   UNL     1      -0.318  10.618  21.679  0.00  0.00    +0.000 A 
ATOM     23  C   UNL     1      -0.668  11.795  22.336  0.00  0.00    +0.000 A 
BRANCH  18  24
ATOM     24  O   UNL     1      -0.480  14.130  22.581  0.00  0.00    +0.000 OA
ATOM     25  H   UNL     1      -1.398  14.337  22.359  0.00  0.00    +0.000 HD
ENDBRANCH  18  24
ENDBRANCH   1  21
TORSDOF 3
ENDMDL
MODEL 5
REMARK VINA RESULT:      -7.1      4.300      8.205
REMARK  Name = 
REMARK  3 active torsions:
REMARK  status: ('A' for Active; 'I' for Inactive)
REMARK    1  A    between atoms: O_1  and  C_2
REMARK    2  A    between atoms: C_5  and  N_6
REMARK    3  A    between atoms: N_9  and  C_10
REMARK                            x       y       z     vdW  Elec       q    Type
REMARK                         _______ _______ _______ _____ _____    ______ ____
ROOT
ATOM      1  N   UNL     1       0.659  10.136  19.251  0.00  0.00    +0.000 N 
ATOM      2  C   UNL     1       1.061   9.427  18.021  0.00  0.00    +0.000 C 
ATOM      3  C   UNL     1       2.320   8.561  18.297  0.00  0.00    +0.000 C 
ATOM      4  N   UNL     1       2.068   7.685  19.461  0.00  0.00    +0.000 N 
ATOM      5  C   UNL     1       1.736   8.442  20.686  0.00  0.00    +0.000 C 
ATOM      6  C   UNL     1       0.453   9.263  20.423  0.00  0.00    +0.000 C 
ENDROOT
BRANCH   4   7
ATOM      7  C   UNL     1       2.423   6.344  19.478  0.00  0.00    +0.000 A 
ATOM      8  C   UNL     1       1.919   5.506  20.479  0.00  0.00    +0.000 A 
ATOM      9  C   UNL     1       2.279   4.174  20.502  0.00  0.00    +0.000 A 
ATOM     10  N   UNL     1       3.092   3.601  19.598  0.00  0.00    +0.000 NA
ATOM     11  C   UNL     1       3.598   4.377  18.631  0.00  0.00    +0.000 A 
ATOM     12  C   UNL     1       4.447   3.774  17.713  0.00  0.00    +0.000 A 
ATOM     13  C   UNL     1       5.045   4.498  16.686  0.00  0.00    +0.000 A 
ATOM     14 CL   UNL     1       6.075   3.711  15.555  0.00  0.00    +0.000 Cl
ATOM     15  C   UNL     1       4.829   5.857  16.581  0.00  0.00    +0.000 A 
ATOM     16  C   UNL     1       4.004   6.482  17.512  0.00  0.00    +0.000 A 
ATOM     17  C   UNL     1       3.323   5.762  18.528  0.00  0.00    +0.000 A 
ENDBRANCH   4   7
BRANCH   1  21
ATOM     18  C   UNL     1      -0.544  14.153  19.209  0.00  0.00    +0.000 A 
ATOM     19  C   UNL     1      -1.407  13.190  19.717  0.00  0.00    +0.000 A 
ATOM     20  C   UNL     1      -1.005  11.848  19.738  0.00  0.00    +0.000 A 
ATOM     21  C   UNL     1       0.253  11.450  19.265  0.00  0.00    +0.000 A 
ATOM     22  C   UNL     1       1.093  12.457  18.757  0.00  0.00    +0.000 A 
ATOM     23  C   UNL     1       0.707  13.794  18.727  0.00  0.00    +0.000 A 
BRANCH  18  24
ATOM     24  O   UNL     1      -0.892  15.470  19.161  0.00  0.00    +0.000 OA
ATOM     25  H   UNL     1      -1.703  15.589  19.674  0.00  0.00    +0.000 HD
ENDBRANCH  18  24
ENDBRANCH   1  21
TORSDOF 3
ENDMDL
MODEL 6
REMARK VINA RESULT:      -6.9      2.966      3.646
REMARK  Name = 
REMARK  3 active torsions:
REMARK  status: ('A' for Active; 'I' for Inactive)
REMARK    1  A    between atoms: O_1  and  C_2
REMARK    2  A    between atoms: C_5  and  N_6
REMARK    3  A    between atoms: N_9  and  C_10
REMARK                            x       y       z     vdW  Elec       q    Type
REMARK                         _______ _______ _______ _____ _____    ______ ____
ROOT
ATOM      1  N   UNL     1       2.184   7.692  19.133  0.00  0.00    +0.000 N 
ATOM      2  C   UNL     1       2.247   8.644  18.007  0.00  0.00    +0.000 C 
ATOM      3  C   UNL     1       0.907   9.420  17.896  0.00  0.00    +0.000 C 
ATOM      4  N   UNL     1       0.581  10.029  19.202  0.00  0.00    +0.000 N 
ATOM      5  C   UNL     1       0.461   9.031  20.285  0.00  0.00    +0.000 C 
ATOM      6  C   UNL     1       1.814   8.296  20.428  0.00  0.00    +0.000 C 
ENDROOT
BRANCH   4   7
ATOM      7  C   UNL     1       0.122  11.332  19.326  0.00  0.00    +0.000 A 
ATOM      8  C   UNL     1      -1.190  11.568  19.751  0.00  0.00    +0.000 A 
ATOM      9  C   UNL     1      -1.651  12.864  19.865  0.00  0.00    +0.000 A 
ATOM     10  N   UNL     1      -0.905  13.951  19.603  0.00  0.00    +0.000 NA
ATOM     11  C   UNL     1       0.353  13.760  19.186  0.00  0.00    +0.000 A 
ATOM     12  C   UNL     1       1.107  14.892  18.907  0.00  0.00    +0.000 A 
ATOM     13  C   UNL     1       2.416  14.801  18.443  0.00  0.00    +0.000 A 
ATOM     14 CL   UNL     1       3.326  16.227  18.128  0.00  0.00    +0.000 Cl
ATOM     15  C   UNL     1       2.986  13.565  18.217  0.00  0.00    +0.000 A 
ATOM     16  C   UNL     1       2.233  12.421  18.464  0.00  0.00    +0.000 A 
ATOM     17  C   UNL     1       0.921  12.476  19.003  0.00  0.00    +0.000 A 
ENDBRANCH   4   7
BRANCH   1  21
ATOM     18  C   UNL     1       3.760   3.814  18.889  0.00  0.00    +0.000 A 
ATOM     19  C   UNL     1       3.012   4.175  20.004  0.00  0.00    +0.000 A 
ATOM     20  C   UNL     1       2.480   5.468  20.084  0.00  0.00    +0.000 A 
ATOM     21  C   UNL     1       2.675   6.409  19.064  0.00  0.00    +0.000 A 
ATOM     22  C   UNL     1       3.440   6.002  17.956  0.00  0.00    +0.000 A 
ATOM     23  C   UNL     1       3.978   4.721  17.862  0.00  0.00    +0.000 A 
BRANCH  18  24
ATOM     24  O   UNL     1       4.305   2.570  18.767  0.00  0.00    +0.000 OA
ATOM     25  H   UNL     1       4.047   2.048  19.539  0.00  0.00    +0.000 HD
ENDBRANCH  18  24
ENDBRANCH   1  21
TORSDOF 3
ENDMDL
MODEL 7
REMARK VINA RESULT:      -6.9      3.153      4.021
REMARK  Name = 
REMARK  3 active torsions:
REMARK  status: ('A' for Active; 'I' for Inactive)
REMARK    1  A    between atoms: O_1  and  C_2
REMARK    2  A    between atoms: C_5  and  N_6
REMARK    3  A    between atoms: N_9  and  C_10
REMARK                            x       y       z     vdW  Elec       q    Type
REMARK                         _______ _______ _______ _____ _____    ______ ____
ROOT
ATOM      1  N   UNL     1       1.890   7.864  19.529  0.00  0.00    +0.000 N 
ATOM      2  C   UNL     1       2.047   8.750  18.360  0.00  0.00    +0.000 C 
ATOM      3  C   UNL     1       0.765   9.606  18.168  0.00  0.00    +0.000 C 
ATOM      4  N   UNL     1       0.445  10.302  19.431  0.00  0.00    +0.000 N 
ATOM      5  C   UNL     1       0.229   9.371  20.559  0.00  0.00    +0.000 C 
ATOM      6  C   UNL     1       1.525   8.558  20.780  0.00  0.00    +0.000 C 
ENDROOT
BRANCH   4   7
ATOM      7  C   UNL     1       0.071  11.637  19.475  0.00  0.00    +0.000 A 
ATOM      8  C   UNL     1      -1.218  11.982  19.896  0.00  0.00    +0.000 A 
ATOM      9  C   UNL     1      -1.594  13.310  19.930  0.00  0.00    +0.000 A 
ATOM     10  N   UNL     1      -0.784  14.328  19.594  0.00  0.00    +0.000 NA
ATOM     11  C   UNL     1       0.454  14.032  19.179  0.00  0.00    +0.000 A 
ATOM     12  C   UNL     1       1.275  15.093  18.822  0.00  0.00    +0.000 A 
ATOM     13  C   UNL     1       2.569  14.889  18.354  0.00  0.00    +0.000 A 
ATOM     14 CL   UNL     1       3.563  16.231  17.940  0.00  0.00    +0.000 Cl
ATOM     15  C   UNL     1       3.056  13.607  18.202  0.00  0.00    +0.000 A 
ATOM     16  C   UNL     1       2.236  12.531  18.528  0.00  0.00    +0.000 A 
ATOM     17  C   UNL     1       0.937  12.704  19.073  0.00  0.00    +0.000 A 
ENDBRANCH   4   7
BRANCH   1  21
ATOM     18  C   UNL     1       3.041   3.833  19.590  0.00  0.00    +0.000 A 
ATOM     19  C   UNL     1       3.437   4.637  18.528  0.00  0.00    +0.000 A 
ATOM     20  C   UNL     1       3.059   5.986  18.509  0.00  0.00    +0.000 A 
ATOM     21  C   UNL     1       2.295   6.550  19.539  0.00  0.00    +0.000 A 
ATOM     22  C   UNL     1       1.914   5.699  20.592  0.00  0.00    +0.000 A 
ATOM     23  C   UNL     1       2.279   4.356  20.624  0.00  0.00    +0.000 A 
BRANCH  18  24
ATOM     24  O   UNL     1       3.377   2.514  19.650  0.00  0.00    +0.000 OA
ATOM     25  H   UNL     1       2.707   2.006  19.173  0.00  0.00    +0.000 HD
ENDBRANCH  18  24
ENDBRANCH   1  21
TORSDOF 3
ENDMDL
MODEL 8
REMARK VINA RESULT:      -6.9      4.269      8.306
REMARK  Name = 
REMARK  3 active torsions:
REMARK  status: ('A' for Active; 'I' for Inactive)
REMARK    1  A    between atoms: O_1  and  C_2
REMARK    2  A    between atoms: C_5  and  N_6
REMARK    3  A    between atoms: N_9  and  C_10
REMARK                            x       y       z     vdW  Elec       q    Type
REMARK                         _______ _______ _______ _____ _____    ______ ____
ROOT
ATOM      1  N   UNL     1       0.685   9.971  19.262  0.00  0.00    +0.000 N 
ATOM      2  C   UNL     1       1.051   9.356  17.972  0.00  0.00    +0.000 C 
ATOM      3  C   UNL     1       2.354   8.527  18.130  0.00  0.00    +0.000 C 
ATOM      4  N   UNL     1       2.196   7.572  19.247  0.00  0.00    +0.000 N 
ATOM      5  C   UNL     1       1.899   8.238  20.532  0.00  0.00    +0.000 C 
ATOM      6  C   UNL     1       0.573   9.019  20.386  0.00  0.00    +0.000 C 
ENDROOT
BRANCH   4   7
ATOM      7  C   UNL     1       2.603   6.249  19.161  0.00  0.00    +0.000 A 
ATOM      8  C   UNL     1       2.105   5.310  20.072  0.00  0.00    +0.000 A 
ATOM      9  C   UNL     1       2.516   3.994  19.993  0.00  0.00    +0.000 A 
ATOM     10  N   UNL     1       3.375   3.532  19.069  0.00  0.00    +0.000 NA
ATOM     11  C   UNL     1       3.877   4.405  18.188  0.00  0.00    +0.000 A 
ATOM     12  C   UNL     1       4.773   3.915  17.248  0.00  0.00    +0.000 A 
ATOM     13  C   UNL     1       5.370   4.746  16.305  0.00  0.00    +0.000 A 
ATOM     14 CL   UNL     1       6.461   4.097  15.143  0.00  0.00    +0.000 Cl
ATOM     15  C   UNL     1       5.104   6.100  16.309  0.00  0.00    +0.000 A 
ATOM     16  C   UNL     1       4.230   6.612  17.263  0.00  0.00    +0.000 A 
ATOM     17  C   UNL     1       3.551   5.783  18.194  0.00  0.00    +0.000 A 
ENDBRANCH   4   7
BRANCH   1  21
ATOM     18  C   UNL     1      -0.771  13.881  19.675  0.00  0.00    +0.000 A 
ATOM     19  C   UNL     1       0.599  13.656  19.737  0.00  0.00    +0.000 A 
ATOM     20  C   UNL     1       1.088  12.351  19.593  0.00  0.00    +0.000 A 
ATOM     21  C   UNL     1       0.230  11.264  19.380  0.00  0.00    +0.000 A 
ATOM     22  C   UNL     1      -1.149  11.537  19.327  0.00  0.00    +0.000 A 
ATOM     23  C   UNL     1      -1.650  12.827  19.471  0.00  0.00    +0.000 A 
BRANCH  18  24
ATOM     24  O   UNL     1      -1.296  15.131  19.817  0.00  0.00    +0.000 OA
ATOM     25  H   UNL     1      -0.989  15.676  19.079  0.00  0.00    +0.000 HD
ENDBRANCH  18  24
ENDBRANCH   1  21
TORSDOF 3
ENDMDL
MODEL 9
REMARK VINA RESULT:      -6.8      4.152      8.358
REMARK  Name = 
REMARK  3 active torsions:
REMARK  status: ('A' for Active; 'I' for Inactive)
REMARK    1  A    between atoms: O_1  and  C_2
REMARK    2  A    between atoms: C_5  and  N_6
REMARK    3  A    between atoms: N_9  and  C_10
REMARK                            x       y       z     vdW  Elec       q    Type
REMARK                         _______ _______ _______ _____ _____    ______ ____
ROOT
ATOM      1  N   UNL     1       1.164   9.201  19.582  0.00  0.00    +0.000 N 
ATOM      2  C   UNL     1       1.584   8.403  20.750  0.00  0.00    +0.000 C 
ATOM      3  C   UNL     1       1.583   6.893  20.387  0.00  0.00    +0.000 C 
ATOM      4  N   UNL     1       2.392   6.680  19.169  0.00  0.00    +0.000 N 
ATOM      5  C   UNL     1       1.893   7.446  18.008  0.00  0.00    +0.000 C 
ATOM      6  C   UNL     1       1.945   8.952  18.355  0.00  0.00    +0.000 C 
ENDROOT
BRANCH   4   7
ATOM      7  C   UNL     1       3.302   5.639  19.050  0.00  0.00    +0.000 A 
ATOM      8  C   UNL     1       3.349   4.643  20.031  0.00  0.00    +0.000 A 
ATOM      9  C   UNL     1       4.261   3.612  19.918  0.00  0.00    +0.000 A 
ATOM     10  N   UNL     1       5.124   3.484  18.896  0.00  0.00    +0.000 NA
ATOM     11  C   UNL     1       5.110   4.425  17.944  0.00  0.00    +0.000 A 
ATOM     12  C   UNL     1       6.017   4.286  16.901  0.00  0.00    +0.000 A 
ATOM     13  C   UNL     1       6.101   5.223  15.877  0.00  0.00    +0.000 A 
ATOM     14 CL   UNL     1       7.223   5.005  14.591  0.00  0.00    +0.000 Cl
ATOM     15  C   UNL     1       5.296   6.343  15.896  0.00  0.00    +0.000 A 
ATOM     16  C   UNL     1       4.402   6.513  16.950  0.00  0.00    +0.000 A 
ATOM     17  C   UNL     1       4.241   5.542  17.973  0.00  0.00    +0.000 A 
ENDBRANCH   4   7
BRANCH   1  21
ATOM     18  C   UNL     1      -1.522  12.413  19.802  0.00  0.00    +0.000 A 
ATOM     19  C   UNL     1      -0.774  12.075  20.923  0.00  0.00    +0.000 A 
ATOM     20  C   UNL     1       0.129  11.006  20.850  0.00  0.00    +0.000 A 
ATOM     21  C   UNL     1       0.303  10.271  19.670  0.00  0.00    +0.000 A 
ATOM     22  C   UNL     1      -0.476  10.646  18.561  0.00  0.00    +0.000 A 
ATOM     23  C   UNL     1      -1.379  11.703  18.618  0.00  0.00    +0.000 A 
BRANCH  18  24
ATOM     24  O   UNL     1      -2.418  13.440  19.825  0.00  0.00    +0.000 OA
ATOM     25  H   UNL     1      -2.208  14.044  19.101  0.00  0.00    +0.000 HD
ENDBRANCH  18  24
ENDBRANCH   1  21
TORSDOF 3
ENDMDL
