MODEL 1
REMARK VINA RESULT:      -7.1      0.000      0.000
REMARK  Name = 
REMARK  10 active torsions:
REMARK  status: ('A' for Active; 'I' for Inactive)
REMARK    1  A    between atoms: C_1  and  O_2
REMARK    2  A    between atoms: O_2  and  C_3
REMARK    3  A    between atoms: C_3  and  C_4
REMARK    4  A    between atoms: C_4  and  C_5
REMARK    5  A    between atoms: C_5  and  N_6
REMARK    6  A    between atoms: N_6  and  C_15
REMARK    7  A    between atoms: C_7  and  C_9
REMARK    8  A    between atoms: C_16  and  N_17
REMARK    9  A    between atoms: N_18  and  C_19
REMARK   10  A    between atoms: C_19  and  C_20
REMARK                            x       y       z     vdW  Elec       q    Type
REMARK                         _______ _______ _______ _____ _____    ______ ____
ROOT
ATOM      1  C   UNL     1       2.234   6.387  19.081  0.00  0.00    +0.000 A 
ATOM      2  C   UNL     1       2.058   7.656  18.631  0.00  0.00    +0.000 A 
ATOM      3  N   UNL     1       1.605   8.648  19.491  0.00  0.00    +0.000 N 
ATOM      4  C   UNL     1       1.257   8.393  20.807  0.00  0.00    +0.000 A 
ATOM      5  O   UNL     1       0.780   9.231  21.572  0.00  0.00    +0.000 OA
ATOM      6  N   UNL     1       1.491   7.132  21.262  0.00  0.00    +0.000 N 
ATOM      7  C   UNL     1       2.080   6.134  20.549  0.00  0.00    +0.000 A 
ATOM      8  O   UNL     1       2.445   5.089  21.081  0.00  0.00    +0.000 OA
ATOM      9  H   UNL     1       1.330   6.973  22.246  0.00  0.00    +0.000 HD
ENDROOT
BRANCH   1  10
ATOM     10  N   UNL     1       2.597   5.331  18.229  0.00  0.00    +0.000 N 
ATOM     11  C   UNL     1       3.838   5.298  17.570  0.00  0.00    +0.000 C 
ATOM     12  O   UNL     1       4.055   4.500  16.653  0.00  0.00    +0.000 OA
BRANCH  11  13
ATOM     13  C   UNL     1       4.989   6.187  18.102  0.00  0.00    +0.000 C 
ATOM     14  C   UNL     1       5.812   5.499  19.198  0.00  0.00    +0.000 C 
ATOM     15  C   UNL     1       6.835   4.506  18.657  0.00  0.00    +0.000 C 
ATOM     16  C   UNL     1       7.731   5.133  17.596  0.00  0.00    +0.000 C 
ATOM     17  C   UNL     1       6.914   5.725  16.457  0.00  0.00    +0.000 C 
ATOM     18  C   UNL     1       5.873   6.720  16.961  0.00  0.00    +0.000 C 
ENDBRANCH  11  13
BRANCH  10  19
ATOM     19  C   UNL     1       1.480   4.541  17.654  0.00  0.00    +0.000 C 
BRANCH  19  20
ATOM     20  C   UNL     1       1.061   3.264  18.407  0.00  0.00    +0.000 C 
BRANCH  20  21
ATOM     21  C   UNL     1       2.119   2.170  18.456  0.00  0.00    +0.000 C 
BRANCH  21  23
ATOM     22  C   UNL     1       4.135   2.219  19.701  0.00  0.00    +0.000 C 
ATOM     23  O   UNL     1       2.711   2.170  19.756  0.00  0.00    +0.000 OA
ENDBRANCH  21  23
ENDBRANCH  20  21
ENDBRANCH  19  20
ENDBRANCH  10  19
ENDBRANCH   1  10
BRANCH   2  24
ATOM     24  N   UNL     1       2.235   7.972  17.300  0.00  0.00    +0.000 N 
ATOM     25  H   UNL     1       2.645   8.895  17.177  0.00  0.00    +0.000 HD
ATOM     26  H   UNL     1       1.350   7.970  16.801  0.00  0.00    +0.000 HD
ENDBRANCH   2  24
BRANCH   3  27
ATOM     27  C   UNL     1       1.412  10.018  18.991  0.00  0.00    +0.000 C 
BRANCH  27  28
ATOM     28  C   UNL     1      -0.039  10.393  18.724  0.00  0.00    +0.000 A 
ATOM     29  C   UNL     1      -0.604  11.501  19.378  0.00  0.00    +0.000 A 
ATOM     30  C   UNL     1      -1.874  11.967  19.024  0.00  0.00    +0.000 A 
ATOM     31  C   UNL     1      -2.597  11.333  18.016  0.00  0.00    +0.000 A 
ATOM     32  C   UNL     1      -2.063  10.214  17.382  0.00  0.00    +0.000 A 
ATOM     33  C   UNL     1      -0.794   9.749  17.733  0.00  0.00    +0.000 A 
ENDBRANCH  27  28
ENDBRANCH   3  27
TORSDOF 9
ENDMDL
MODEL 2
REMARK VINA RESULT:      -6.7      6.107      8.528
REMARK  Name = 
REMARK  10 active torsions:
REMARK  status: ('A' for Active; 'I' for Inactive)
REMARK    1  A    between atoms: C_1  and  O_2
REMARK    2  A    between atoms: O_2  and  C_3
REMARK    3  A    between atoms: C_3  and  C_4
REMARK    4  A    between atoms: C_4  and  C_5
REMARK    5  A    between atoms: C_5  and  N_6
REMARK    6  A    between atoms: N_6  and  C_15
REMARK    7  A    between atoms: C_7  and  C_9
REMARK    8  A    between atoms: C_16  and  N_17
REMARK    9  A    between atoms: N_18  and  C_19
REMARK   10  A    between atoms: C_19  and  C_20
REMARK                            x       y       z     vdW  Elec       q    Type
REMARK                         _______ _______ _______ _____ _____    ______ ____
ROOT
ATOM      1  C   UNL     1      -1.386  11.633  19.734  0.00  0.00    +0.000 A 
ATOM      2  C   UNL     1      -2.617  12.115  19.426  0.00  0.00    +0.000 A 
ATOM      3  N   UNL     1      -3.358  11.539  18.402  0.00  0.00    +0.000 N 
ATOM      4  C   UNL     1      -2.871  10.506  17.619  0.00  0.00    +0.000 A 
ATOM      5  O   UNL     1      -3.470  10.025  16.656  0.00  0.00    +0.000 OA
ATOM      6  N   UNL     1      -1.661   9.995  17.973  0.00  0.00    +0.000 N 
ATOM      7  C   UNL     1      -0.929  10.380  19.054  0.00  0.00    +0.000 A 
ATOM      8  O   UNL     1       0.050   9.743  19.431  0.00  0.00    +0.000 OA
ATOM      9  H   UNL     1      -1.352   9.180  17.464  0.00  0.00    +0.000 HD
ENDROOT
BRANCH   1  10
ATOM     10  N   UNL     1      -0.559  12.242  20.693  0.00  0.00    +0.000 N 
ATOM     11  C   UNL     1       0.605  12.945  20.336  0.00  0.00    +0.000 C 
ATOM     12  O   UNL     1       1.442  13.270  21.184  0.00  0.00    +0.000 OA
BRANCH  11  13
ATOM     13  C   UNL     1       0.763  13.431  18.874  0.00  0.00    +0.000 C 
ATOM     14  C   UNL     1       0.351  14.897  18.688  0.00  0.00    +0.000 C 
ATOM     15  C   UNL     1       1.421  15.890  19.130  0.00  0.00    +0.000 C 
ATOM     16  C   UNL     1       2.768  15.601  18.480  0.00  0.00    +0.000 C 
ATOM     17  C   UNL     1       3.225  14.175  18.752  0.00  0.00    +0.000 C 
ATOM     18  C   UNL     1       2.175  13.152  18.330  0.00  0.00    +0.000 C 
ENDBRANCH  11  13
BRANCH  10  19
ATOM     19  C   UNL     1      -0.655  11.707  22.074  0.00  0.00    +0.000 C 
BRANCH  19  20
ATOM     20  C   UNL     1      -1.462  12.533  23.094  0.00  0.00    +0.000 C 
BRANCH  20  21
ATOM     21  C   UNL     1      -2.757  11.885  23.566  0.00  0.00    +0.000 C 
BRANCH  21  23
ATOM     22  C   UNL     1      -4.837  13.013  23.435  0.00  0.00    +0.000 C 
ATOM     23  O   UNL     1      -3.818  12.323  22.715  0.00  0.00    +0.000 OA
ENDBRANCH  21  23
ENDBRANCH  20  21
ENDBRANCH  19  20
ENDBRANCH  10  19
ENDBRANCH   1  10
BRANCH   2  24
ATOM     24  N   UNL     1      -3.122  13.235  20.051  0.00  0.00    +0.000 N 
ATOM     25  H   UNL     1      -3.099  14.054  19.448  0.00  0.00    +0.000 HD
ATOM     26  H   UNL     1      -2.587  13.463  20.884  0.00  0.00    +0.000 HD
ENDBRANCH   2  24
BRANCH   3  27
ATOM     27  C   UNL     1      -4.689  12.073  18.072  0.00  0.00    +0.000 C 
BRANCH  27  28
ATOM     28  C   UNL     1      -5.821  11.515  18.922  0.00  0.00    +0.000 A 
ATOM     29  C   UNL     1      -6.266  10.199  18.714  0.00  0.00    +0.000 A 
ATOM     30  C   UNL     1      -7.182   9.608  19.590  0.00  0.00    +0.000 A 
ATOM     31  C   UNL     1      -7.670  10.325  20.680  0.00  0.00    +0.000 A 
ATOM     32  C   UNL     1      -7.264  11.642  20.880  0.00  0.00    +0.000 A 
ATOM     33  C   UNL     1      -6.347  12.232  20.007  0.00  0.00    +0.000 A 
ENDBRANCH  27  28
ENDBRANCH   3  27
TORSDOF 9
ENDMDL
MODEL 3
REMARK VINA RESULT:      -6.3      2.135      8.038
REMARK  Name = 
REMARK  10 active torsions:
REMARK  status: ('A' for Active; 'I' for Inactive)
REMARK    1  A    between atoms: C_1  and  O_2
REMARK    2  A    between atoms: O_2  and  C_3
REMARK    3  A    between atoms: C_3  and  C_4
REMARK    4  A    between atoms: C_4  and  C_5
REMARK    5  A    between atoms: C_5  and  N_6
REMARK    6  A    between atoms: N_6  and  C_15
REMARK    7  A    between atoms: C_7  and  C_9
REMARK    8  A    between atoms: C_16  and  N_17
REMARK    9  A    between atoms: N_18  and  C_19
REMARK   10  A    between atoms: C_19  and  C_20
REMARK                            x       y       z     vdW  Elec       q    Type
REMARK                         _______ _______ _______ _____ _____    ______ ____
ROOT
ATOM      1  C   UNL     1       0.671   9.990  19.539  0.00  0.00    +0.000 A 
ATOM      2  C   UNL     1       1.504   9.341  18.687  0.00  0.00    +0.000 A 
ATOM      3  N   UNL     1       2.060   8.119  19.044  0.00  0.00    +0.000 N 
ATOM      4  C   UNL     1       1.850   7.539  20.284  0.00  0.00    +0.000 A 
ATOM      5  O   UNL     1       2.388   6.498  20.662  0.00  0.00    +0.000 OA
ATOM      6  N   UNL     1       0.971   8.170  21.108  0.00  0.00    +0.000 N 
ATOM      7  C   UNL     1       0.252   9.282  20.790  0.00  0.00    +0.000 A 
ATOM      8  O   UNL     1      -0.669   9.679  21.497  0.00  0.00    +0.000 OA
ATOM      9  H   UNL     1       0.743   7.696  21.969  0.00  0.00    +0.000 HD
ENDROOT
BRANCH   1  10
ATOM     10  N   UNL     1       0.162  11.270  19.264  0.00  0.00    +0.000 N 
ATOM     11  C   UNL     1      -0.946  11.466  18.421  0.00  0.00    +0.000 C 
ATOM     12  O   UNL     1      -1.239  12.589  18.000  0.00  0.00    +0.000 OA
BRANCH  11  13
ATOM     13  C   UNL     1      -1.885  10.269  18.134  0.00  0.00    +0.000 C 
ATOM     14  C   UNL     1      -3.338  10.544  18.543  0.00  0.00    +0.000 C 
ATOM     15  C   UNL     1      -4.106  11.385  17.529  0.00  0.00    +0.000 C 
ATOM     16  C   UNL     1      -4.022  10.799  16.124  0.00  0.00    +0.000 C 
ATOM     17  C   UNL     1      -2.577  10.624  15.680  0.00  0.00    +0.000 C 
ATOM     18  C   UNL     1      -1.773   9.793  16.676  0.00  0.00    +0.000 C 
ENDBRANCH  11  13
BRANCH  10  19
ATOM     19  C   UNL     1       1.101  12.403  19.457  0.00  0.00    +0.000 C 
BRANCH  19  20
ATOM     20  C   UNL     1       1.218  12.985  20.879  0.00  0.00    +0.000 C 
BRANCH  20  21
ATOM     21  C   UNL     1      -0.102  13.405  21.513  0.00  0.00    +0.000 C 
BRANCH  21  23
ATOM     22  C   UNL     1      -1.606  12.600  23.158  0.00  0.00    +0.000 C 
ATOM     23  O   UNL     1      -0.242  12.723  22.761  0.00  0.00    +0.000 OA
ENDBRANCH  21  23
ENDBRANCH  20  21
ENDBRANCH  19  20
ENDBRANCH  10  19
ENDBRANCH   1  10
BRANCH   2  24
ATOM     24  N   UNL     1       1.889   9.912  17.492  0.00  0.00    +0.000 N 
ATOM     25  H   UNL     1       2.526   9.314  16.970  0.00  0.00    +0.000 HD
ATOM     26  H   UNL     1       2.367  10.795  17.644  0.00  0.00    +0.000 HD
ENDBRANCH   2  24
BRANCH   3  27
ATOM     27  C   UNL     1       2.966   7.427  18.115  0.00  0.00    +0.000 C 
BRANCH  27  28
ATOM     28  C   UNL     1       2.790   5.916  18.070  0.00  0.00    +0.000 A 
ATOM     29  C   UNL     1       1.522   5.370  17.806  0.00  0.00    +0.000 A 
ATOM     30  C   UNL     1       1.367   3.997  17.590  0.00  0.00    +0.000 A 
ATOM     31  C   UNL     1       2.474   3.152  17.640  0.00  0.00    +0.000 A 
ATOM     32  C   UNL     1       3.731   3.674  17.934  0.00  0.00    +0.000 A 
ATOM     33  C   UNL     1       3.887   5.045  18.147  0.00  0.00    +0.000 A 
ENDBRANCH  27  28
ENDBRANCH   3  27
TORSDOF 9
ENDMDL
MODEL 4
REMARK VINA RESULT:      -6.2      2.988      7.636
REMARK  Name = 
REMARK  10 active torsions:
REMARK  status: ('A' for Active; 'I' for Inactive)
REMARK    1  A    between atoms: C_1  and  O_2
REMARK    2  A    between atoms: O_2  and  C_3
REMARK    3  A    between atoms: C_3  and  C_4
REMARK    4  A    between atoms: C_4  and  C_5
REMARK    5  A    between atoms: C_5  and  N_6
REMARK    6  A    between atoms: N_6  and  C_15
REMARK    7  A    between atoms: C_7  and  C_9
REMARK    8  A    between atoms: C_16  and  N_17
REMARK    9  A    between atoms: N_18  and  C_19
REMARK   10  A    between atoms: C_19  and  C_20
REMARK                            x       y       z     vdW  Elec       q    Type
REMARK                         _______ _______ _______ _____ _____    ______ ____
ROOT
ATOM      1  C   UNL     1       0.223  10.370  19.443  0.00  0.00    +0.000 A 
ATOM      2  C   UNL     1       1.084   9.424  18.989  0.00  0.00    +0.000 A 
ATOM      3  N   UNL     1       1.629   8.494  19.866  0.00  0.00    +0.000 N 
ATOM      4  C   UNL     1       1.379   8.517  21.228  0.00  0.00    +0.000 A 
ATOM      5  O   UNL     1       1.906   7.758  22.042  0.00  0.00    +0.000 OA
ATOM      6  N   UNL     1       0.472   9.434  21.662  0.00  0.00    +0.000 N 
ATOM      7  C   UNL     1      -0.237  10.279  20.865  0.00  0.00    +0.000 A 
ATOM      8  O   UNL     1      -1.181  10.934  21.297  0.00  0.00    +0.000 OA
ATOM      9  H   UNL     1       0.217   9.384  22.637  0.00  0.00    +0.000 HD
ENDROOT
BRANCH   1  10
ATOM     10  N   UNL     1      -0.278  11.388  18.616  0.00  0.00    +0.000 N 
ATOM     11  C   UNL     1       0.272  12.682  18.609  0.00  0.00    +0.000 C 
ATOM     12  O   UNL     1      -0.311  13.623  18.064  0.00  0.00    +0.000 OA
BRANCH  11  13
ATOM     13  C   UNL     1       1.698  12.888  19.178  0.00  0.00    +0.000 C 
ATOM     14  C   UNL     1       2.642  13.571  18.181  0.00  0.00    +0.000 C 
ATOM     15  C   UNL     1       2.458  15.083  18.106  0.00  0.00    +0.000 C 
ATOM     16  C   UNL     1       2.533  15.733  19.482  0.00  0.00    +0.000 C 
ATOM     17  C   UNL     1       1.522  15.124  20.443  0.00  0.00    +0.000 C 
ATOM     18  C   UNL     1       1.671  13.608  20.537  0.00  0.00    +0.000 C 
ENDBRANCH  11  13
BRANCH  10  19
ATOM     19  C   UNL     1      -1.677  11.223  18.149  0.00  0.00    +0.000 C 
BRANCH  19  20
ATOM     20  C   UNL     1      -1.923  10.224  17.002  0.00  0.00    +0.000 C 
BRANCH  20  21
ATOM     21  C   UNL     1      -2.700  10.783  15.818  0.00  0.00    +0.000 C 
BRANCH  21  23
ATOM     22  C   UNL     1      -3.768  10.061  13.828  0.00  0.00    +0.000 C 
ATOM     23  O   UNL     1      -2.771   9.775  14.807  0.00  0.00    +0.000 OA
ENDBRANCH  21  23
ENDBRANCH  20  21
ENDBRANCH  19  20
ENDBRANCH  10  19
ENDBRANCH   1  10
BRANCH   2  24
ATOM     24  N   UNL     1       1.508   9.415  17.677  0.00  0.00    +0.000 N 
ATOM     25  H   UNL     1       2.216  10.123  17.499  0.00  0.00    +0.000 HD
ATOM     26  H   UNL     1       0.737   9.597  17.041  0.00  0.00    +0.000 HD
ENDBRANCH   2  24
BRANCH   3  27
ATOM     27  C   UNL     1       2.566   7.477  19.365  0.00  0.00    +0.000 C 
BRANCH  27  28
ATOM     28  C   UNL     1       1.963   6.090  19.198  0.00  0.00    +0.000 A 
ATOM     29  C   UNL     1       1.948   5.484  17.930  0.00  0.00    +0.000 A 
ATOM     30  C   UNL     1       1.558   4.149  17.782  0.00  0.00    +0.000 A 
ATOM     31  C   UNL     1       1.172   3.405  18.895  0.00  0.00    +0.000 A 
ATOM     32  C   UNL     1       1.149   4.002  20.153  0.00  0.00    +0.000 A 
ATOM     33  C   UNL     1       1.542   5.334  20.302  0.00  0.00    +0.000 A 
ENDBRANCH  27  28
ENDBRANCH   3  27
TORSDOF 9
ENDMDL
MODEL 5
REMARK VINA RESULT:      -6.1      5.482      7.938
REMARK  Name = 
REMARK  10 active torsions:
REMARK  status: ('A' for Active; 'I' for Inactive)
REMARK    1  A    between atoms: C_1  and  O_2
REMARK    2  A    between atoms: O_2  and  C_3
REMARK    3  A    between atoms: C_3  and  C_4
REMARK    4  A    between atoms: C_4  and  C_5
REMARK    5  A    between atoms: C_5  and  N_6
REMARK    6  A    between atoms: N_6  and  C_15
REMARK    7  A    between atoms: C_7  and  C_9
REMARK    8  A    between atoms: C_16  and  N_17
REMARK    9  A    between atoms: N_18  and  C_19
REMARK   10  A    between atoms: C_19  and  C_20
REMARK                            x       y       z     vdW  Elec       q    Type
REMARK                         _______ _______ _______ _____ _____    ______ ____
ROOT
ATOM      1  C   UNL     1      -1.452  11.853  19.885  0.00  0.00    +0.000 A 
ATOM      2  C   UNL     1      -2.701  12.324  19.637  0.00  0.00    +0.000 A 
ATOM      3  N   UNL     1      -3.486  11.740  18.650  0.00  0.00    +0.000 N 
ATOM      4  C   UNL     1      -3.028  10.712  17.844  0.00  0.00    +0.000 A 
ATOM      5  O   UNL     1      -3.668  10.226  16.911  0.00  0.00    +0.000 OA
ATOM      6  N   UNL     1      -1.798  10.212  18.138  0.00  0.00    +0.000 N 
ATOM      7  C   UNL     1      -1.018  10.604  19.183  0.00  0.00    +0.000 A 
ATOM      8  O   UNL     1      -0.016   9.975  19.512  0.00  0.00    +0.000 OA
ATOM      9  H   UNL     1      -1.507   9.400  17.615  0.00  0.00    +0.000 HD
ENDROOT
BRANCH   1  10
ATOM     10  N   UNL     1      -0.585  12.469  20.803  0.00  0.00    +0.000 N 
ATOM     11  C   UNL     1       0.600  13.107  20.397  0.00  0.00    +0.000 C 
ATOM     12  O   UNL     1       1.463  13.436  21.216  0.00  0.00    +0.000 OA
BRANCH  11  13
ATOM     13  C   UNL     1       0.752  13.522  18.913  0.00  0.00    +0.000 C 
ATOM     14  C   UNL     1       0.482  15.015  18.683  0.00  0.00    +0.000 C 
ATOM     15  C   UNL     1       1.661  15.909  19.050  0.00  0.00    +0.000 C 
ATOM     16  C   UNL     1       2.948  15.462  18.367  0.00  0.00    +0.000 C 
ATOM     17  C   UNL     1       3.269  14.008  18.681  0.00  0.00    +0.000 C 
ATOM     18  C   UNL     1       2.107  13.082  18.334  0.00  0.00    +0.000 C 
ENDBRANCH  11  13
BRANCH  10  19
ATOM     19  C   UNL     1      -0.679  11.999  22.207  0.00  0.00    +0.000 C 
BRANCH  19  20
ATOM     20  C   UNL     1      -1.226  10.578  22.439  0.00  0.00    +0.000 C 
BRANCH  20  21
ATOM     21  C   UNL     1      -0.398   9.715  23.382  0.00  0.00    +0.000 C 
BRANCH  21  23
ATOM     22  C   UNL     1       1.468   8.925  22.152  0.00  0.00    +0.000 C 
ATOM     23  O   UNL     1       0.984   9.902  23.071  0.00  0.00    +0.000 OA
ENDBRANCH  21  23
ENDBRANCH  20  21
ENDBRANCH  19  20
ENDBRANCH  10  19
ENDBRANCH   1  10
BRANCH   2  24
ATOM     24  N   UNL     1      -3.185  13.439  20.287  0.00  0.00    +0.000 N 
ATOM     25  H   UNL     1      -4.190  13.386  20.440  0.00  0.00    +0.000 HD
ATOM     26  H   UNL     1      -3.009  14.283  19.749  0.00  0.00    +0.000 HD
ENDBRANCH   2  24
BRANCH   3  27
ATOM     27  C   UNL     1      -4.835  12.262  18.385  0.00  0.00    +0.000 C 
BRANCH  27  28
ATOM     28  C   UNL     1      -5.940  11.595  19.192  0.00  0.00    +0.000 A 
ATOM     29  C   UNL     1      -6.358  10.295  18.859  0.00  0.00    +0.000 A 
ATOM     30  C   UNL     1      -7.245   9.597  19.685  0.00  0.00    +0.000 A 
ATOM     31  C   UNL     1      -7.730  10.189  20.849  0.00  0.00    +0.000 A 
ATOM     32  C   UNL     1      -7.350  11.488  21.175  0.00  0.00    +0.000 A 
ATOM     33  C   UNL     1      -6.462  12.185  20.352  0.00  0.00    +0.000 A 
ENDBRANCH  27  28
ENDBRANCH   3  27
TORSDOF 9
ENDMDL
MODEL 6
REMARK VINA RESULT:      -6.0      5.884      9.203
REMARK  Name = 
REMARK  10 active torsions:
REMARK  status: ('A' for Active; 'I' for Inactive)
REMARK    1  A    between atoms: C_1  and  O_2
REMARK    2  A    between atoms: O_2  and  C_3
REMARK    3  A    between atoms: C_3  and  C_4
REMARK    4  A    between atoms: C_4  and  C_5
REMARK    5  A    between atoms: C_5  and  N_6
REMARK    6  A    between atoms: N_6  and  C_15
REMARK    7  A    between atoms: C_7  and  C_9
REMARK    8  A    between atoms: C_16  and  N_17
REMARK    9  A    between atoms: N_18  and  C_19
REMARK   10  A    between atoms: C_19  and  C_20
REMARK                            x       y       z     vdW  Elec       q    Type
REMARK                         _______ _______ _______ _____ _____    ______ ____
ROOT
ATOM      1  C   UNL     1      -2.662  12.940  21.298  0.00  0.00    +0.000 A 
ATOM      2  C   UNL     1      -3.475  12.701  20.237  0.00  0.00    +0.000 A 
ATOM      3  N   UNL     1      -4.825  12.440  20.434  0.00  0.00    +0.000 N 
ATOM      4  C   UNL     1      -5.391  12.352  21.694  0.00  0.00    +0.000 A 
ATOM      5  O   UNL     1      -6.565  12.046  21.907  0.00  0.00    +0.000 OA
ATOM      6  N   UNL     1      -4.580  12.648  22.746  0.00  0.00    +0.000 N 
ATOM      7  C   UNL     1      -3.290  13.071  22.651  0.00  0.00    +0.000 A 
ATOM      8  O   UNL     1      -2.683  13.514  23.621  0.00  0.00    +0.000 OA
ATOM      9  H   UNL     1      -5.018  12.680  23.655  0.00  0.00    +0.000 HD
ENDROOT
BRANCH   1  10
ATOM     10  N   UNL     1      -1.275  13.112  21.158  0.00  0.00    +0.000 N 
ATOM     11  C   UNL     1      -0.362  12.084  21.450  0.00  0.00    +0.000 C 
ATOM     12  O   UNL     1       0.847  12.310  21.551  0.00  0.00    +0.000 OA
BRANCH  11  13
ATOM     13  C   UNL     1      -0.878  10.625  21.510  0.00  0.00    +0.000 C 
ATOM     14  C   UNL     1      -0.546   9.825  20.244  0.00  0.00    +0.000 C 
ATOM     15  C   UNL     1       0.890   9.312  20.209  0.00  0.00    +0.000 C 
ATOM     16  C   UNL     1       1.248   8.536  21.470  0.00  0.00    +0.000 C 
ATOM     17  C   UNL     1       1.014   9.368  22.722  0.00  0.00    +0.000 C 
ATOM     18  C   UNL     1      -0.412   9.907  22.789  0.00  0.00    +0.000 C 
ENDBRANCH  11  13
BRANCH  10  19
ATOM     19  C   UNL     1      -0.783  14.512  21.191  0.00  0.00    +0.000 C 
BRANCH  19  20
ATOM     20  C   UNL     1      -0.876  15.322  19.884  0.00  0.00    +0.000 C 
BRANCH  20  21
ATOM     21  C   UNL     1       0.328  15.193  18.960  0.00  0.00    +0.000 C 
BRANCH  21  23
ATOM     22  C   UNL     1      -0.520  17.203  18.032  0.00  0.00    +0.000 C 
ATOM     23  O   UNL     1       0.643  16.488  18.444  0.00  0.00    +0.000 OA
ENDBRANCH  21  23
ENDBRANCH  20  21
ENDBRANCH  19  20
ENDBRANCH  10  19
ENDBRANCH   1  10
BRANCH   2  24
ATOM     24  N   UNL     1      -2.971  12.621  18.956  0.00  0.00    +0.000 N 
ATOM     25  H   UNL     1      -3.513  13.175  18.297  0.00  0.00    +0.000 HD
ATOM     26  H   UNL     1      -2.979  11.663  18.617  0.00  0.00    +0.000 HD
ENDBRANCH   2  24
BRANCH   3  27
ATOM     27  C   UNL     1      -5.695  12.176  19.278  0.00  0.00    +0.000 C 
BRANCH  27  28
ATOM     28  C   UNL     1      -6.162  13.424  18.541  0.00  0.00    +0.000 A 
ATOM     29  C   UNL     1      -6.427  13.361  17.163  0.00  0.00    +0.000 A 
ATOM     30  C   UNL     1      -7.018  14.441  16.500  0.00  0.00    +0.000 A 
ATOM     31  C   UNL     1      -7.345  15.599  17.202  0.00  0.00    +0.000 A 
ATOM     32  C   UNL     1      -7.057  15.689  18.561  0.00  0.00    +0.000 A 
ATOM     33  C   UNL     1      -6.470  14.609  19.225  0.00  0.00    +0.000 A 
ENDBRANCH  27  28
ENDBRANCH   3  27
TORSDOF 9
ENDMDL
MODEL 7
REMARK VINA RESULT:      -5.9      2.368      8.184
REMARK  Name = 
REMARK  10 active torsions:
REMARK  status: ('A' for Active; 'I' for Inactive)
REMARK    1  A    between atoms: C_1  and  O_2
REMARK    2  A    between atoms: O_2  and  C_3
REMARK    3  A    between atoms: C_3  and  C_4
REMARK    4  A    between atoms: C_4  and  C_5
REMARK    5  A    between atoms: C_5  and  N_6
REMARK    6  A    between atoms: N_6  and  C_15
REMARK    7  A    between atoms: C_7  and  C_9
REMARK    8  A    between atoms: C_16  and  N_17
REMARK    9  A    between atoms: N_18  and  C_19
REMARK   10  A    between atoms: C_19  and  C_20
REMARK                            x       y       z     vdW  Elec       q    Type
REMARK                         _______ _______ _______ _____ _____    ______ ____
ROOT
ATOM      1  C   UNL     1       1.023   9.797  19.583  0.00  0.00    +0.000 A 
ATOM      2  C   UNL     1       1.502   8.879  18.705  0.00  0.00    +0.000 A 
ATOM      3  N   UNL     1       1.861   7.611  19.144  0.00  0.00    +0.000 N 
ATOM      4  C   UNL     1       1.811   7.241  20.477  0.00  0.00    +0.000 A 
ATOM      5  O   UNL     1       2.194   6.153  20.910  0.00  0.00    +0.000 OA
ATOM      6  N   UNL     1       1.277   8.149  21.338  0.00  0.00    +0.000 N 
ATOM      7  C   UNL     1       0.748   9.352  20.986  0.00  0.00    +0.000 A 
ATOM      8  O   UNL     1       0.103  10.031  21.780  0.00  0.00    +0.000 OA
ATOM      9  H   UNL     1       1.149   7.841  22.291  0.00  0.00    +0.000 HD
ENDROOT
BRANCH   1  10
ATOM     10  N   UNL     1       0.738  11.119  19.206  0.00  0.00    +0.000 N 
ATOM     11  C   UNL     1      -0.427  11.458  18.496  0.00  0.00    +0.000 C 
ATOM     12  O   UNL     1      -0.557  12.567  17.970  0.00  0.00    +0.000 OA
BRANCH  11  13
ATOM     13  C   UNL     1      -1.616  10.465  18.499  0.00  0.00    +0.000 C 
ATOM     14  C   UNL     1      -2.914  11.094  19.022  0.00  0.00    +0.000 C 
ATOM     15  C   UNL     1      -3.635  11.950  17.986  0.00  0.00    +0.000 C 
ATOM     16  C   UNL     1      -3.866  11.193  16.684  0.00  0.00    +0.000 C 
ATOM     17  C   UNL     1      -2.562  10.657  16.112  0.00  0.00    +0.000 C 
ATOM     18  C   UNL     1      -1.807   9.801  17.125  0.00  0.00    +0.000 C 
ENDBRANCH  11  13
BRANCH  10  19
ATOM     19  C   UNL     1       1.899  12.040  19.121  0.00  0.00    +0.000 C 
BRANCH  19  20
ATOM     20  C   UNL     1       2.086  13.044  20.274  0.00  0.00    +0.000 C 
BRANCH  20  21
ATOM     21  C   UNL     1       2.976  14.237  19.950  0.00  0.00    +0.000 C 
BRANCH  21  23
ATOM     22  C   UNL     1       3.337  15.179  17.805  0.00  0.00    +0.000 C 
ATOM     23  O   UNL     1       3.533  14.046  18.648  0.00  0.00    +0.000 OA
ENDBRANCH  21  23
ENDBRANCH  20  21
ENDBRANCH  19  20
ENDBRANCH  10  19
ENDBRANCH   1  10
BRANCH   2  24
ATOM     24  N   UNL     1       1.728   9.204  17.384  0.00  0.00    +0.000 N 
ATOM     25  H   UNL     1       2.680   9.527  17.228  0.00  0.00    +0.000 HD
ATOM     26  H   UNL     1       1.107   9.947  17.078  0.00  0.00    +0.000 HD
ENDBRANCH   2  24
BRANCH   3  27
ATOM     27  C   UNL     1       2.385   6.625  18.185  0.00  0.00    +0.000 C 
BRANCH  27  28
ATOM     28  C   UNL     1       3.901   6.500  18.173  0.00  0.00    +0.000 A 
ATOM     29  C   UNL     1       4.532   5.586  19.035  0.00  0.00    +0.000 A 
ATOM     30  C   UNL     1       5.903   5.330  18.923  0.00  0.00    +0.000 A 
ATOM     31  C   UNL     1       6.661   5.986  17.957  0.00  0.00    +0.000 A 
ATOM     32  C   UNL     1       6.056   6.919  17.118  0.00  0.00    +0.000 A 
ATOM     33  C   UNL     1       4.687   7.174  17.227  0.00  0.00    +0.000 A 
ENDBRANCH  27  28
ENDBRANCH   3  27
TORSDOF 9
ENDMDL
MODEL 8
REMARK VINA RESULT:      -5.9      5.816      9.348
REMARK  Name = 
REMARK  10 active torsions:
REMARK  status: ('A' for Active; 'I' for Inactive)
REMARK    1  A    between atoms: C_1  and  O_2
REMARK    2  A    between atoms: O_2  and  C_3
REMARK    3  A    between atoms: C_3  and  C_4
REMARK    4  A    between atoms: C_4  and  C_5
REMARK    5  A    between atoms: C_5  and  N_6
REMARK    6  A    between atoms: N_6  and  C_15
REMARK    7  A    between atoms: C_7  and  C_9
REMARK    8  A    between atoms: C_16  and  N_17
REMARK    9  A    between atoms: N_18  and  C_19
REMARK   10  A    between atoms: C_19  and  C_20
REMARK                            x       y       z     vdW  Elec       q    Type
REMARK                         _______ _______ _______ _____ _____    ______ ____
ROOT
ATOM      1  C   UNL     1      -2.632  12.929  21.251  0.00  0.00    +0.000 A 
ATOM      2  C   UNL     1      -3.405  12.681  20.163  0.00  0.00    +0.000 A 
ATOM      3  N   UNL     1      -4.760  12.415  20.313  0.00  0.00    +0.000 N 
ATOM      4  C   UNL     1      -5.371  12.330  21.553  0.00  0.00    +0.000 A 
ATOM      5  O   UNL     1      -6.551  12.020  21.724  0.00  0.00    +0.000 OA
ATOM      6  N   UNL     1      -4.600  12.634  22.631  0.00  0.00    +0.000 N 
ATOM      7  C   UNL     1      -3.309  13.062  22.580  0.00  0.00    +0.000 A 
ATOM      8  O   UNL     1      -2.739  13.513  23.569  0.00  0.00    +0.000 OA
ATOM      9  H   UNL     1      -5.070  12.668  23.523  0.00  0.00    +0.000 HD
ENDROOT
BRANCH   1  10
ATOM     10  N   UNL     1      -1.242  13.106  21.160  0.00  0.00    +0.000 N 
ATOM     11  C   UNL     1      -0.337  12.063  21.426  0.00  0.00    +0.000 C 
ATOM     12  O   UNL     1       0.868  12.283  21.572  0.00  0.00    +0.000 OA
BRANCH  11  13
ATOM     13  C   UNL     1      -0.854  10.604  21.395  0.00  0.00    +0.000 C 
ATOM     14  C   UNL     1      -0.493   9.873  20.095  0.00  0.00    +0.000 C 
ATOM     15  C   UNL     1       0.943   9.361  20.064  0.00  0.00    +0.000 C 
ATOM     16  C   UNL     1       1.273   8.518  21.289  0.00  0.00    +0.000 C 
ATOM     17  C   UNL     1       1.011   9.282  22.579  0.00  0.00    +0.000 C 
ATOM     18  C   UNL     1      -0.416   9.817  22.642  0.00  0.00    +0.000 C 
ENDBRANCH  11  13
BRANCH  10  19
ATOM     19  C   UNL     1      -0.752  14.502  21.280  0.00  0.00    +0.000 C 
BRANCH  19  20
ATOM     20  C   UNL     1      -1.232  15.510  20.219  0.00  0.00    +0.000 C 
BRANCH  20  21
ATOM     21  C   UNL     1      -2.053  16.673  20.762  0.00  0.00    +0.000 C 
BRANCH  21  23
ATOM     22  C   UNL     1      -4.231  16.445  21.667  0.00  0.00    +0.000 C 
ATOM     23  O   UNL     1      -3.432  16.422  20.486  0.00  0.00    +0.000 OA
ENDBRANCH  21  23
ENDBRANCH  20  21
ENDBRANCH  19  20
ENDBRANCH  10  19
ENDBRANCH   1  10
BRANCH   2  24
ATOM     24  N   UNL     1      -2.856  12.598  18.901  0.00  0.00    +0.000 N 
ATOM     25  H   UNL     1      -2.017  12.022  18.886  0.00  0.00    +0.000 HD
ATOM     26  H   UNL     1      -2.594  13.516  18.553  0.00  0.00    +0.000 HD
ENDBRANCH   2  24
BRANCH   3  27
ATOM     27  C   UNL     1      -5.588  12.143  19.128  0.00  0.00    +0.000 C 
BRANCH  27  28
ATOM     28  C   UNL     1      -6.202  13.379  18.488  0.00  0.00    +0.000 A 
ATOM     29  C   UNL     1      -6.288  14.574  19.223  0.00  0.00    +0.000 A 
ATOM     30  C   UNL     1      -6.688  15.764  18.606  0.00  0.00    +0.000 A 
ATOM     31  C   UNL     1      -7.011  15.775  17.251  0.00  0.00    +0.000 A 
ATOM     32  C   UNL     1      -6.963  14.593  16.518  0.00  0.00    +0.000 A 
ATOM     33  C   UNL     1      -6.561  13.404  17.132  0.00  0.00    +0.000 A 
ENDBRANCH  27  28
ENDBRANCH   3  27
TORSDOF 9
ENDMDL
MODEL 9
REMARK VINA RESULT:      -5.9      2.207      8.138
REMARK  Name = 
REMARK  10 active torsions:
REMARK  status: ('A' for Active; 'I' for Inactive)
REMARK    1  A    between atoms: C_1  and  O_2
REMARK    2  A    between atoms: O_2  and  C_3
REMARK    3  A    between atoms: C_3  and  C_4
REMARK    4  A    between atoms: C_4  and  C_5
REMARK    5  A    between atoms: C_5  and  N_6
REMARK    6  A    between atoms: N_6  and  C_15
REMARK    7  A    between atoms: C_7  and  C_9
REMARK    8  A    between atoms: C_16  and  N_17
REMARK    9  A    between atoms: N_18  and  C_19
REMARK   10  A    between atoms: C_19  and  C_20
REMARK                            x       y       z     vdW  Elec       q    Type
REMARK                         _______ _______ _______ _____ _____    ______ ____
ROOT
ATOM      1  C   UNL     1       0.741   9.963  19.505  0.00  0.00    +0.000 A 
ATOM      2  C   UNL     1       1.570   9.325  18.639  0.00  0.00    +0.000 A 
ATOM      3  N   UNL     1       2.125   8.097  18.977  0.00  0.00    +0.000 N 
ATOM      4  C   UNL     1       1.919   7.499  20.209  0.00  0.00    +0.000 A 
ATOM      5  O   UNL     1       2.457   6.452  20.569  0.00  0.00    +0.000 OA
ATOM      6  N   UNL     1       1.044   8.120  21.045  0.00  0.00    +0.000 N 
ATOM      7  C   UNL     1       0.325   9.237  20.746  0.00  0.00    +0.000 A 
ATOM      8  O   UNL     1      -0.592   9.625  21.463  0.00  0.00    +0.000 OA
ATOM      9  H   UNL     1       0.818   7.633  21.900  0.00  0.00    +0.000 HD
ENDROOT
BRANCH   1  10
ATOM     10  N   UNL     1       0.233  11.248  19.250  0.00  0.00    +0.000 N 
ATOM     11  C   UNL     1      -0.903  11.455  18.448  0.00  0.00    +0.000 C 
ATOM     12  O   UNL     1      -1.202  12.581  18.040  0.00  0.00    +0.000 OA
BRANCH  11  13
ATOM     13  C   UNL     1      -1.862  10.266  18.194  0.00  0.00    +0.000 C 
ATOM     14  C   UNL     1      -3.310  10.574  18.599  0.00  0.00    +0.000 C 
ATOM     15  C   UNL     1      -4.067  11.401  17.566  0.00  0.00    +0.000 C 
ATOM     16  C   UNL     1      -3.996  10.779  16.177  0.00  0.00    +0.000 C 
ATOM     17  C   UNL     1      -2.555  10.569  15.733  0.00  0.00    +0.000 C 
ATOM     18  C   UNL     1      -1.762   9.751  16.748  0.00  0.00    +0.000 C 
ENDBRANCH  11  13
BRANCH  10  19
ATOM     19  C   UNL     1       1.188  12.372  19.411  0.00  0.00    +0.000 C 
BRANCH  19  20
ATOM     20  C   UNL     1       1.331  12.977  20.820  0.00  0.00    +0.000 C 
BRANCH  20  21
ATOM     21  C   UNL     1       0.032  13.091  21.607  0.00  0.00    +0.000 C 
BRANCH  21  23
ATOM     22  C   UNL     1       1.062  15.172  22.083  0.00  0.00    +0.000 C 
ATOM     23  O   UNL     1      -0.168  14.462  21.955  0.00  0.00    +0.000 OA
ENDBRANCH  21  23
ENDBRANCH  20  21
ENDBRANCH  19  20
ENDBRANCH  10  19
ENDBRANCH   1  10
BRANCH   2  24
ATOM     24  N   UNL     1       1.951   9.913  17.452  0.00  0.00    +0.000 N 
ATOM     25  H   UNL     1       1.206  10.473  17.045  0.00  0.00    +0.000 HD
ATOM     26  H   UNL     1       2.210   9.214  16.762  0.00  0.00    +0.000 HD
ENDBRANCH   2  24
BRANCH   3  27
ATOM     27  C   UNL     1       3.027   7.418  18.034  0.00  0.00    +0.000 C 
BRANCH  27  28
ATOM     28  C   UNL     1       2.810   5.915  17.926  0.00  0.00    +0.000 A 
ATOM     29  C   UNL     1       3.894   5.039  18.107  0.00  0.00    +0.000 A 
ATOM     30  C   UNL     1       3.690   3.658  18.182  0.00  0.00    +0.000 A 
ATOM     31  C   UNL     1       2.405   3.133  18.072  0.00  0.00    +0.000 A 
ATOM     32  C   UNL     1       1.325   3.986  17.859  0.00  0.00    +0.000 A 
ATOM     33  C   UNL     1       1.527   5.366  17.786  0.00  0.00    +0.000 A 
ENDBRANCH  27  28
ENDBRANCH   3  27
TORSDOF 9
ENDMDL
