MODEL 1
REMARK VINA RESULT:      -8.4      0.000      0.000
REMARK  Name = 
REMARK  7 active torsions:
REMARK  status: ('A' for Active; 'I' for Inactive)
REMARK    1  A    between atoms: C_1  and  C_2
REMARK    2  A    between atoms: C_2  and  C_3
REMARK    3  A    between atoms: C_3  and  C_4
REMARK    4  A    between atoms: C_4  and  C_5
REMARK    5  A    between atoms: C_16  and  N_17
REMARK    6  A    between atoms: N_17  and  C_18
REMARK    7  A    between atoms: C_18  and  C_19
REMARK                            x       y       z     vdW  Elec       q    Type
REMARK                         _______ _______ _______ _____ _____    ______ ____
ROOT
ATOM      1  C   UNL     1       4.963   4.623  17.813  0.00  0.00    +0.000 C 
ATOM      2  O   UNL     1       6.079   4.307  16.964  0.00  0.00    +0.000 OA
ATOM      3  S   UNL     1       6.369   5.412  15.806  0.00  0.00    +0.000 S 
ATOM      4  O   UNL     1       7.570   6.140  16.141  0.00  0.00    +0.000 OA
ATOM      5  O   UNL     1       6.191   4.777  14.517  0.00  0.00    +0.000 OA
ATOM      6  C   UNL     1       4.992   6.378  16.156  0.00  0.00    +0.000 C 
ATOM      7  C   UNL     1       4.304   5.872  17.187  0.00  0.00    +0.000 C 
ENDROOT
BRANCH   1   9
ATOM      8  C   UNL     1       6.907   5.500  19.309  0.00  0.00    +0.000 C 
ATOM      9  C   UNL     1       5.506   4.903  19.237  0.00  0.00    +0.000 C 
ENDBRANCH   1   9
BRANCH   7  10
ATOM     10  N   UNL     1       3.171   6.448  17.757  0.00  0.00    +0.000 N 
ATOM     11  H   UNL     1       3.101   6.178  18.743  0.00  0.00    +0.000 HD
BRANCH  10  12
ATOM     12  C   UNL     1       2.959   7.907  17.726  0.00  0.00    +0.000 C 
BRANCH  12  13
ATOM     13  C   UNL     1       2.052   8.349  18.854  0.00  0.00    +0.000 A 
ATOM     14  C   UNL     1       1.227   9.473  18.688  0.00  0.00    +0.000 A 
ATOM     15  C   UNL     1       0.378   9.895  19.715  0.00  0.00    +0.000 A 
ATOM     16  C   UNL     1       0.335   9.195  20.918  0.00  0.00    +0.000 A 
ATOM     17  C   UNL     1       1.122   8.058  21.086  0.00  0.00    +0.000 A 
ATOM     18  C   UNL     1       1.963   7.631  20.056  0.00  0.00    +0.000 A 
ENDBRANCH  12  13
ENDBRANCH  10  12
ENDBRANCH   7  10
BRANCH   1  19
ATOM     19  C   UNL     1       3.983   3.413  17.832  0.00  0.00    +0.000 C 
BRANCH  19  20
ATOM     20  C   UNL     1       3.073   3.328  19.045  0.00  0.00    +0.000 A 
ATOM     21  C   UNL     1       1.782   3.878  19.027  0.00  0.00    +0.000 A 
ATOM     22  C   UNL     1       0.973   3.835  20.166  0.00  0.00    +0.000 A 
ATOM     23  C   UNL     1       1.436   3.226  21.329  0.00  0.00    +0.000 A 
ATOM     24  C   UNL     1       2.709   2.660  21.355  0.00  0.00    +0.000 A 
ATOM     25  C   UNL     1       3.523   2.712  20.222  0.00  0.00    +0.000 A 
ENDBRANCH  19  20
ENDBRANCH   1  19
TORSDOF 6
ENDMDL
MODEL 2
REMARK VINA RESULT:      -8.4      3.016      5.713
REMARK  Name = 
REMARK  7 active torsions:
REMARK  status: ('A' for Active; 'I' for Inactive)
REMARK    1  A    between atoms: C_1  and  C_2
REMARK    2  A    between atoms: C_2  and  C_3
REMARK    3  A    between atoms: C_3  and  C_4
REMARK    4  A    between atoms: C_4  and  C_5
REMARK    5  A    between atoms: C_16  and  N_17
REMARK    6  A    between atoms: N_17  and  C_18
REMARK    7  A    between atoms: C_18  and  C_19
REMARK                            x       y       z     vdW  Elec       q    Type
REMARK                         _______ _______ _______ _____ _____    ______ ____
ROOT
ATOM      1  C   UNL     1       5.415   4.690  18.744  0.00  0.00    +0.000 C 
ATOM      2  O   UNL     1       6.263   5.433  19.636  0.00  0.00    +0.000 OA
ATOM      3  S   UNL     1       7.762   5.698  19.064  0.00  0.00    +0.000 S 
ATOM      4  O   UNL     1       7.890   7.092  18.708  0.00  0.00    +0.000 OA
ATOM      5  O   UNL     1       8.707   5.042  19.943  0.00  0.00    +0.000 OA
ATOM      6  C   UNL     1       7.562   4.755  17.642  0.00  0.00    +0.000 C 
ATOM      7  C   UNL     1       6.327   4.243  17.580  0.00  0.00    +0.000 C 
ENDROOT
BRANCH   1   9
ATOM      8  C   UNL     1       4.713   6.825  17.426  0.00  0.00    +0.000 C 
ATOM      9  C   UNL     1       4.278   5.629  18.267  0.00  0.00    +0.000 C 
ENDBRANCH   1   9
BRANCH   7  10
ATOM     10  N   UNL     1       5.825   3.482  16.527  0.00  0.00    +0.000 N 
ATOM     11  H   UNL     1       5.239   2.725  16.891  0.00  0.00    +0.000 HD
BRANCH  10  12
ATOM     12  C   UNL     1       5.046   4.103  15.440  0.00  0.00    +0.000 C 
BRANCH  12  13
ATOM     13  C   UNL     1       5.851   4.165  14.160  0.00  0.00    +0.000 A 
ATOM     14  C   UNL     1       6.968   5.013  14.078  0.00  0.00    +0.000 A 
ATOM     15  C   UNL     1       7.729   5.082  12.907  0.00  0.00    +0.000 A 
ATOM     16  C   UNL     1       7.391   4.298  11.806  0.00  0.00    +0.000 A 
ATOM     17  C   UNL     1       6.307   3.427  11.885  0.00  0.00    +0.000 A 
ATOM     18  C   UNL     1       5.552   3.352  13.057  0.00  0.00    +0.000 A 
ENDBRANCH  12  13
ENDBRANCH  10  12
ENDBRANCH   7  10
BRANCH   1  19
ATOM     19  C   UNL     1       4.827   3.467  19.506  0.00  0.00    +0.000 C 
BRANCH  19  20
ATOM     20  C   UNL     1       3.311   3.383  19.536  0.00  0.00    +0.000 A 
ATOM     21  C   UNL     1       2.561   4.092  20.488  0.00  0.00    +0.000 A 
ATOM     22  C   UNL     1       1.170   3.967  20.535  0.00  0.00    +0.000 A 
ATOM     23  C   UNL     1       0.510   3.148  19.622  0.00  0.00    +0.000 A 
ATOM     24  C   UNL     1       1.241   2.452  18.662  0.00  0.00    +0.000 A 
ATOM     25  C   UNL     1       2.632   2.567  18.621  0.00  0.00    +0.000 A 
ENDBRANCH  19  20
ENDBRANCH   1  19
TORSDOF 6
ENDMDL
MODEL 3
REMARK VINA RESULT:      -8.4      2.972      5.690
REMARK  Name = 
REMARK  7 active torsions:
REMARK  status: ('A' for Active; 'I' for Inactive)
REMARK    1  A    between atoms: C_1  and  C_2
REMARK    2  A    between atoms: C_2  and  C_3
REMARK    3  A    between atoms: C_3  and  C_4
REMARK    4  A    between atoms: C_4  and  C_5
REMARK    5  A    between atoms: C_16  and  N_17
REMARK    6  A    between atoms: N_17  and  C_18
REMARK    7  A    between atoms: C_18  and  C_19
REMARK                            x       y       z     vdW  Elec       q    Type
REMARK                         _______ _______ _______ _____ _____    ______ ____
ROOT
ATOM      1  C   UNL     1       5.361   4.744  18.792  0.00  0.00    +0.000 C 
ATOM      2  O   UNL     1       6.259   5.473  19.647  0.00  0.00    +0.000 OA
ATOM      3  S   UNL     1       7.737   5.713  19.011  0.00  0.00    +0.000 S 
ATOM      4  O   UNL     1       7.871   7.104  18.648  0.00  0.00    +0.000 OA
ATOM      5  O   UNL     1       8.707   5.041  19.850  0.00  0.00    +0.000 OA
ATOM      6  C   UNL     1       7.460   4.772  17.600  0.00  0.00    +0.000 C 
ATOM      7  C   UNL     1       6.215   4.281  17.591  0.00  0.00    +0.000 C 
ENDROOT
BRANCH   1   9
ATOM      8  C   UNL     1       4.633   6.869  17.473  0.00  0.00    +0.000 C 
ATOM      9  C   UNL     1       4.221   5.701  18.363  0.00  0.00    +0.000 C 
ENDBRANCH   1   9
BRANCH   7  10
ATOM     10  N   UNL     1       5.656   3.528  16.561  0.00  0.00    +0.000 N 
ATOM     11  H   UNL     1       4.990   2.850  16.945  0.00  0.00    +0.000 HD
BRANCH  10  12
ATOM     12  C   UNL     1       4.962   4.175  15.432  0.00  0.00    +0.000 C 
BRANCH  12  13
ATOM     13  C   UNL     1       5.837   4.201  14.198  0.00  0.00    +0.000 A 
ATOM     14  C   UNL     1       5.503   3.408  13.088  0.00  0.00    +0.000 A 
ATOM     15  C   UNL     1       6.295   3.421  11.936  0.00  0.00    +0.000 A 
ATOM     16  C   UNL     1       7.425   4.233  11.873  0.00  0.00    +0.000 A 
ATOM     17  C   UNL     1       7.749   5.051  12.953  0.00  0.00    +0.000 A 
ATOM     18  C   UNL     1       6.954   5.045  14.100  0.00  0.00    +0.000 A 
ENDBRANCH  12  13
ENDBRANCH  10  12
ENDBRANCH   7  10
BRANCH   1  19
ATOM     19  C   UNL     1       4.786   3.531  19.580  0.00  0.00    +0.000 C 
BRANCH  19  20
ATOM     20  C   UNL     1       3.273   3.393  19.556  0.00  0.00    +0.000 A 
ATOM     21  C   UNL     1       2.627   2.632  18.571  0.00  0.00    +0.000 A 
ATOM     22  C   UNL     1       1.232   2.553  18.532  0.00  0.00    +0.000 A 
ATOM     23  C   UNL     1       0.468   3.219  19.487  0.00  0.00    +0.000 A 
ATOM     24  C   UNL     1       1.098   3.963  20.482  0.00  0.00    +0.000 A 
ATOM     25  C   UNL     1       2.491   4.052  20.515  0.00  0.00    +0.000 A 
ENDBRANCH  19  20
ENDBRANCH   1  19
TORSDOF 6
ENDMDL
MODEL 4
REMARK VINA RESULT:      -8.3      0.268      1.415
REMARK  Name = 
REMARK  7 active torsions:
REMARK  status: ('A' for Active; 'I' for Inactive)
REMARK    1  A    between atoms: C_1  and  C_2
REMARK    2  A    between atoms: C_2  and  C_3
REMARK    3  A    between atoms: C_3  and  C_4
REMARK    4  A    between atoms: C_4  and  C_5
REMARK    5  A    between atoms: C_16  and  N_17
REMARK    6  A    between atoms: N_17  and  C_18
REMARK    7  A    between atoms: C_18  and  C_19
REMARK                            x       y       z     vdW  Elec       q    Type
REMARK                         _______ _______ _______ _____ _____    ______ ____
ROOT
ATOM      1  C   UNL     1       4.896   4.446  17.701  0.00  0.00    +0.000 C 
ATOM      2  O   UNL     1       5.859   4.068  16.703  0.00  0.00    +0.000 OA
ATOM      3  S   UNL     1       6.177   5.229  15.610  0.00  0.00    +0.000 S 
ATOM      4  O   UNL     1       7.498   5.758  15.857  0.00  0.00    +0.000 OA
ATOM      5  O   UNL     1       5.776   4.747  14.305  0.00  0.00    +0.000 OA
ATOM      6  C   UNL     1       4.995   6.330  16.196  0.00  0.00    +0.000 C 
ATOM      7  C   UNL     1       4.357   5.824  17.257  0.00  0.00    +0.000 C 
ENDROOT
BRANCH   1   9
ATOM      8  C   UNL     1       6.717   5.570  19.186  0.00  0.00    +0.000 C 
ATOM      9  C   UNL     1       5.622   4.516  19.068  0.00  0.00    +0.000 C 
ENDBRANCH   1   9
BRANCH   7  10
ATOM     10  N   UNL     1       3.384   6.487  18.001  0.00  0.00    +0.000 N 
ATOM     11  H   UNL     1       3.630   6.467  18.996  0.00  0.00    +0.000 HD
BRANCH  10  12
ATOM     12  C   UNL     1       3.020   7.885  17.707  0.00  0.00    +0.000 C 
BRANCH  12  13
ATOM     13  C   UNL     1       2.031   8.415  18.723  0.00  0.00    +0.000 A 
ATOM     14  C   UNL     1       1.949   7.823  19.994  0.00  0.00    +0.000 A 
ATOM     15  C   UNL     1       1.046   8.300  20.949  0.00  0.00    +0.000 A 
ATOM     16  C   UNL     1       0.220   9.381  20.651  0.00  0.00    +0.000 A 
ATOM     17  C   UNL     1       0.314  10.001  19.408  0.00  0.00    +0.000 A 
ATOM     18  C   UNL     1       1.222   9.530  18.457  0.00  0.00    +0.000 A 
ENDBRANCH  12  13
ENDBRANCH  10  12
ENDBRANCH   7  10
BRANCH   1  19
ATOM     19  C   UNL     1       3.763   3.379  17.741  0.00  0.00    +0.000 C 
BRANCH  19  20
ATOM     20  C   UNL     1       2.950   3.335  19.023  0.00  0.00    +0.000 A 
ATOM     21  C   UNL     1       3.419   2.655  20.158  0.00  0.00    +0.000 A 
ATOM     22  C   UNL     1       2.639   2.581  21.316  0.00  0.00    +0.000 A 
ATOM     23  C   UNL     1       1.392   3.200  21.359  0.00  0.00    +0.000 A 
ATOM     24  C   UNL     1       0.923   3.892  20.246  0.00  0.00    +0.000 A 
ATOM     25  C   UNL     1       1.696   3.958  19.084  0.00  0.00    +0.000 A 
ENDBRANCH  19  20
ENDBRANCH   1  19
TORSDOF 6
ENDMDL
MODEL 5
REMARK VINA RESULT:      -8.2      1.175      1.761
REMARK  Name = 
REMARK  7 active torsions:
REMARK  status: ('A' for Active; 'I' for Inactive)
REMARK    1  A    between atoms: C_1  and  C_2
REMARK    2  A    between atoms: C_2  and  C_3
REMARK    3  A    between atoms: C_3  and  C_4
REMARK    4  A    between atoms: C_4  and  C_5
REMARK    5  A    between atoms: C_16  and  N_17
REMARK    6  A    between atoms: N_17  and  C_18
REMARK    7  A    between atoms: C_18  and  C_19
REMARK                            x       y       z     vdW  Elec       q    Type
REMARK                         _______ _______ _______ _____ _____    ______ ____
ROOT
ATOM      1  C   UNL     1       6.395   5.292  17.911  0.00  0.00    +0.000 C 
ATOM      2  O   UNL     1       7.058   4.476  16.931  0.00  0.00    +0.000 OA
ATOM      3  S   UNL     1       6.630   4.798  15.395  0.00  0.00    +0.000 S 
ATOM      4  O   UNL     1       7.723   5.470  14.734  0.00  0.00    +0.000 OA
ATOM      5  O   UNL     1       6.007   3.615  14.840  0.00  0.00    +0.000 OA
ATOM      6  C   UNL     1       5.413   5.940  15.804  0.00  0.00    +0.000 C 
ATOM      7  C   UNL     1       5.339   6.104  17.130  0.00  0.00    +0.000 C 
ENDROOT
BRANCH   1   9
ATOM      8  C   UNL     1       7.833   7.461  17.801  0.00  0.00    +0.000 C 
ATOM      9  C   UNL     1       7.457   6.203  18.576  0.00  0.00    +0.000 C 
ENDBRANCH   1   9
BRANCH   7  10
ATOM     10  N   UNL     1       4.497   7.002  17.783  0.00  0.00    +0.000 N 
ATOM     11  H   UNL     1       4.953   7.915  17.861  0.00  0.00    +0.000 HD
BRANCH  10  12
ATOM     12  C   UNL     1       3.138   7.276  17.281  0.00  0.00    +0.000 C 
BRANCH  12  13
ATOM     13  C   UNL     1       2.323   8.034  18.306  0.00  0.00    +0.000 A 
ATOM     14  C   UNL     1       1.627   9.194  17.926  0.00  0.00    +0.000 A 
ATOM     15  C   UNL     1       0.864   9.908  18.856  0.00  0.00    +0.000 A 
ATOM     16  C   UNL     1       0.778   9.466  20.174  0.00  0.00    +0.000 A 
ATOM     17  C   UNL     1       1.434   8.299  20.558  0.00  0.00    +0.000 A 
ATOM     18  C   UNL     1       2.189   7.582  19.628  0.00  0.00    +0.000 A 
ENDBRANCH  12  13
ENDBRANCH  10  12
ENDBRANCH   7  10
BRANCH   1  19
ATOM     19  C   UNL     1       5.729   4.368  18.973  0.00  0.00    +0.000 C 
BRANCH  19  20
ATOM     20  C   UNL     1       4.283   3.993  18.699  0.00  0.00    +0.000 A 
ATOM     21  C   UNL     1       3.912   3.343  17.512  0.00  0.00    +0.000 A 
ATOM     22  C   UNL     1       2.571   3.047  17.252  0.00  0.00    +0.000 A 
ATOM     23  C   UNL     1       1.588   3.382  18.180  0.00  0.00    +0.000 A 
ATOM     24  C   UNL     1       1.946   4.012  19.370  0.00  0.00    +0.000 A 
ATOM     25  C   UNL     1       3.284   4.318  19.627  0.00  0.00    +0.000 A 
ENDBRANCH  19  20
ENDBRANCH   1  19
TORSDOF 6
ENDMDL
MODEL 6
REMARK VINA RESULT:      -8.2      2.801      5.580
REMARK  Name = 
REMARK  7 active torsions:
REMARK  status: ('A' for Active; 'I' for Inactive)
REMARK    1  A    between atoms: C_1  and  C_2
REMARK    2  A    between atoms: C_2  and  C_3
REMARK    3  A    between atoms: C_3  and  C_4
REMARK    4  A    between atoms: C_4  and  C_5
REMARK    5  A    between atoms: C_16  and  N_17
REMARK    6  A    between atoms: N_17  and  C_18
REMARK    7  A    between atoms: C_18  and  C_19
REMARK                            x       y       z     vdW  Elec       q    Type
REMARK                         _______ _______ _______ _____ _____    ______ ____
ROOT
ATOM      1  C   UNL     1       3.421   3.983  19.337  0.00  0.00    +0.000 C 
ATOM      2  O   UNL     1       1.988   4.095  19.277  0.00  0.00    +0.000 OA
ATOM      3  S   UNL     1       1.335   3.554  17.889  0.00  0.00    +0.000 S 
ATOM      4  O   UNL     1       0.651   2.308  18.146  0.00  0.00    +0.000 OA
ATOM      5  O   UNL     1       0.683   4.666  17.230  0.00  0.00    +0.000 OA
ATOM      6  C   UNL     1       2.837   3.239  17.116  0.00  0.00    +0.000 C 
ATOM      7  C   UNL     1       3.860   3.525  17.929  0.00  0.00    +0.000 C 
ENDROOT
BRANCH   1   9
ATOM      8  C   UNL     1       2.699   2.679  21.473  0.00  0.00    +0.000 C 
ATOM      9  C   UNL     1       3.777   2.942  20.427  0.00  0.00    +0.000 C 
ENDBRANCH   1   9
BRANCH   7  10
ATOM     10  N   UNL     1       5.206   3.326  17.627  0.00  0.00    +0.000 N 
ATOM     11  H   UNL     1       5.358   2.358  17.329  0.00  0.00    +0.000 HD
BRANCH  10  12
ATOM     12  C   UNL     1       5.897   4.165  16.630  0.00  0.00    +0.000 C 
BRANCH  12  13
ATOM     13  C   UNL     1       6.671   5.280  17.299  0.00  0.00    +0.000 A 
ATOM     14  C   UNL     1       7.358   5.032  18.499  0.00  0.00    +0.000 A 
ATOM     15  C   UNL     1       8.083   6.046  19.132  0.00  0.00    +0.000 A 
ATOM     16  C   UNL     1       8.141   7.319  18.568  0.00  0.00    +0.000 A 
ATOM     17  C   UNL     1       7.494   7.571  17.361  0.00  0.00    +0.000 A 
ATOM     18  C   UNL     1       6.776   6.556  16.725  0.00  0.00    +0.000 A 
ENDBRANCH  12  13
ENDBRANCH  10  12
ENDBRANCH   7  10
BRANCH   1  19
ATOM     19  C   UNL     1       4.022   5.374  19.695  0.00  0.00    +0.000 C 
BRANCH  19  20
ATOM     20  C   UNL     1       3.214   6.575  19.233  0.00  0.00    +0.000 A 
ATOM     21  C   UNL     1       2.283   7.195  20.079  0.00  0.00    +0.000 A 
ATOM     22  C   UNL     1       1.513   8.269  19.625  0.00  0.00    +0.000 A 
ATOM     23  C   UNL     1       1.675   8.746  18.326  0.00  0.00    +0.000 A 
ATOM     24  C   UNL     1       2.609   8.149  17.481  0.00  0.00    +0.000 A 
ATOM     25  C   UNL     1       3.372   7.069  17.930  0.00  0.00    +0.000 A 
ENDBRANCH  19  20
ENDBRANCH   1  19
TORSDOF 6
ENDMDL
MODEL 7
REMARK VINA RESULT:      -8.1      0.556      1.015
REMARK  Name = 
REMARK  7 active torsions:
REMARK  status: ('A' for Active; 'I' for Inactive)
REMARK    1  A    between atoms: C_1  and  C_2
REMARK    2  A    between atoms: C_2  and  C_3
REMARK    3  A    between atoms: C_3  and  C_4
REMARK    4  A    between atoms: C_4  and  C_5
REMARK    5  A    between atoms: C_16  and  N_17
REMARK    6  A    between atoms: N_17  and  C_18
REMARK    7  A    between atoms: C_18  and  C_19
REMARK                            x       y       z     vdW  Elec       q    Type
REMARK                         _______ _______ _______ _____ _____    ______ ____
ROOT
ATOM      1  C   UNL     1       5.343   4.698  17.918  0.00  0.00    +0.000 C 
ATOM      2  O   UNL     1       6.467   4.403  17.071  0.00  0.00    +0.000 OA
ATOM      3  S   UNL     1       6.596   5.373  15.772  0.00  0.00    +0.000 S 
ATOM      4  O   UNL     1       7.710   6.271  15.965  0.00  0.00    +0.000 OA
ATOM      5  O   UNL     1       6.463   4.560  14.582  0.00  0.00    +0.000 OA
ATOM      6  C   UNL     1       5.124   6.214  16.052  0.00  0.00    +0.000 C 
ATOM      7  C   UNL     1       4.527   5.771  17.165  0.00  0.00    +0.000 C 
ENDROOT
BRANCH   1   9
ATOM      8  C   UNL     1       7.359   5.613  19.293  0.00  0.00    +0.000 C 
ATOM      9  C   UNL     1       5.885   5.221  19.272  0.00  0.00    +0.000 C 
ENDBRANCH   1   9
BRANCH   7  10
ATOM     10  N   UNL     1       3.348   6.284  17.703  0.00  0.00    +0.000 N 
ATOM     11  H   UNL     1       3.295   6.065  18.702  0.00  0.00    +0.000 HD
BRANCH  10  12
ATOM     12  C   UNL     1       3.018   7.717  17.590  0.00  0.00    +0.000 C 
BRANCH  12  13
ATOM     13  C   UNL     1       2.166   8.172  18.755  0.00  0.00    +0.000 A 
ATOM     14  C   UNL     1       1.391   9.337  18.641  0.00  0.00    +0.000 A 
ATOM     15  C   UNL     1       0.593   9.773  19.704  0.00  0.00    +0.000 A 
ATOM     16  C   UNL     1       0.551   9.045  20.890  0.00  0.00    +0.000 A 
ATOM     17  C   UNL     1       1.287   7.868  21.006  0.00  0.00    +0.000 A 
ATOM     18  C   UNL     1       2.077   7.428  19.942  0.00  0.00    +0.000 A 
ENDBRANCH  12  13
ENDBRANCH  10  12
ENDBRANCH   7  10
BRANCH   1  19
ATOM     19  C   UNL     1       4.514   3.398  18.129  0.00  0.00    +0.000 C 
BRANCH  19  20
ATOM     20  C   UNL     1       3.264   3.550  18.978  0.00  0.00    +0.000 A 
ATOM     21  C   UNL     1       3.345   3.856  20.345  0.00  0.00    +0.000 A 
ATOM     22  C   UNL     1       2.188   3.946  21.124  0.00  0.00    +0.000 A 
ATOM     23  C   UNL     1       0.938   3.747  20.544  0.00  0.00    +0.000 A 
ATOM     24  C   UNL     1       0.842   3.459  19.185  0.00  0.00    +0.000 A 
ATOM     25  C   UNL     1       1.998   3.359  18.407  0.00  0.00    +0.000 A 
ENDBRANCH  19  20
ENDBRANCH   1  19
TORSDOF 6
ENDMDL
MODEL 8
REMARK VINA RESULT:      -8.1      1.088      1.872
REMARK  Name = 
REMARK  7 active torsions:
REMARK  status: ('A' for Active; 'I' for Inactive)
REMARK    1  A    between atoms: C_1  and  C_2
REMARK    2  A    between atoms: C_2  and  C_3
REMARK    3  A    between atoms: C_3  and  C_4
REMARK    4  A    between atoms: C_4  and  C_5
REMARK    5  A    between atoms: C_16  and  N_17
REMARK    6  A    between atoms: N_17  and  C_18
REMARK    7  A    between atoms: C_18  and  C_19
REMARK                            x       y       z     vdW  Elec       q    Type
REMARK                         _______ _______ _______ _____ _____    ______ ____
ROOT
ATOM      1  C   UNL     1       6.217   5.075  18.139  0.00  0.00    +0.000 C 
ATOM      2  O   UNL     1       6.925   4.329  17.135  0.00  0.00    +0.000 OA
ATOM      3  S   UNL     1       6.500   4.697  15.608  0.00  0.00    +0.000 S 
ATOM      4  O   UNL     1       7.572   5.441  14.989  0.00  0.00    +0.000 OA
ATOM      5  O   UNL     1       5.933   3.514  14.996  0.00  0.00    +0.000 OA
ATOM      6  C   UNL     1       5.232   5.770  16.048  0.00  0.00    +0.000 C 
ATOM      7  C   UNL     1       5.137   5.875  17.379  0.00  0.00    +0.000 C 
ENDROOT
BRANCH   1   9
ATOM      8  C   UNL     1       7.760   7.172  18.033  0.00  0.00    +0.000 C 
ATOM      9  C   UNL     1       7.233   6.001  18.855  0.00  0.00    +0.000 C 
ENDBRANCH   1   9
BRANCH   7  10
ATOM     10  N   UNL     1       4.251   6.709  18.058  0.00  0.00    +0.000 N 
ATOM     11  H   UNL     1       4.771   7.360  18.653  0.00  0.00    +0.000 HD
BRANCH  10  12
ATOM     12  C   UNL     1       3.267   7.531  17.330  0.00  0.00    +0.000 C 
BRANCH  12  13
ATOM     13  C   UNL     1       2.308   8.206  18.286  0.00  0.00    +0.000 A 
ATOM     14  C   UNL     1       2.168   7.719  19.596  0.00  0.00    +0.000 A 
ATOM     15  C   UNL     1       1.292   8.330  20.497  0.00  0.00    +0.000 A 
ATOM     16  C   UNL     1       0.551   9.443  20.106  0.00  0.00    +0.000 A 
ATOM     17  C   UNL     1       0.704   9.959  18.821  0.00  0.00    +0.000 A 
ATOM     18  C   UNL     1       1.586   9.353  17.923  0.00  0.00    +0.000 A 
ENDBRANCH  12  13
ENDBRANCH  10  12
ENDBRANCH   7  10
BRANCH   1  19
ATOM     19  C   UNL     1       5.579   4.081  19.153  0.00  0.00    +0.000 C 
BRANCH  19  20
ATOM     20  C   UNL     1       4.133   3.704  18.878  0.00  0.00    +0.000 A 
ATOM     21  C   UNL     1       3.091   4.181  19.687  0.00  0.00    +0.000 A 
ATOM     22  C   UNL     1       1.770   3.788  19.452  0.00  0.00    +0.000 A 
ATOM     23  C   UNL     1       1.474   2.929  18.397  0.00  0.00    +0.000 A 
ATOM     24  C   UNL     1       2.498   2.462  17.576  0.00  0.00    +0.000 A 
ATOM     25  C   UNL     1       3.819   2.845  17.816  0.00  0.00    +0.000 A 
ENDBRANCH  19  20
ENDBRANCH   1  19
TORSDOF 6
ENDMDL
MODEL 9
REMARK VINA RESULT:      -8.0      2.917      5.730
REMARK  Name = 
REMARK  7 active torsions:
REMARK  status: ('A' for Active; 'I' for Inactive)
REMARK    1  A    between atoms: C_1  and  C_2
REMARK    2  A    between atoms: C_2  and  C_3
REMARK    3  A    between atoms: C_3  and  C_4
REMARK    4  A    between atoms: C_4  and  C_5
REMARK    5  A    between atoms: C_16  and  N_17
REMARK    6  A    between atoms: N_17  and  C_18
REMARK    7  A    between atoms: C_18  and  C_19
REMARK                            x       y       z     vdW  Elec       q    Type
REMARK                         _______ _______ _______ _____ _____    ______ ____
ROOT
ATOM      1  C   UNL     1       5.343   4.667  18.749  0.00  0.00    +0.000 C 
ATOM      2  O   UNL     1       6.171   5.449  19.627  0.00  0.00    +0.000 OA
ATOM      3  S   UNL     1       7.663   5.743  19.049  0.00  0.00    +0.000 S 
ATOM      4  O   UNL     1       7.753   7.132  18.666  0.00  0.00    +0.000 OA
ATOM      5  O   UNL     1       8.625   5.129  19.940  0.00  0.00    +0.000 OA
ATOM      6  C   UNL     1       7.487   4.768  17.645  0.00  0.00    +0.000 C 
ATOM      7  C   UNL     1       6.267   4.222  17.594  0.00  0.00    +0.000 C 
ENDROOT
BRANCH   1   9
ATOM      8  C   UNL     1       3.678   6.608  19.249  0.00  0.00    +0.000 C 
ATOM      9  C   UNL     1       4.182   5.566  18.255  0.00  0.00    +0.000 C 
ENDBRANCH   1   9
BRANCH   7  10
ATOM     10  N   UNL     1       5.784   3.428  16.556  0.00  0.00    +0.000 N 
ATOM     11  H   UNL     1       5.194   2.681  16.933  0.00  0.00    +0.000 HD
BRANCH  10  12
ATOM     12  C   UNL     1       5.023   4.013  15.437  0.00  0.00    +0.000 C 
BRANCH  12  13
ATOM     13  C   UNL     1       5.881   4.127  14.196  0.00  0.00    +0.000 A 
ATOM     14  C   UNL     1       5.568   3.367  13.057  0.00  0.00    +0.000 A 
ATOM     15  C   UNL     1       6.345   3.460  11.899  0.00  0.00    +0.000 A 
ATOM     16  C   UNL     1       7.438   4.322  11.858  0.00  0.00    +0.000 A 
ATOM     17  C   UNL     1       7.741   5.108  12.967  0.00  0.00    +0.000 A 
ATOM     18  C   UNL     1       6.960   5.021  14.121  0.00  0.00    +0.000 A 
ENDBRANCH  12  13
ENDBRANCH  10  12
ENDBRANCH   7  10
BRANCH   1  19
ATOM     19  C   UNL     1       4.788   3.444  19.536  0.00  0.00    +0.000 C 
BRANCH  19  20
ATOM     20  C   UNL     1       3.278   3.274  19.500  0.00  0.00    +0.000 A 
ATOM     21  C   UNL     1       2.479   3.640  20.594  0.00  0.00    +0.000 A 
ATOM     22  C   UNL     1       1.097   3.434  20.567  0.00  0.00    +0.000 A 
ATOM     23  C   UNL     1       0.496   2.876  19.441  0.00  0.00    +0.000 A 
ATOM     24  C   UNL     1       1.276   2.524  18.342  0.00  0.00    +0.000 A 
ATOM     25  C   UNL     1       2.658   2.720  18.372  0.00  0.00    +0.000 A 
ENDBRANCH  19  20
ENDBRANCH   1  19
TORSDOF 6
ENDMDL
