MODEL 1
REMARK VINA RESULT:      -7.1      0.000      0.000
REMARK  Name = 
REMARK  9 active torsions:
REMARK  status: ('A' for Active; 'I' for Inactive)
REMARK    1  A    between atoms: C_1  and  O_2
REMARK    2  A    between atoms: O_2  and  C_3
REMARK    3  A    between atoms: C_9  and  C_10
REMARK    4  A    between atoms: C_13  and  C_14
REMARK    5  A    between atoms: C_14  and  N_15
REMARK    6  A    between atoms: C_20  and  O_21
REMARK    7  A    between atoms: O_21  and  C_22
REMARK    8  A    between atoms: C_23  and  O_24
REMARK    9  A    between atoms: O_24  and  C_25
REMARK                            x       y       z     vdW  Elec       q    Type
REMARK                         _______ _______ _______ _____ _____    ______ ____
ROOT
ATOM      1  C   UNL     1       4.353   4.414  17.700  0.00  0.00    +0.000 A 
ATOM      2  C   UNL     1       4.077   5.746  17.332  0.00  0.00    +0.000 A 
ATOM      3  C   UNL     1       3.299   6.572  18.142  0.00  0.00    +0.000 A 
ATOM      4  C   UNL     1       2.971   7.887  17.757  0.00  0.00    +0.000 A 
ATOM      5  O   UNL     1       3.370   8.349  16.701  0.00  0.00    +0.000 OA
ATOM      6  N   UNL     1       2.176   8.651  18.569  0.00  0.00    +0.000 N 
ATOM      7  C   UNL     1       1.736   8.169  19.765  0.00  0.00    +0.000 A 
ATOM      8  N   UNL     1       2.070   6.912  20.144  0.00  0.00    +0.000 NA
ATOM      9  C   UNL     1       2.807   6.087  19.364  0.00  0.00    +0.000 A 
ATOM     10  C   UNL     1       3.060   4.753  19.758  0.00  0.00    +0.000 A 
ATOM     11  C   UNL     1       3.818   3.913  18.925  0.00  0.00    +0.000 A 
ATOM     12  H   UNL     1       1.937   9.620  18.264  0.00  0.00    +0.000 HD
ENDROOT
BRANCH   7  13
ATOM     13  C   UNL     1       0.869   8.962  20.655  0.00  0.00    +0.000 A 
ATOM     14  C   UNL     1       0.823   8.702  22.035  0.00  0.00    +0.000 A 
ATOM     15  C   UNL     1       0.040   9.496  22.872  0.00  0.00    +0.000 A 
ATOM     16  C   UNL     1      -0.727  10.543  22.344  0.00  0.00    +0.000 A 
ATOM     17  C   UNL     1      -0.698  10.791  20.963  0.00  0.00    +0.000 A 
ATOM     18  C   UNL     1       0.106  10.017  20.129  0.00  0.00    +0.000 A 
BRANCH  16  19
ATOM     19  C   UNL     1      -1.562  11.406  23.244  0.00  0.00    +0.000 C 
BRANCH  19  20
ATOM     20  N   UNL     1      -1.174  12.804  23.098  0.00  0.00    +0.000 NA
ATOM     21  H   UNL     1      -1.143  13.050  22.081  0.00  0.00    +0.000 HD
ATOM     22  H   UNL     1      -0.212  12.926  23.491  0.00  0.00    +0.000 HD
ENDBRANCH  19  20
ENDBRANCH  16  19
ENDBRANCH   7  13
BRANCH   1  24
ATOM     23  C   UNL     1       5.781   4.062  15.759  0.00  0.00    +0.000 C 
ATOM     24  O   UNL     1       5.105   3.623  16.886  0.00  0.00    +0.000 OA
ENDBRANCH   1  24
BRANCH  10  25
ATOM     25  O   UNL     1       2.583   4.197  20.912  0.00  0.00    +0.000 OA
ATOM     26  C   UNL     1       1.394   3.532  21.121  0.00  0.00    +0.000 C 
ENDBRANCH  10  25
BRANCH  11  27
ATOM     27  O   UNL     1       3.974   2.635  19.368  0.00  0.00    +0.000 OA
ATOM     28  C   UNL     1       3.521   1.463  18.815  0.00  0.00    +0.000 C 
ENDBRANCH  11  27
TORSDOF 6
ENDMDL
MODEL 2
REMARK VINA RESULT:      -7.1      2.692      8.175
REMARK  Name = 
REMARK  9 active torsions:
REMARK  status: ('A' for Active; 'I' for Inactive)
REMARK    1  A    between atoms: C_1  and  O_2
REMARK    2  A    between atoms: O_2  and  C_3
REMARK    3  A    between atoms: C_9  and  C_10
REMARK    4  A    between atoms: C_13  and  C_14
REMARK    5  A    between atoms: C_14  and  N_15
REMARK    6  A    between atoms: C_20  and  O_21
REMARK    7  A    between atoms: O_21  and  C_22
REMARK    8  A    between atoms: C_23  and  O_24
REMARK    9  A    between atoms: O_24  and  C_25
REMARK                            x       y       z     vdW  Elec       q    Type
REMARK                         _______ _______ _______ _____ _____    ______ ____
ROOT
ATOM      1  C   UNL     1       0.297   8.752  21.188  0.00  0.00    +0.000 A 
ATOM      2  C   UNL     1       0.915   7.489  21.276  0.00  0.00    +0.000 A 
ATOM      3  C   UNL     1       1.766   7.030  20.271  0.00  0.00    +0.000 A 
ATOM      4  C   UNL     1       2.345   5.747  20.323  0.00  0.00    +0.000 A 
ATOM      5  O   UNL     1       2.126   4.997  21.261  0.00  0.00    +0.000 OA
ATOM      6  N   UNL     1       3.148   5.325  19.298  0.00  0.00    +0.000 N 
ATOM      7  C   UNL     1       3.428   6.149  18.250  0.00  0.00    +0.000 A 
ATOM      8  N   UNL     1       2.888   7.391  18.212  0.00  0.00    +0.000 NA
ATOM      9  C   UNL     1       2.044   7.849  19.166  0.00  0.00    +0.000 A 
ATOM     10  C   UNL     1       1.434   9.119  19.044  0.00  0.00    +0.000 A 
ATOM     11  C   UNL     1       0.553   9.565  20.043  0.00  0.00    +0.000 A 
ATOM     12  H   UNL     1       3.562   4.368  19.349  0.00  0.00    +0.000 HD
ENDROOT
BRANCH   7  13
ATOM     13  C   UNL     1       4.279   5.721  17.125  0.00  0.00    +0.000 A 
ATOM     14  C   UNL     1       4.878   6.664  16.274  0.00  0.00    +0.000 A 
ATOM     15  C   UNL     1       5.725   6.246  15.249  0.00  0.00    +0.000 A 
ATOM     16  C   UNL     1       5.965   4.881  15.038  0.00  0.00    +0.000 A 
ATOM     17  C   UNL     1       5.350   3.936  15.874  0.00  0.00    +0.000 A 
ATOM     18  C   UNL     1       4.527   4.354  16.918  0.00  0.00    +0.000 A 
BRANCH  16  19
ATOM     19  C   UNL     1       6.883   4.428  13.941  0.00  0.00    +0.000 C 
BRANCH  19  20
ATOM     20  N   UNL     1       7.857   5.473  13.642  0.00  0.00    +0.000 NA
ATOM     21  H   UNL     1       7.356   6.378  13.483  0.00  0.00    +0.000 HD
ATOM     22  H   UNL     1       8.356   5.218  12.759  0.00  0.00    +0.000 HD
ENDBRANCH  19  20
ENDBRANCH  16  19
ENDBRANCH   7  13
BRANCH   1  24
ATOM     23  C   UNL     1      -0.133   9.604  23.428  0.00  0.00    +0.000 C 
ATOM     24  O   UNL     1      -0.540   9.173  22.176  0.00  0.00    +0.000 OA
ENDBRANCH   1  24
BRANCH  10  25
ATOM     25  O   UNL     1       1.624   9.955  17.980  0.00  0.00    +0.000 OA
ATOM     26  C   UNL     1       2.450  11.054  17.883  0.00  0.00    +0.000 C 
ENDBRANCH  10  25
BRANCH  11  27
ATOM     27  O   UNL     1      -0.018  10.781  19.818  0.00  0.00    +0.000 OA
ATOM     28  C   UNL     1      -1.264  11.077  19.327  0.00  0.00    +0.000 C 
ENDBRANCH  11  27
TORSDOF 6
ENDMDL
MODEL 3
REMARK VINA RESULT:      -7.0      3.558      8.593
REMARK  Name = 
REMARK  9 active torsions:
REMARK  status: ('A' for Active; 'I' for Inactive)
REMARK    1  A    between atoms: C_1  and  O_2
REMARK    2  A    between atoms: O_2  and  C_3
REMARK    3  A    between atoms: C_9  and  C_10
REMARK    4  A    between atoms: C_13  and  C_14
REMARK    5  A    between atoms: C_14  and  N_15
REMARK    6  A    between atoms: C_20  and  O_21
REMARK    7  A    between atoms: O_21  and  C_22
REMARK    8  A    between atoms: C_23  and  O_24
REMARK    9  A    between atoms: O_24  and  C_25
REMARK                            x       y       z     vdW  Elec       q    Type
REMARK                         _______ _______ _______ _____ _____    ______ ____
ROOT
ATOM      1  C   UNL     1      -1.757  12.069  21.934  0.00  0.00    +0.000 A 
ATOM      2  C   UNL     1      -0.833  11.228  22.587  0.00  0.00    +0.000 A 
ATOM      3  C   UNL     1      -0.072  10.303  21.874  0.00  0.00    +0.000 A 
ATOM      4  C   UNL     1       0.813   9.419  22.523  0.00  0.00    +0.000 A 
ATOM      5  O   UNL     1       0.949   9.446  23.735  0.00  0.00    +0.000 OA
ATOM      6  N   UNL     1       1.517   8.504  21.787  0.00  0.00    +0.000 N 
ATOM      7  C   UNL     1       1.402   8.467  20.430  0.00  0.00    +0.000 A 
ATOM      8  N   UNL     1       0.566   9.332  19.805  0.00  0.00    +0.000 NA
ATOM      9  C   UNL     1      -0.197  10.224  20.479  0.00  0.00    +0.000 A 
ATOM     10  C   UNL     1      -1.120  11.049  19.795  0.00  0.00    +0.000 A 
ATOM     11  C   UNL     1      -1.909  11.958  20.519  0.00  0.00    +0.000 A 
ATOM     12  H   UNL     1       2.162   7.852  22.285  0.00  0.00    +0.000 HD
ENDROOT
BRANCH   7  13
ATOM     13  C   UNL     1       2.135   7.486  19.610  0.00  0.00    +0.000 A 
ATOM     14  C   UNL     1       2.720   7.860  18.389  0.00  0.00    +0.000 A 
ATOM     15  C   UNL     1       3.457   6.935  17.652  0.00  0.00    +0.000 A 
ATOM     16  C   UNL     1       3.600   5.616  18.107  0.00  0.00    +0.000 A 
ATOM     17  C   UNL     1       2.999   5.235  19.316  0.00  0.00    +0.000 A 
ATOM     18  C   UNL     1       2.287   6.167  20.069  0.00  0.00    +0.000 A 
BRANCH  16  19
ATOM     19  C   UNL     1       4.402   4.621  17.321  0.00  0.00    +0.000 C 
BRANCH  19  20
ATOM     20  N   UNL     1       5.055   3.679  18.224  0.00  0.00    +0.000 NA
ATOM     21  H   UNL     1       5.974   4.075  18.531  0.00  0.00    +0.000 HD
ATOM     22  H   UNL     1       5.240   2.792  17.702  0.00  0.00    +0.000 HD
ENDBRANCH  19  20
ENDBRANCH  16  19
ENDBRANCH   7  13
BRANCH   1  24
ATOM     23  C   UNL     1      -3.411  12.612  23.637  0.00  0.00    +0.000 C 
ATOM     24  O   UNL     1      -2.498  12.956  22.653  0.00  0.00    +0.000 OA
ENDBRANCH   1  24
BRANCH  10  25
ATOM     25  O   UNL     1      -1.326  11.002  18.445  0.00  0.00    +0.000 OA
ATOM     26  C   UNL     1      -2.068  10.098  17.716  0.00  0.00    +0.000 C 
ENDBRANCH  10  25
BRANCH  11  27
ATOM     27  O   UNL     1      -2.797  12.679  19.781  0.00  0.00    +0.000 OA
ATOM     28  C   UNL     1      -4.164  12.570  19.720  0.00  0.00    +0.000 C 
ENDBRANCH  11  27
TORSDOF 6
ENDMDL
MODEL 4
REMARK VINA RESULT:      -6.9      3.483      8.452
REMARK  Name = 
REMARK  9 active torsions:
REMARK  status: ('A' for Active; 'I' for Inactive)
REMARK    1  A    between atoms: C_1  and  O_2
REMARK    2  A    between atoms: O_2  and  C_3
REMARK    3  A    between atoms: C_9  and  C_10
REMARK    4  A    between atoms: C_13  and  C_14
REMARK    5  A    between atoms: C_14  and  N_15
REMARK    6  A    between atoms: C_20  and  O_21
REMARK    7  A    between atoms: O_21  and  C_22
REMARK    8  A    between atoms: C_23  and  O_24
REMARK    9  A    between atoms: O_24  and  C_25
REMARK                            x       y       z     vdW  Elec       q    Type
REMARK                         _______ _______ _______ _____ _____    ______ ____
ROOT
ATOM      1  C   UNL     1      -1.502  12.059  21.754  0.00  0.00    +0.000 A 
ATOM      2  C   UNL     1      -0.600  11.233  22.455  0.00  0.00    +0.000 A 
ATOM      3  C   UNL     1       0.111  10.226  21.803  0.00  0.00    +0.000 A 
ATOM      4  C   UNL     1       0.972   9.359  22.504  0.00  0.00    +0.000 A 
ATOM      5  O   UNL     1       1.132   9.472  23.709  0.00  0.00    +0.000 OA
ATOM      6  N   UNL     1       1.626   8.363  21.829  0.00  0.00    +0.000 N 
ATOM      7  C   UNL     1       1.485   8.228  20.481  0.00  0.00    +0.000 A 
ATOM      8  N   UNL     1       0.672   9.076  19.805  0.00  0.00    +0.000 NA
ATOM      9  C   UNL     1      -0.043  10.047  20.420  0.00  0.00    +0.000 A 
ATOM     10  C   UNL     1      -0.945  10.855  19.690  0.00  0.00    +0.000 A 
ATOM     11  C   UNL     1      -1.684  11.847  20.354  0.00  0.00    +0.000 A 
ATOM     12  H   UNL     1       2.254   7.725  22.366  0.00  0.00    +0.000 HD
ENDROOT
BRANCH   7  13
ATOM     13  C   UNL     1       2.164   7.159  19.727  0.00  0.00    +0.000 A 
ATOM     14  C   UNL     1       2.128   5.828  20.173  0.00  0.00    +0.000 A 
ATOM     15  C   UNL     1       2.728   4.820  19.420  0.00  0.00    +0.000 A 
ATOM     16  C   UNL     1       3.394   5.127  18.226  0.00  0.00    +0.000 A 
ATOM     17  C   UNL     1       3.449   6.459  17.789  0.00  0.00    +0.000 A 
ATOM     18  C   UNL     1       2.824   7.464  18.526  0.00  0.00    +0.000 A 
BRANCH  16  19
ATOM     19  C   UNL     1       4.032   4.042  17.408  0.00  0.00    +0.000 C 
BRANCH  19  20
ATOM     20  N   UNL     1       5.445   3.923  17.748  0.00  0.00    +0.000 NA
ATOM     21  H   UNL     1       5.704   2.911  17.805  0.00  0.00    +0.000 HD
ATOM     22  H   UNL     1       5.597   4.352  18.690  0.00  0.00    +0.000 HD
ENDBRANCH  19  20
ENDBRANCH  16  19
ENDBRANCH   7  13
BRANCH   1  24
ATOM     23  C   UNL     1      -1.687  13.799  23.448  0.00  0.00    +0.000 C 
ATOM     24  O   UNL     1      -2.194  13.027  22.414  0.00  0.00    +0.000 OA
ENDBRANCH   1  24
BRANCH  10  25
ATOM     25  O   UNL     1      -1.178  10.715  18.350  0.00  0.00    +0.000 OA
ATOM     26  C   UNL     1      -2.091   9.903  17.714  0.00  0.00    +0.000 C 
ENDBRANCH  10  25
BRANCH  11  27
ATOM     27  O   UNL     1      -2.557  12.546  19.577  0.00  0.00    +0.000 OA
ATOM     28  C   UNL     1      -3.929  12.517  19.571  0.00  0.00    +0.000 C 
ENDBRANCH  11  27
TORSDOF 6
ENDMDL
MODEL 5
REMARK VINA RESULT:      -6.5      3.843      9.010
REMARK  Name = 
REMARK  9 active torsions:
REMARK  status: ('A' for Active; 'I' for Inactive)
REMARK    1  A    between atoms: C_1  and  O_2
REMARK    2  A    between atoms: O_2  and  C_3
REMARK    3  A    between atoms: C_9  and  C_10
REMARK    4  A    between atoms: C_13  and  C_14
REMARK    5  A    between atoms: C_14  and  N_15
REMARK    6  A    between atoms: C_20  and  O_21
REMARK    7  A    between atoms: O_21  and  C_22
REMARK    8  A    between atoms: C_23  and  O_24
REMARK    9  A    between atoms: O_24  and  C_25
REMARK                            x       y       z     vdW  Elec       q    Type
REMARK                         _______ _______ _______ _____ _____    ______ ____
ROOT
ATOM      1  C   UNL     1      -2.284  12.377  22.558  0.00  0.00    +0.000 A 
ATOM      2  C   UNL     1      -1.384  11.448  23.117  0.00  0.00    +0.000 A 
ATOM      3  C   UNL     1      -0.579  10.648  22.307  0.00  0.00    +0.000 A 
ATOM      4  C   UNL     1       0.284   9.677  22.854  0.00  0.00    +0.000 A 
ATOM      5  O   UNL     1       0.361   9.514  24.061  0.00  0.00    +0.000 OA
ATOM      6  N   UNL     1       1.033   8.890  22.020  0.00  0.00    +0.000 N 
ATOM      7  C   UNL     1       0.984   9.066  20.670  0.00  0.00    +0.000 A 
ATOM      8  N   UNL     1       0.170  10.014  20.147  0.00  0.00    +0.000 NA
ATOM      9  C   UNL     1      -0.635  10.787  20.912  0.00  0.00    +0.000 A 
ATOM     10  C   UNL     1      -1.533  11.706  20.321  0.00  0.00    +0.000 A 
ATOM     11  C   UNL     1      -2.366  12.488  21.138  0.00  0.00    +0.000 A 
ATOM     12  H   UNL     1       1.660   8.171  22.442  0.00  0.00    +0.000 HD
ENDROOT
BRANCH   7  13
ATOM     13  C   UNL     1       1.768   8.228  19.744  0.00  0.00    +0.000 A 
ATOM     14  C   UNL     1       2.111   8.693  18.465  0.00  0.00    +0.000 A 
ATOM     15  C   UNL     1       2.900   7.911  17.622  0.00  0.00    +0.000 A 
ATOM     16  C   UNL     1       3.334   6.643  18.032  0.00  0.00    +0.000 A 
ATOM     17  C   UNL     1       2.974   6.167  19.301  0.00  0.00    +0.000 A 
ATOM     18  C   UNL     1       2.211   6.960  20.157  0.00  0.00    +0.000 A 
BRANCH  16  19
ATOM     19  C   UNL     1       4.191   5.803  17.130  0.00  0.00    +0.000 C 
BRANCH  19  20
ATOM     20  N   UNL     1       3.874   4.391  17.311  0.00  0.00    +0.000 NA
ATOM     21  H   UNL     1       4.670   3.809  16.960  0.00  0.00    +0.000 HD
ATOM     22  H   UNL     1       3.028   4.164  16.740  0.00  0.00    +0.000 HD
ENDBRANCH  19  20
ENDBRANCH  16  19
ENDBRANCH   7  13
BRANCH   1  24
ATOM     23  C   UNL     1      -3.917  12.640  24.346  0.00  0.00    +0.000 C 
ATOM     24  O   UNL     1      -3.070  13.138  23.369  0.00  0.00    +0.000 OA
ENDBRANCH   1  24
BRANCH  10  25
ATOM     25  O   UNL     1      -1.673  11.871  18.972  0.00  0.00    +0.000 OA
ATOM     26  C   UNL     1      -0.932  12.658  18.117  0.00  0.00    +0.000 C 
ENDBRANCH  10  25
BRANCH  11  27
ATOM     27  O   UNL     1      -3.226  13.312  20.477  0.00  0.00    +0.000 OA
ATOM     28  C   UNL     1      -3.544  14.621  20.737  0.00  0.00    +0.000 C 
ENDBRANCH  11  27
TORSDOF 6
ENDMDL
MODEL 6
REMARK VINA RESULT:      -6.5      3.192      7.746
REMARK  Name = 
REMARK  9 active torsions:
REMARK  status: ('A' for Active; 'I' for Inactive)
REMARK    1  A    between atoms: C_1  and  O_2
REMARK    2  A    between atoms: O_2  and  C_3
REMARK    3  A    between atoms: C_9  and  C_10
REMARK    4  A    between atoms: C_13  and  C_14
REMARK    5  A    between atoms: C_14  and  N_15
REMARK    6  A    between atoms: C_20  and  O_21
REMARK    7  A    between atoms: O_21  and  C_22
REMARK    8  A    between atoms: C_23  and  O_24
REMARK    9  A    between atoms: O_24  and  C_25
REMARK                            x       y       z     vdW  Elec       q    Type
REMARK                         _______ _______ _______ _____ _____    ______ ____
ROOT
ATOM      1  C   UNL     1      -0.140  12.475  19.975  0.00  0.00    +0.000 A 
ATOM      2  C   UNL     1       0.684  11.889  18.994  0.00  0.00    +0.000 A 
ATOM      3  C   UNL     1       1.101  10.563  19.102  0.00  0.00    +0.000 A 
ATOM      4  C   UNL     1       1.970   9.984  18.156  0.00  0.00    +0.000 A 
ATOM      5  O   UNL     1       2.378  10.626  17.203  0.00  0.00    +0.000 OA
ATOM      6  N   UNL     1       2.380   8.687  18.318  0.00  0.00    +0.000 N 
ATOM      7  C   UNL     1       1.922   7.939  19.360  0.00  0.00    +0.000 A 
ATOM      8  N   UNL     1       1.069   8.490  20.257  0.00  0.00    +0.000 NA
ATOM      9  C   UNL     1       0.669   9.781  20.184  0.00  0.00    +0.000 A 
ATOM     10  C   UNL     1      -0.154  10.342  21.188  0.00  0.00    +0.000 A 
ATOM     11  C   UNL     1      -0.546  11.688  21.094  0.00  0.00    +0.000 A 
ATOM     12  H   UNL     1       3.031   8.277  17.613  0.00  0.00    +0.000 HD
ENDROOT
BRANCH   7  13
ATOM     13  C   UNL     1       2.353   6.545  19.571  0.00  0.00    +0.000 A 
ATOM     14  C   UNL     1       3.355   5.971  18.771  0.00  0.00    +0.000 A 
ATOM     15  C   UNL     1       3.791   4.671  19.018  0.00  0.00    +0.000 A 
ATOM     16  C   UNL     1       3.217   3.913  20.049  0.00  0.00    +0.000 A 
ATOM     17  C   UNL     1       2.201   4.477  20.835  0.00  0.00    +0.000 A 
ATOM     18  C   UNL     1       1.785   5.788  20.609  0.00  0.00    +0.000 A 
BRANCH  16  19
ATOM     19  C   UNL     1       3.692   2.516  20.324  0.00  0.00    +0.000 C 
BRANCH  19  20
ATOM     20  N   UNL     1       5.059   2.349  19.842  0.00  0.00    +0.000 NA
ATOM     21  H   UNL     1       5.695   2.185  20.658  0.00  0.00    +0.000 HD
ATOM     22  H   UNL     1       5.356   3.233  19.370  0.00  0.00    +0.000 HD
ENDBRANCH  19  20
ENDBRANCH  16  19
ENDBRANCH   7  13
BRANCH   1  24
ATOM     23  C   UNL     1      -0.035  14.662  18.908  0.00  0.00    +0.000 C 
ATOM     24  O   UNL     1      -0.523  13.776  19.855  0.00  0.00    +0.000 OA
ENDBRANCH   1  24
BRANCH  10  25
ATOM     25  O   UNL     1      -0.582   9.658  22.290  0.00  0.00    +0.000 OA
ATOM     26  C   UNL     1       0.068   9.456  23.488  0.00  0.00    +0.000 C 
ENDBRANCH  10  25
BRANCH  11  27
ATOM     27  O   UNL     1      -1.301  12.151  22.129  0.00  0.00    +0.000 OA
ATOM     28  C   UNL     1      -2.641  12.447  22.160  0.00  0.00    +0.000 C 
ENDBRANCH  11  27
TORSDOF 6
ENDMDL
MODEL 7
REMARK VINA RESULT:      -6.4      3.196      7.773
REMARK  Name = 
REMARK  9 active torsions:
REMARK  status: ('A' for Active; 'I' for Inactive)
REMARK    1  A    between atoms: C_1  and  O_2
REMARK    2  A    between atoms: O_2  and  C_3
REMARK    3  A    between atoms: C_9  and  C_10
REMARK    4  A    between atoms: C_13  and  C_14
REMARK    5  A    between atoms: C_14  and  N_15
REMARK    6  A    between atoms: C_20  and  O_21
REMARK    7  A    between atoms: O_21  and  C_22
REMARK    8  A    between atoms: C_23  and  O_24
REMARK    9  A    between atoms: O_24  and  C_25
REMARK                            x       y       z     vdW  Elec       q    Type
REMARK                         _______ _______ _______ _____ _____    ______ ____
ROOT
ATOM      1  C   UNL     1      -0.273  12.426  20.034  0.00  0.00    +0.000 A 
ATOM      2  C   UNL     1       0.540  11.829  19.051  0.00  0.00    +0.000 A 
ATOM      3  C   UNL     1       0.986  10.515  19.184  0.00  0.00    +0.000 A 
ATOM      4  C   UNL     1       1.845   9.927  18.234  0.00  0.00    +0.000 A 
ATOM      5  O   UNL     1       2.217  10.551  17.254  0.00  0.00    +0.000 OA
ATOM      6  N   UNL     1       2.285   8.644  18.422  0.00  0.00    +0.000 N 
ATOM      7  C   UNL     1       1.867   7.916  19.495  0.00  0.00    +0.000 A 
ATOM      8  N   UNL     1       1.024   8.475  20.396  0.00  0.00    +0.000 NA
ATOM      9  C   UNL     1       0.595   9.755  20.297  0.00  0.00    +0.000 A 
ATOM     10  C   UNL     1      -0.215  10.328  21.305  0.00  0.00    +0.000 A 
ATOM     11  C   UNL     1      -0.636  11.662  21.184  0.00  0.00    +0.000 A 
ATOM     12  H   UNL     1       2.927   8.227  17.713  0.00  0.00    +0.000 HD
ENDROOT
BRANCH   7  13
ATOM     13  C   UNL     1       2.331   6.537  19.733  0.00  0.00    +0.000 A 
ATOM     14  C   UNL     1       1.614   5.669  20.572  0.00  0.00    +0.000 A 
ATOM     15  C   UNL     1       2.036   4.352  20.743  0.00  0.00    +0.000 A 
ATOM     16  C   UNL     1       3.193   3.888  20.102  0.00  0.00    +0.000 A 
ATOM     17  C   UNL     1       3.923   4.760  19.280  0.00  0.00    +0.000 A 
ATOM     18  C   UNL     1       3.486   6.069  19.084  0.00  0.00    +0.000 A 
BRANCH  16  19
ATOM     19  C   UNL     1       3.644   2.467  20.276  0.00  0.00    +0.000 C 
BRANCH  19  20
ATOM     20  N   UNL     1       5.032   2.327  19.851  0.00  0.00    +0.000 NA
ATOM     21  H   UNL     1       5.149   2.754  18.903  0.00  0.00    +0.000 HD
ATOM     22  H   UNL     1       5.257   1.308  19.778  0.00  0.00    +0.000 HD
ENDBRANCH  19  20
ENDBRANCH  16  19
ENDBRANCH   7  13
BRANCH   1  24
ATOM     23  C   UNL     1       0.021  14.827  20.318  0.00  0.00    +0.000 C 
ATOM     24  O   UNL     1      -0.686  13.715  19.888  0.00  0.00    +0.000 OA
ENDBRANCH   1  24
BRANCH  10  25
ATOM     25  O   UNL     1      -0.603   9.666  22.436  0.00  0.00    +0.000 OA
ATOM     26  C   UNL     1       0.100   9.467  23.604  0.00  0.00    +0.000 C 
ENDBRANCH  10  25
BRANCH  11  27
ATOM     27  O   UNL     1      -1.377  12.138  22.223  0.00  0.00    +0.000 OA
ATOM     28  C   UNL     1      -2.727  12.373  22.291  0.00  0.00    +0.000 C 
ENDBRANCH  11  27
TORSDOF 6
ENDMDL
MODEL 8
REMARK VINA RESULT:      -6.3      4.213      8.821
REMARK  Name = 
REMARK  9 active torsions:
REMARK  status: ('A' for Active; 'I' for Inactive)
REMARK    1  A    between atoms: C_1  and  O_2
REMARK    2  A    between atoms: O_2  and  C_3
REMARK    3  A    between atoms: C_9  and  C_10
REMARK    4  A    between atoms: C_13  and  C_14
REMARK    5  A    between atoms: C_14  and  N_15
REMARK    6  A    between atoms: C_20  and  O_21
REMARK    7  A    between atoms: O_21  and  C_22
REMARK    8  A    between atoms: C_23  and  O_24
REMARK    9  A    between atoms: O_24  and  C_25
REMARK                            x       y       z     vdW  Elec       q    Type
REMARK                         _______ _______ _______ _____ _____    ______ ____
ROOT
ATOM      1  C   UNL     1      -3.309  12.689  19.949  0.00  0.00    +0.000 A 
ATOM      2  C   UNL     1      -2.111  12.528  20.673  0.00  0.00    +0.000 A 
ATOM      3  C   UNL     1      -1.158  11.586  20.289  0.00  0.00    +0.000 A 
ATOM      4  C   UNL     1       0.018  11.378  21.038  0.00  0.00    +0.000 A 
ATOM      5  O   UNL     1       0.243  12.028  22.045  0.00  0.00    +0.000 OA
ATOM      6  N   UNL     1       0.912  10.419  20.642  0.00  0.00    +0.000 N 
ATOM      7  C   UNL     1       0.697   9.695  19.508  0.00  0.00    +0.000 A 
ATOM      8  N   UNL     1      -0.423   9.910  18.778  0.00  0.00    +0.000 NA
ATOM      9  C   UNL     1      -1.371  10.804  19.143  0.00  0.00    +0.000 A 
ATOM     10  C   UNL     1      -2.567  10.937  18.399  0.00  0.00    +0.000 A 
ATOM     11  C   UNL     1      -3.540  11.865  18.807  0.00  0.00    +0.000 A 
ATOM     12  H   UNL     1       1.773  10.273  21.213  0.00  0.00    +0.000 HD
ENDROOT
BRANCH   7  13
ATOM     13  C   UNL     1       1.633   8.647  19.062  0.00  0.00    +0.000 A 
ATOM     14  C   UNL     1       2.269   8.732  17.813  0.00  0.00    +0.000 A 
ATOM     15  C   UNL     1       3.194   7.762  17.429  0.00  0.00    +0.000 A 
ATOM     16  C   UNL     1       3.477   6.679  18.272  0.00  0.00    +0.000 A 
ATOM     17  C   UNL     1       2.827   6.580  19.511  0.00  0.00    +0.000 A 
ATOM     18  C   UNL     1       1.925   7.565  19.909  0.00  0.00    +0.000 A 
BRANCH  16  19
ATOM     19  C   UNL     1       4.480   5.638  17.865  0.00  0.00    +0.000 C 
BRANCH  19  20
ATOM     20  N   UNL     1       4.459   4.527  18.810  0.00  0.00    +0.000 NA
ATOM     21  H   UNL     1       4.091   3.673  18.331  0.00  0.00    +0.000 HD
ATOM     22  H   UNL     1       3.809   4.768  19.593  0.00  0.00    +0.000 HD
ENDBRANCH  19  20
ENDBRANCH  16  19
ENDBRANCH   7  13
BRANCH   1  24
ATOM     23  C   UNL     1      -5.180  13.395  21.338  0.00  0.00    +0.000 C 
ATOM     24  O   UNL     1      -4.231  13.606  20.351  0.00  0.00    +0.000 OA
ENDBRANCH   1  24
BRANCH  10  25
ATOM     25  O   UNL     1      -2.864  10.186  17.297  0.00  0.00    +0.000 OA
ATOM     26  C   UNL     1      -2.529  10.416  15.980  0.00  0.00    +0.000 C 
ENDBRANCH  10  25
BRANCH  11  27
ATOM     27  O   UNL     1      -4.674  11.891  18.053  0.00  0.00    +0.000 OA
ATOM     28  C   UNL     1      -5.880  11.278  18.279  0.00  0.00    +0.000 C 
ENDBRANCH  11  27
TORSDOF 6
ENDMDL
MODEL 9
REMARK VINA RESULT:      -6.3      4.220      8.811
REMARK  Name = 
REMARK  9 active torsions:
REMARK  status: ('A' for Active; 'I' for Inactive)
REMARK    1  A    between atoms: C_1  and  O_2
REMARK    2  A    between atoms: O_2  and  C_3
REMARK    3  A    between atoms: C_9  and  C_10
REMARK    4  A    between atoms: C_13  and  C_14
REMARK    5  A    between atoms: C_14  and  N_15
REMARK    6  A    between atoms: C_20  and  O_21
REMARK    7  A    between atoms: O_21  and  C_22
REMARK    8  A    between atoms: C_23  and  O_24
REMARK    9  A    between atoms: O_24  and  C_25
REMARK                            x       y       z     vdW  Elec       q    Type
REMARK                         _______ _______ _______ _____ _____    ______ ____
ROOT
ATOM      1  C   UNL     1      -3.350  12.737  19.963  0.00  0.00    +0.000 A 
ATOM      2  C   UNL     1      -2.155  12.593  20.696  0.00  0.00    +0.000 A 
ATOM      3  C   UNL     1      -1.194  11.652  20.330  0.00  0.00    +0.000 A 
ATOM      4  C   UNL     1      -0.022  11.461  21.088  0.00  0.00    +0.000 A 
ATOM      5  O   UNL     1       0.194  12.127  22.087  0.00  0.00    +0.000 OA
ATOM      6  N   UNL     1       0.880  10.502  20.710  0.00  0.00    +0.000 N 
ATOM      7  C   UNL     1       0.676   9.761  19.585  0.00  0.00    +0.000 A 
ATOM      8  N   UNL     1      -0.442   9.960  18.846  0.00  0.00    +0.000 NA
ATOM      9  C   UNL     1      -1.397  10.853  19.194  0.00  0.00    +0.000 A 
ATOM     10  C   UNL     1      -2.589  10.969  18.441  0.00  0.00    +0.000 A 
ATOM     11  C   UNL     1      -3.569  11.896  18.831  0.00  0.00    +0.000 A 
ATOM     12  H   UNL     1       1.739  10.369  21.288  0.00  0.00    +0.000 HD
ENDROOT
BRANCH   7  13
ATOM     13  C   UNL     1       1.620   8.712  19.158  0.00  0.00    +0.000 A 
ATOM     14  C   UNL     1       1.868   7.592  19.968  0.00  0.00    +0.000 A 
ATOM     15  C   UNL     1       2.721   6.582  19.526  0.00  0.00    +0.000 A 
ATOM     16  C   UNL     1       3.360   6.686  18.283  0.00  0.00    +0.000 A 
ATOM     17  C   UNL     1       3.131   7.815  17.482  0.00  0.00    +0.000 A 
ATOM     18  C   UNL     1       2.255   8.811  17.909  0.00  0.00    +0.000 A 
BRANCH  16  19
ATOM     19  C   UNL     1       4.271   5.596  17.800  0.00  0.00    +0.000 C 
BRANCH  19  20
ATOM     20  N   UNL     1       3.495   4.404  17.474  0.00  0.00    +0.000 NA
ATOM     21  H   UNL     1       3.293   3.872  18.352  0.00  0.00    +0.000 HD
ATOM     22  H   UNL     1       4.070   3.794  16.848  0.00  0.00    +0.000 HD
ENDBRANCH  19  20
ENDBRANCH  16  19
ENDBRANCH   7  13
BRANCH   1  24
ATOM     23  C   UNL     1      -4.942  13.650  21.564  0.00  0.00    +0.000 C 
ATOM     24  O   UNL     1      -4.280  13.655  20.347  0.00  0.00    +0.000 OA
ENDBRANCH   1  24
BRANCH  10  25
ATOM     25  O   UNL     1      -2.876  10.201  17.348  0.00  0.00    +0.000 OA
ATOM     26  C   UNL     1      -2.534  10.413  16.030  0.00  0.00    +0.000 C 
ENDBRANCH  10  25
BRANCH  11  27
ATOM     27  O   UNL     1      -4.700  11.906  18.071  0.00  0.00    +0.000 OA
ATOM     28  C   UNL     1      -5.933  11.368  18.343  0.00  0.00    +0.000 C 
ENDBRANCH  11  27
TORSDOF 6
ENDMDL
