MODEL 1
REMARK VINA RESULT:      -8.3      0.000      0.000
REMARK  Name = 
REMARK  4 active torsions:
REMARK  status: ('A' for Active; 'I' for Inactive)
REMARK    1  A    between atoms: C_1  and  C_2
REMARK    2  A    between atoms: C_2  and  C_3
REMARK    3  A    between atoms: C_2  and  N_4
REMARK    4  A    between atoms: N_4  and  C_5
REMARK                            x       y       z     vdW  Elec       q    Type
REMARK                         _______ _______ _______ _____ _____    ______ ____
ROOT
ATOM      1  C   UNL     1       2.972   5.803  19.698  0.00  0.00    +0.000 A 
ATOM      2  N   UNL     1       4.037   5.344  19.024  0.00  0.00    +0.000 NA
ATOM      3  C   UNL     1       4.565   6.123  18.062  0.00  0.00    +0.000 A 
ATOM      4  N   UNL     1       5.765   5.748  17.507  0.00  0.00    +0.000 N 
ATOM      5  C   UNL     1       6.403   6.549  16.476  0.00  0.00    +0.000 C 
ATOM      6  C   UNL     1       6.830   5.522  15.433  0.00  0.00    +0.000 C 
ATOM      7  C   UNL     1       7.101   4.276  16.262  0.00  0.00    +0.000 C 
ATOM      8  C   UNL     1       6.031   4.329  17.353  0.00  0.00    +0.000 C 
ATOM      9  N   UNL     1       4.003   7.273  17.663  0.00  0.00    +0.000 NA
ATOM     10  C   UNL     1       2.901   7.698  18.308  0.00  0.00    +0.000 A 
ATOM     11  C   UNL     1       2.389   7.026  19.400  0.00  0.00    +0.000 A 
ATOM     12  C   UNL     1       1.236   7.574  20.194  0.00  0.00    +0.000 C 
ATOM     13  N   UNL     1       1.020   8.983  19.879  0.00  0.00    +0.000 N 
ATOM     14  C   UNL     1       0.307   9.722  20.794  0.00  0.00    +0.000 A 
ATOM     15  N   UNL     1       0.350   9.342  22.087  0.00  0.00    +0.000 NA
ATOM     16  C   UNL     1      -0.260  10.120  23.003  0.00  0.00    +0.000 A 
ATOM     17  C   UNL     1      -0.939  11.259  22.677  0.00  0.00    +0.000 A 
ATOM     18  F   UNL     1      -1.543  12.017  23.598  0.00  0.00    +0.000 F 
ATOM     19  C   UNL     1      -0.957  11.572  21.345  0.00  0.00    +0.000 A 
ATOM     20  N   UNL     1      -0.344  10.831  20.393  0.00  0.00    +0.000 NA
ATOM     21  C   UNL     1       0.939   9.294  18.460  0.00  0.00    +0.000 C 
ATOM     22  C   UNL     1       2.303   8.997  17.829  0.00  0.00    +0.000 C 
ENDROOT
BRANCH   1  23
ATOM     23  N   UNL     1       2.462   5.077  20.792  0.00  0.00    +0.000 N 
ATOM     24  H   UNL     1       3.133   5.205  21.548  0.00  0.00    +0.000 HD
BRANCH  23  26
ATOM     25  C   UNL     1       2.121   3.031  22.025  0.00  0.00    +0.000 C 
ATOM     26  C   UNL     1       2.140   3.659  20.623  0.00  0.00    +0.000 C 
ATOM     27  C   UNL     1       0.759   3.491  19.987  0.00  0.00    +0.000 C 
ENDBRANCH  23  26
ENDBRANCH   1  23
TORSDOF 2
ENDMDL
MODEL 2
REMARK VINA RESULT:      -6.9      2.680      5.782
REMARK  Name = 
REMARK  4 active torsions:
REMARK  status: ('A' for Active; 'I' for Inactive)
REMARK    1  A    between atoms: C_1  and  C_2
REMARK    2  A    between atoms: C_2  and  C_3
REMARK    3  A    between atoms: C_2  and  N_4
REMARK    4  A    between atoms: N_4  and  C_5
REMARK                            x       y       z     vdW  Elec       q    Type
REMARK                         _______ _______ _______ _____ _____    ______ ____
ROOT
ATOM      1  C   UNL     1       0.832  10.784  19.233  0.00  0.00    +0.000 A 
ATOM      2  N   UNL     1       1.552   9.779  18.712  0.00  0.00    +0.000 NA
ATOM      3  C   UNL     1       1.608   8.619  19.390  0.00  0.00    +0.000 A 
ATOM      4  N   UNL     1       2.176   7.530  18.772  0.00  0.00    +0.000 N 
ATOM      5  C   UNL     1       2.255   6.240  19.437  0.00  0.00    +0.000 C 
ATOM      6  C   UNL     1       3.685   5.783  19.168  0.00  0.00    +0.000 C 
ATOM      7  C   UNL     1       4.003   6.409  17.819  0.00  0.00    +0.000 C 
ATOM      8  C   UNL     1       3.293   7.762  17.874  0.00  0.00    +0.000 C 
ATOM      9  N   UNL     1       1.085   8.462  20.615  0.00  0.00    +0.000 NA
ATOM     10  C   UNL     1       0.412   9.496  21.154  0.00  0.00    +0.000 A 
ATOM     11  C   UNL     1       0.188  10.665  20.456  0.00  0.00    +0.000 A 
ATOM     12  C   UNL     1      -0.672  11.765  21.014  0.00  0.00    +0.000 C 
ATOM     13  N   UNL     1      -1.464  11.275  22.138  0.00  0.00    +0.000 N 
ATOM     14  C   UNL     1      -2.577  12.008  22.479  0.00  0.00    +0.000 A 
ATOM     15  N   UNL     1      -3.189  12.719  21.511  0.00  0.00    +0.000 NA
ATOM     16  C   UNL     1      -4.338  13.356  21.814  0.00  0.00    +0.000 A 
ATOM     17  C   UNL     1      -4.894  13.332  23.060  0.00  0.00    +0.000 A 
ATOM     18  F   UNL     1      -6.033  13.973  23.345  0.00  0.00    +0.000 F 
ATOM     19  C   UNL     1      -4.210  12.607  23.997  0.00  0.00    +0.000 A 
ATOM     20  N   UNL     1      -3.063  11.937  23.733  0.00  0.00    +0.000 NA
ATOM     21  C   UNL     1      -0.714  10.560  23.158  0.00  0.00    +0.000 C 
ATOM     22  C   UNL     1      -0.162   9.276  22.531  0.00  0.00    +0.000 C 
ENDROOT
BRANCH   1  23
ATOM     23  N   UNL     1       0.646  11.973  18.501  0.00  0.00    +0.000 N 
ATOM     24  H   UNL     1       0.846  11.737  17.530  0.00  0.00    +0.000 HD
BRANCH  23  26
ATOM     25  C   UNL     1       2.622  13.268  18.008  0.00  0.00    +0.000 C 
ATOM     26  C   UNL     1       1.373  13.180  18.898  0.00  0.00    +0.000 C 
ATOM     27  C   UNL     1       0.514  14.425  18.672  0.00  0.00    +0.000 C 
ENDBRANCH  23  26
ENDBRANCH   1  23
TORSDOF 2
ENDMDL
MODEL 3
REMARK VINA RESULT:      -6.8      4.048      8.218
REMARK  Name = 
REMARK  4 active torsions:
REMARK  status: ('A' for Active; 'I' for Inactive)
REMARK    1  A    between atoms: C_1  and  C_2
REMARK    2  A    between atoms: C_2  and  C_3
REMARK    3  A    between atoms: C_2  and  N_4
REMARK    4  A    between atoms: N_4  and  C_5
REMARK                            x       y       z     vdW  Elec       q    Type
REMARK                         _______ _______ _______ _____ _____    ______ ____
ROOT
ATOM      1  C   UNL     1       2.917   4.870  18.199  0.00  0.00    +0.000 A 
ATOM      2  N   UNL     1       2.118   5.616  18.977  0.00  0.00    +0.000 NA
ATOM      3  C   UNL     1       2.371   6.935  19.067  0.00  0.00    +0.000 A 
ATOM      4  N   UNL     1       1.447   7.732  19.701  0.00  0.00    +0.000 N 
ATOM      5  C   UNL     1       1.644   9.167  19.820  0.00  0.00    +0.000 C 
ATOM      6  C   UNL     1       1.295   9.459  21.276  0.00  0.00    +0.000 C 
ATOM      7  C   UNL     1       0.248   8.405  21.602  0.00  0.00    +0.000 C 
ATOM      8  C   UNL     1       0.724   7.174  20.829  0.00  0.00    +0.000 C 
ATOM      9  N   UNL     1       3.451   7.512  18.520  0.00  0.00    +0.000 NA
ATOM     10  C   UNL     1       4.277   6.743  17.787  0.00  0.00    +0.000 A 
ATOM     11  C   UNL     1       4.003   5.415  17.529  0.00  0.00    +0.000 A 
ATOM     12  C   UNL     1       4.861   4.596  16.605  0.00  0.00    +0.000 C 
ATOM     13  N   UNL     1       5.724   5.462  15.807  0.00  0.00    +0.000 N 
ATOM     14  C   UNL     1       6.246   4.925  14.654  0.00  0.00    +0.000 A 
ATOM     15  N   UNL     1       5.549   3.950  14.036  0.00  0.00    +0.000 NA
ATOM     16  C   UNL     1       6.001   3.491  12.851  0.00  0.00    +0.000 A 
ATOM     17  C   UNL     1       7.144   3.952  12.264  0.00  0.00    +0.000 A 
ATOM     18  F   UNL     1       7.581   3.483  11.091  0.00  0.00    +0.000 F 
ATOM     19  C   UNL     1       7.810   4.927  12.956  0.00  0.00    +0.000 A 
ATOM     20  N   UNL     1       7.384   5.429  14.138  0.00  0.00    +0.000 NA
ATOM     21  C   UNL     1       6.475   6.453  16.562  0.00  0.00    +0.000 C 
ATOM     22  C   UNL     1       5.477   7.431  17.188  0.00  0.00    +0.000 C 
ENDROOT
BRANCH   1  23
ATOM     23  N   UNL     1       2.619   3.511  17.979  0.00  0.00    +0.000 N 
ATOM     24  H   UNL     1       1.637   3.482  17.706  0.00  0.00    +0.000 HD
BRANCH  23  26
ATOM     25  C   UNL     1       1.528   2.075  19.583  0.00  0.00    +0.000 C 
ATOM     26  C   UNL     1       2.888   2.538  19.039  0.00  0.00    +0.000 C 
ATOM     27  C   UNL     1       3.636   1.326  18.481  0.00  0.00    +0.000 C 
ENDBRANCH  23  26
ENDBRANCH   1  23
TORSDOF 2
ENDMDL
MODEL 4
REMARK VINA RESULT:      -6.6      3.456      9.391
REMARK  Name = 
REMARK  4 active torsions:
REMARK  status: ('A' for Active; 'I' for Inactive)
REMARK    1  A    between atoms: C_1  and  C_2
REMARK    2  A    between atoms: C_2  and  C_3
REMARK    3  A    between atoms: C_2  and  N_4
REMARK    4  A    between atoms: N_4  and  C_5
REMARK                            x       y       z     vdW  Elec       q    Type
REMARK                         _______ _______ _______ _____ _____    ______ ____
ROOT
ATOM      1  C   UNL     1      -1.736  12.271  20.092  0.00  0.00    +0.000 A 
ATOM      2  N   UNL     1      -2.129  13.292  20.870  0.00  0.00    +0.000 NA
ATOM      3  C   UNL     1      -1.737  13.297  22.157  0.00  0.00    +0.000 A 
ATOM      4  N   UNL     1      -1.968  14.428  22.903  0.00  0.00    +0.000 N 
ATOM      5  C   UNL     1      -1.556  14.513  24.294  0.00  0.00    +0.000 C 
ATOM      6  C   UNL     1      -2.773  15.107  24.995  0.00  0.00    +0.000 C 
ATOM      7  C   UNL     1      -3.402  15.981  23.921  0.00  0.00    +0.000 C 
ATOM      8  C   UNL     1      -3.176  15.187  22.633  0.00  0.00    +0.000 C 
ATOM      9  N   UNL     1      -1.083  12.274  22.726  0.00  0.00    +0.000 NA
ATOM     10  C   UNL     1      -0.742  11.229  21.950  0.00  0.00    +0.000 A 
ATOM     11  C   UNL     1      -0.981  11.219  20.591  0.00  0.00    +0.000 A 
ATOM     12  C   UNL     1      -0.485  10.107  19.709  0.00  0.00    +0.000 C 
ATOM     13  N   UNL     1       0.524   9.314  20.405  0.00  0.00    +0.000 N 
ATOM     14  C   UNL     1       1.358   8.548  19.625  0.00  0.00    +0.000 A 
ATOM     15  N   UNL     1       1.611   8.965  18.368  0.00  0.00    +0.000 NA
ATOM     16  C   UNL     1       2.508   8.278  17.633  0.00  0.00    +0.000 A 
ATOM     17  C   UNL     1       3.152   7.167  18.097  0.00  0.00    +0.000 A 
ATOM     18  F   UNL     1       4.036   6.494  17.353  0.00  0.00    +0.000 F 
ATOM     19  C   UNL     1       2.833   6.791  19.373  0.00  0.00    +0.000 A 
ATOM     20  N   UNL     1       1.952   7.461  20.153  0.00  0.00    +0.000 NA
ATOM     21  C   UNL     1       0.147   8.866  21.737  0.00  0.00    +0.000 C 
ATOM     22  C   UNL     1      -0.005  10.102  22.629  0.00  0.00    +0.000 C 
ENDROOT
BRANCH   1  23
ATOM     23  N   UNL     1      -2.021  12.285  18.713  0.00  0.00    +0.000 N 
ATOM     24  H   UNL     1      -2.317  13.236  18.499  0.00  0.00    +0.000 HD
BRANCH  23  26
ATOM     25  C   UNL     1      -4.380  11.869  18.421  0.00  0.00    +0.000 C 
ATOM     26  C   UNL     1      -2.971  11.314  18.167  0.00  0.00    +0.000 C 
ATOM     27  C   UNL     1      -2.768  11.150  16.660  0.00  0.00    +0.000 C 
ENDBRANCH  23  26
ENDBRANCH   1  23
TORSDOF 2
ENDMDL
MODEL 5
REMARK VINA RESULT:      -6.4      3.297      8.862
REMARK  Name = 
REMARK  4 active torsions:
REMARK  status: ('A' for Active; 'I' for Inactive)
REMARK    1  A    between atoms: C_1  and  C_2
REMARK    2  A    between atoms: C_2  and  C_3
REMARK    3  A    between atoms: C_2  and  N_4
REMARK    4  A    between atoms: N_4  and  C_5
REMARK                            x       y       z     vdW  Elec       q    Type
REMARK                         _______ _______ _______ _____ _____    ______ ____
ROOT
ATOM      1  C   UNL     1      -1.065  11.330  19.284  0.00  0.00    +0.000 A 
ATOM      2  N   UNL     1      -1.531  12.389  19.964  0.00  0.00    +0.000 NA
ATOM      3  C   UNL     1      -1.196  12.509  21.261  0.00  0.00    +0.000 A 
ATOM      4  N   UNL     1      -1.503  13.683  21.907  0.00  0.00    +0.000 N 
ATOM      5  C   UNL     1      -1.156  13.891  23.303  0.00  0.00    +0.000 C 
ATOM      6  C   UNL     1      -2.425  14.484  23.905  0.00  0.00    +0.000 C 
ATOM      7  C   UNL     1      -3.040  15.246  22.742  0.00  0.00    +0.000 C 
ATOM      8  C   UNL     1      -2.727  14.367  21.530  0.00  0.00    +0.000 C 
ATOM      9  N   UNL     1      -0.527  11.561  21.934  0.00  0.00    +0.000 NA
ATOM     10  C   UNL     1      -0.112  10.475  21.256  0.00  0.00    +0.000 A 
ATOM     11  C   UNL     1      -0.292  10.352  19.893  0.00  0.00    +0.000 A 
ATOM     12  C   UNL     1       0.286   9.198  19.121  0.00  0.00    +0.000 C 
ATOM     13  N   UNL     1       1.294   8.503  19.917  0.00  0.00    +0.000 N 
ATOM     14  C   UNL     1       2.191   7.717  19.233  0.00  0.00    +0.000 A 
ATOM     15  N   UNL     1       2.481   8.048  17.959  0.00  0.00    +0.000 NA
ATOM     16  C   UNL     1       3.436   7.345  17.316  0.00  0.00    +0.000 A 
ATOM     17  C   UNL     1       4.102   6.301  17.890  0.00  0.00    +0.000 A 
ATOM     18  F   UNL     1       5.043   5.612  17.237  0.00  0.00    +0.000 F 
ATOM     19  C   UNL     1       3.743   6.010  19.178  0.00  0.00    +0.000 A 
ATOM     20  N   UNL     1       2.804   6.699  19.867  0.00  0.00    +0.000 NA
ATOM     21  C   UNL     1       0.878   8.143  21.264  0.00  0.00    +0.000 C 
ATOM     22  C   UNL     1       0.638   9.436  22.050  0.00  0.00    +0.000 C 
ENDROOT
BRANCH   1  23
ATOM     23  N   UNL     1      -1.290  11.227  17.898  0.00  0.00    +0.000 N 
ATOM     24  H   UNL     1      -0.860  12.053  17.483  0.00  0.00    +0.000 HD
BRANCH  23  26
ATOM     25  C   UNL     1      -2.595  11.125  15.870  0.00  0.00    +0.000 C 
ATOM     26  C   UNL     1      -2.657  11.055  17.404  0.00  0.00    +0.000 C 
ATOM     27  C   UNL     1      -3.211   9.690  17.815  0.00  0.00    +0.000 C 
ENDBRANCH  23  26
ENDBRANCH   1  23
TORSDOF 2
ENDMDL
MODEL 6
REMARK VINA RESULT:      -6.4      2.586      5.167
REMARK  Name = 
REMARK  4 active torsions:
REMARK  status: ('A' for Active; 'I' for Inactive)
REMARK    1  A    between atoms: C_1  and  C_2
REMARK    2  A    between atoms: C_2  and  C_3
REMARK    3  A    between atoms: C_2  and  N_4
REMARK    4  A    between atoms: N_4  and  C_5
REMARK                            x       y       z     vdW  Elec       q    Type
REMARK                         _______ _______ _______ _____ _____    ______ ____
ROOT
ATOM      1  C   UNL     1       5.949   6.226  16.255  0.00  0.00    +0.000 A 
ATOM      2  N   UNL     1       6.342   5.740  15.068  0.00  0.00    +0.000 NA
ATOM      3  C   UNL     1       5.683   4.680  14.565  0.00  0.00    +0.000 A 
ATOM      4  N   UNL     1       5.949   4.303  13.270  0.00  0.00    +0.000 N 
ATOM      5  C   UNL     1       5.264   3.179  12.655  0.00  0.00    +0.000 C 
ATOM      6  C   UNL     1       6.385   2.404  11.971  0.00  0.00    +0.000 C 
ATOM      7  C   UNL     1       7.385   3.489  11.603  0.00  0.00    +0.000 C 
ATOM      8  C   UNL     1       7.306   4.465  12.778  0.00  0.00    +0.000 C 
ATOM      9  N   UNL     1       4.743   4.012  15.249  0.00  0.00    +0.000 NA
ATOM     10  C   UNL     1       4.394   4.474  16.464  0.00  0.00    +0.000 A 
ATOM     11  C   UNL     1       4.921   5.640  16.981  0.00  0.00    +0.000 A 
ATOM     12  C   UNL     1       4.435   6.219  18.281  0.00  0.00    +0.000 C 
ATOM     13  N   UNL     1       3.169   5.605  18.672  0.00  0.00    +0.000 N 
ATOM     14  C   UNL     1       2.401   6.293  19.581  0.00  0.00    +0.000 A 
ATOM     15  N   UNL     1       2.513   7.636  19.618  0.00  0.00    +0.000 NA
ATOM     16  C   UNL     1       1.689   8.326  20.432  0.00  0.00    +0.000 A 
ATOM     17  C   UNL     1       0.765   7.723  21.236  0.00  0.00    +0.000 A 
ATOM     18  F   UNL     1      -0.042   8.422  22.041  0.00  0.00    +0.000 F 
ATOM     19  C   UNL     1       0.719   6.358  21.161  0.00  0.00    +0.000 A 
ATOM     20  N   UNL     1       1.515   5.627  20.346  0.00  0.00    +0.000 NA
ATOM     21  C   UNL     1       3.154   4.151  18.649  0.00  0.00    +0.000 C 
ATOM     22  C   UNL     1       3.331   3.696  17.197  0.00  0.00    +0.000 C 
ENDROOT
BRANCH   1  23
ATOM     23  N   UNL     1       6.528   7.405  16.762  0.00  0.00    +0.000 N 
ATOM     24  H   UNL     1       6.546   8.063  15.984  0.00  0.00    +0.000 HD
BRANCH  23  26
ATOM     25  C   UNL     1       8.163   8.753  17.918  0.00  0.00    +0.000 C 
ATOM     26  C   UNL     1       7.837   7.339  17.412  0.00  0.00    +0.000 C 
ATOM     27  C   UNL     1       7.800   6.383  18.606  0.00  0.00    +0.000 C 
ENDBRANCH  23  26
ENDBRANCH   1  23
TORSDOF 2
ENDMDL
MODEL 7
REMARK VINA RESULT:      -6.3      6.835      9.924
REMARK  Name = 
REMARK  4 active torsions:
REMARK  status: ('A' for Active; 'I' for Inactive)
REMARK    1  A    between atoms: C_1  and  C_2
REMARK    2  A    between atoms: C_2  and  C_3
REMARK    3  A    between atoms: C_2  and  N_4
REMARK    4  A    between atoms: N_4  and  C_5
REMARK                            x       y       z     vdW  Elec       q    Type
REMARK                         _______ _______ _______ _____ _____    ______ ____
ROOT
ATOM      1  C   UNL     1      -2.969  12.207  18.936  0.00  0.00    +0.000 A 
ATOM      2  N   UNL     1      -4.232  12.208  19.391  0.00  0.00    +0.000 NA
ATOM      3  C   UNL     1      -4.443  12.534  20.679  0.00  0.00    +0.000 A 
ATOM      4  N   UNL     1      -5.738  12.727  21.097  0.00  0.00    +0.000 N 
ATOM      5  C   UNL     1      -6.041  13.099  22.470  0.00  0.00    +0.000 C 
ATOM      6  C   UNL     1      -7.197  12.178  22.844  0.00  0.00    +0.000 C 
ATOM      7  C   UNL     1      -7.914  11.961  21.521  0.00  0.00    +0.000 C 
ATOM      8  C   UNL     1      -6.777  11.907  20.500  0.00  0.00    +0.000 C 
ATOM      9  N   UNL     1      -3.448  12.733  21.556  0.00  0.00    +0.000 NA
ATOM     10  C   UNL     1      -2.182  12.674  21.102  0.00  0.00    +0.000 A 
ATOM     11  C   UNL     1      -1.893  12.490  19.765  0.00  0.00    +0.000 A 
ATOM     12  C   UNL     1      -0.483  12.553  19.245  0.00  0.00    +0.000 C 
ATOM     13  N   UNL     1       0.400  13.163  20.235  0.00  0.00    +0.000 N 
ATOM     14  C   UNL     1       1.594  13.667  19.775  0.00  0.00    +0.000 A 
ATOM     15  N   UNL     1       1.650  14.097  18.499  0.00  0.00    +0.000 NA
ATOM     16  C   UNL     1       2.785  14.687  18.071  0.00  0.00    +0.000 A 
ATOM     17  C   UNL     1       3.883  14.846  18.866  0.00  0.00    +0.000 A 
ATOM     18  F   UNL     1       5.002  15.430  18.424  0.00  0.00    +0.000 F 
ATOM     19  C   UNL     1       3.761  14.370  20.142  0.00  0.00    +0.000 A 
ATOM     20  N   UNL     1       2.636  13.787  20.619  0.00  0.00    +0.000 NA
ATOM     21  C   UNL     1       0.306  12.604  21.575  0.00  0.00    +0.000 C 
ATOM     22  C   UNL     1      -1.094  12.906  22.119  0.00  0.00    +0.000 C 
ENDROOT
BRANCH   1  23
ATOM     23  N   UNL     1      -2.712  11.991  17.569  0.00  0.00    +0.000 N 
ATOM     24  H   UNL     1      -3.208  12.730  17.072  0.00  0.00    +0.000 HD
BRANCH  23  26
ATOM     25  C   UNL     1      -3.200  10.901  15.471  0.00  0.00    +0.000 C 
ATOM     26  C   UNL     1      -3.011  10.684  16.980  0.00  0.00    +0.000 C 
ATOM     27  C   UNL     1      -1.848   9.715  17.200  0.00  0.00    +0.000 C 
ENDBRANCH  23  26
ENDBRANCH   1  23
TORSDOF 2
ENDMDL
MODEL 8
REMARK VINA RESULT:      -6.3      2.962      6.023
REMARK  Name = 
REMARK  4 active torsions:
REMARK  status: ('A' for Active; 'I' for Inactive)
REMARK    1  A    between atoms: C_1  and  C_2
REMARK    2  A    between atoms: C_2  and  C_3
REMARK    3  A    between atoms: C_2  and  N_4
REMARK    4  A    between atoms: N_4  and  C_5
REMARK                            x       y       z     vdW  Elec       q    Type
REMARK                         _______ _______ _______ _____ _____    ______ ____
ROOT
ATOM      1  C   UNL     1      -0.358  11.000  18.909  0.00  0.00    +0.000 A 
ATOM      2  N   UNL     1       0.479  10.060  18.446  0.00  0.00    +0.000 NA
ATOM      3  C   UNL     1       0.968   9.159  19.317  0.00  0.00    +0.000 A 
ATOM      4  N   UNL     1       1.664   8.083  18.819  0.00  0.00    +0.000 N 
ATOM      5  C   UNL     1       2.205   7.060  19.699  0.00  0.00    +0.000 C 
ATOM      6  C   UNL     1       3.622   6.848  19.176  0.00  0.00    +0.000 C 
ATOM      7  C   UNL     1       3.493   7.142  17.689  0.00  0.00    +0.000 C 
ATOM      8  C   UNL     1       2.481   8.288  17.636  0.00  0.00    +0.000 C 
ATOM      9  N   UNL     1       0.758   9.232  20.640  0.00  0.00    +0.000 NA
ATOM     10  C   UNL     1      -0.039  10.213  21.101  0.00  0.00    +0.000 A 
ATOM     11  C   UNL     1      -0.692  11.084  20.253  0.00  0.00    +0.000 A 
ATOM     12  C   UNL     1      -1.680  12.095  20.766  0.00  0.00    +0.000 C 
ATOM     13  N   UNL     1      -2.078  11.773  22.133  0.00  0.00    +0.000 N 
ATOM     14  C   UNL     1      -3.252  12.330  22.585  0.00  0.00    +0.000 A 
ATOM     15  N   UNL     1      -4.207  12.618  21.679  0.00  0.00    +0.000 NA
ATOM     16  C   UNL     1      -5.398  13.066  22.124  0.00  0.00    +0.000 A 
ATOM     17  C   UNL     1      -5.669  13.263  23.447  0.00  0.00    +0.000 A 
ATOM     18  F   UNL     1      -6.855  13.713  23.871  0.00  0.00    +0.000 F 
ATOM     19  C   UNL     1      -4.648  12.968  24.308  0.00  0.00    +0.000 A 
ATOM     20  N   UNL     1      -3.443  12.499  23.907  0.00  0.00    +0.000 NA
ATOM     21  C   UNL     1      -0.981  11.523  23.054  0.00  0.00    +0.000 C 
ATOM     22  C   UNL     1      -0.251  10.258  22.593  0.00  0.00    +0.000 C 
ENDROOT
BRANCH   1  23
ATOM     23  N   UNL     1      -0.987  11.888  18.014  0.00  0.00    +0.000 N 
ATOM     24  H   UNL     1      -1.272  12.691  18.573  0.00  0.00    +0.000 HD
BRANCH  23  26
ATOM     25  C   UNL     1      -1.921   9.892  17.028  0.00  0.00    +0.000 C 
ATOM     26  C   UNL     1      -2.102  11.409  17.195  0.00  0.00    +0.000 C 
ATOM     27  C   UNL     1      -3.437  11.674  17.892  0.00  0.00    +0.000 C 
ENDBRANCH  23  26
ENDBRANCH   1  23
TORSDOF 2
ENDMDL
MODEL 9
REMARK VINA RESULT:      -6.2      5.185      7.843
REMARK  Name = 
REMARK  4 active torsions:
REMARK  status: ('A' for Active; 'I' for Inactive)
REMARK    1  A    between atoms: C_1  and  C_2
REMARK    2  A    between atoms: C_2  and  C_3
REMARK    3  A    between atoms: C_2  and  N_4
REMARK    4  A    between atoms: N_4  and  C_5
REMARK                            x       y       z     vdW  Elec       q    Type
REMARK                         _______ _______ _______ _____ _____    ______ ____
ROOT
ATOM      1  C   UNL     1      -1.231  11.202  20.453  0.00  0.00    +0.000 A 
ATOM      2  N   UNL     1      -1.399  10.806  19.182  0.00  0.00    +0.000 NA
ATOM      3  C   UNL     1      -2.428  11.322  18.486  0.00  0.00    +0.000 A 
ATOM      4  N   UNL     1      -2.491  11.074  17.135  0.00  0.00    +0.000 N 
ATOM      5  C   UNL     1      -3.564  11.614  16.316  0.00  0.00    +0.000 C 
ATOM      6  C   UNL     1      -3.997  10.427  15.462  0.00  0.00    +0.000 C 
ATOM      7  C   UNL     1      -2.715   9.624  15.304  0.00  0.00    +0.000 C 
ATOM      8  C   UNL     1      -2.020   9.786  16.657  0.00  0.00    +0.000 C 
ATOM      9  N   UNL     1      -3.361  12.113  19.038  0.00  0.00    +0.000 NA
ATOM     10  C   UNL     1      -3.213  12.460  20.330  0.00  0.00    +0.000 A 
ATOM     11  C   UNL     1      -2.106  12.088  21.064  0.00  0.00    +0.000 A 
ATOM     12  C   UNL     1      -1.885  12.584  22.467  0.00  0.00    +0.000 C 
ATOM     13  N   UNL     1      -2.758  13.719  22.751  0.00  0.00    +0.000 N 
ATOM     14  C   UNL     1      -2.398  14.533  23.800  0.00  0.00    +0.000 A 
ATOM     15  N   UNL     1      -1.089  14.623  24.110  0.00  0.00    +0.000 NA
ATOM     16  C   UNL     1      -0.717  15.497  25.067  0.00  0.00    +0.000 A 
ATOM     17  C   UNL     1      -1.608  16.274  25.750  0.00  0.00    +0.000 A 
ATOM     18  F   UNL     1      -1.222  17.132  26.700  0.00  0.00    +0.000 F 
ATOM     19  C   UNL     1      -2.919  16.116  25.396  0.00  0.00    +0.000 A 
ATOM     20  N   UNL     1      -3.336  15.265  24.429  0.00  0.00    +0.000 NA
ATOM     21  C   UNL     1      -4.162  13.516  22.428  0.00  0.00    +0.000 C 
ATOM     22  C   UNL     1      -4.282  13.351  20.910  0.00  0.00    +0.000 C 
ENDROOT
BRANCH   1  23
ATOM     23  N   UNL     1      -0.100  10.782  21.179  0.00  0.00    +0.000 N 
ATOM     24  H   UNL     1       0.698  10.930  20.563  0.00  0.00    +0.000 HD
BRANCH  23  26
ATOM     25  C   UNL     1       1.190   8.742  21.202  0.00  0.00    +0.000 C 
ATOM     26  C   UNL     1      -0.072   9.431  21.743  0.00  0.00    +0.000 C 
ATOM     27  C   UNL     1       0.009   9.485  23.269  0.00  0.00    +0.000 C 
ENDBRANCH  23  26
ENDBRANCH   1  23
TORSDOF 2
ENDMDL
