MODEL 1
REMARK VINA RESULT:      -8.2      0.000      0.000
REMARK  Name = 
REMARK  8 active torsions:
REMARK  status: ('A' for Active; 'I' for Inactive)
REMARK    1  A    between atoms: C_1  and  C_2
REMARK    2  A    between atoms: N_6  and  C_7
REMARK    3  A    between atoms: C_9  and  O_10
REMARK    4  A    between atoms: O_10  and  C_11
REMARK    5  A    between atoms: C_11  and  C_12
REMARK    6  A    between atoms: C_12  and  N_13
REMARK    7  A    between atoms: C_16  and  C_17
REMARK    8  A    between atoms: C_21  and  C_22
REMARK                            x       y       z     vdW  Elec       q    Type
REMARK                         _______ _______ _______ _____ _____    ______ ____
ROOT
ATOM      1  C   UNL     1       5.463   5.666  17.379  0.00  0.00    +0.000 A 
ATOM      2  C   UNL     1       4.997   5.320  16.104  0.00  0.00    +0.000 A 
ATOM      3  C   UNL     1       5.887   4.828  15.171  0.00  0.00    +0.000 A 
ATOM      4  N   UNL     1       7.213   4.752  15.413  0.00  0.00    +0.000 NA
ATOM      5  N   UNL     1       7.703   5.139  16.623  0.00  0.00    +0.000 NA
ATOM      6  C   UNL     1       6.842   5.583  17.578  0.00  0.00    +0.000 A 
ENDROOT
BRANCH   1  12
ATOM      7  C   UNL     1       1.367   2.809  21.628  0.00  0.00    +0.000 C 
ATOM      8  C   UNL     1       2.212   3.710  20.782  0.00  0.00    +0.000 A 
ATOM      9  C   UNL     1       1.800   5.017  20.504  0.00  0.00    +0.000 A 
ATOM     10  C   UNL     1       2.598   5.847  19.722  0.00  0.00    +0.000 A 
ATOM     11  C   UNL     1       3.783   5.340  19.199  0.00  0.00    +0.000 A 
ATOM     12  N   UNL     1       4.562   6.161  18.356  0.00  0.00    +0.000 N 
ATOM     13  N   UNL     1       4.192   4.085  19.461  0.00  0.00    +0.000 NA
ATOM     14  C   UNL     1       3.429   3.288  20.244  0.00  0.00    +0.000 A 
ATOM     15  C   UNL     1       3.976   1.913  20.491  0.00  0.00    +0.000 C 
ATOM     16  H   UNL     1       4.961   6.931  18.899  0.00  0.00    +0.000 HD
ENDBRANCH   1  12
BRANCH   6  17
ATOM     17  C   UNL     1       7.482   5.953  18.878  0.00  0.00    +0.000 C 
ATOM     18  N   UNL     1       8.329   7.032  18.852  0.00  0.00    +0.000 N 
ATOM     19  O   UNL     1       7.280   5.328  19.913  0.00  0.00    +0.000 OA
ATOM     20  H   UNL     1       8.520   7.521  17.985  0.00  0.00    +0.000 HD
ATOM     21  H   UNL     1       8.815   7.301  19.696  0.00  0.00    +0.000 HD
ENDBRANCH   6  17
BRANCH   3  22
ATOM     22  O   UNL     1       5.389   4.456  13.938  0.00  0.00    +0.000 OA
BRANCH  22  23
ATOM     23  C   UNL     1       6.353   3.695  13.196  0.00  0.00    +0.000 C 
BRANCH  23  24
ATOM     24  C   UNL     1       5.662   2.991  12.022  0.00  0.00    +0.000 C 
BRANCH  24  25
ATOM     25  N   UNL     1       6.363   1.765  11.638  0.00  0.00    +0.000 NA
ATOM     26  H   UNL     1       5.890   0.958  12.043  0.00  0.00    +0.000 HD
ATOM     27  H   UNL     1       7.302   1.772  12.035  0.00  0.00    +0.000 HD
ENDBRANCH  24  25
ENDBRANCH  23  24
ENDBRANCH  22  23
ENDBRANCH   3  22
TORSDOF 6
ENDMDL
MODEL 2
REMARK VINA RESULT:      -8.0      1.013      1.013
REMARK  Name = 
REMARK  8 active torsions:
REMARK  status: ('A' for Active; 'I' for Inactive)
REMARK    1  A    between atoms: C_1  and  C_2
REMARK    2  A    between atoms: N_6  and  C_7
REMARK    3  A    between atoms: C_9  and  O_10
REMARK    4  A    between atoms: O_10  and  C_11
REMARK    5  A    between atoms: C_11  and  C_12
REMARK    6  A    between atoms: C_12  and  N_13
REMARK    7  A    between atoms: C_16  and  C_17
REMARK    8  A    between atoms: C_21  and  C_22
REMARK                            x       y       z     vdW  Elec       q    Type
REMARK                         _______ _______ _______ _____ _____    ______ ____
ROOT
ATOM      1  C   UNL     1       5.581   6.082  17.018  0.00  0.00    +0.000 A 
ATOM      2  C   UNL     1       5.008   5.384  15.947  0.00  0.00    +0.000 A 
ATOM      3  C   UNL     1       5.816   4.949  14.916  0.00  0.00    +0.000 A 
ATOM      4  N   UNL     1       7.131   5.250  14.856  0.00  0.00    +0.000 NA
ATOM      5  N   UNL     1       7.703   5.980  15.853  0.00  0.00    +0.000 NA
ATOM      6  C   UNL     1       6.940   6.381  16.905  0.00  0.00    +0.000 A 
ENDROOT
BRANCH   1  12
ATOM      7  C   UNL     1       1.788   3.020  21.403  0.00  0.00    +0.000 C 
ATOM      8  C   UNL     1       2.579   3.961  20.547  0.00  0.00    +0.000 A 
ATOM      9  C   UNL     1       2.170   5.288  20.384  0.00  0.00    +0.000 A 
ATOM     10  C   UNL     1       2.917   6.155  19.591  0.00  0.00    +0.000 A 
ATOM     11  C   UNL     1       4.047   5.666  18.945  0.00  0.00    +0.000 A 
ATOM     12  N   UNL     1       4.770   6.528  18.093  0.00  0.00    +0.000 N 
ATOM     13  N   UNL     1       4.452   4.392  19.096  0.00  0.00    +0.000 NA
ATOM     14  C   UNL     1       3.741   3.558  19.888  0.00  0.00    +0.000 A 
ATOM     15  C   UNL     1       4.281   2.163  20.005  0.00  0.00    +0.000 C 
ATOM     16  H   UNL     1       5.226   7.257  18.647  0.00  0.00    +0.000 HD
ENDBRANCH   1  12
BRANCH   6  17
ATOM     17  C   UNL     1       7.675   7.150  17.957  0.00  0.00    +0.000 C 
ATOM     18  N   UNL     1       8.085   6.436  19.055  0.00  0.00    +0.000 N 
ATOM     19  O   UNL     1       7.896   8.352  17.861  0.00  0.00    +0.000 OA
ATOM     20  H   UNL     1       7.866   5.450  19.145  0.00  0.00    +0.000 HD
ATOM     21  H   UNL     1       8.554   6.915  19.811  0.00  0.00    +0.000 HD
ENDBRANCH   6  17
BRANCH   3  22
ATOM     22  O   UNL     1       5.228   4.226  13.897  0.00  0.00    +0.000 OA
BRANCH  22  23
ATOM     23  C   UNL     1       6.216   3.620  13.051  0.00  0.00    +0.000 C 
BRANCH  23  24
ATOM     24  C   UNL     1       5.530   2.942  11.860  0.00  0.00    +0.000 C 
BRANCH  24  25
ATOM     25  N   UNL     1       6.155   1.658  11.535  0.00  0.00    +0.000 NA
ATOM     26  H   UNL     1       5.827   0.943  12.184  0.00  0.00    +0.000 HD
ATOM     27  H   UNL     1       7.162   1.727  11.672  0.00  0.00    +0.000 HD
ENDBRANCH  24  25
ENDBRANCH  23  24
ENDBRANCH  22  23
ENDBRANCH   3  22
TORSDOF 6
ENDMDL
MODEL 3
REMARK VINA RESULT:      -7.9      1.513      2.467
REMARK  Name = 
REMARK  8 active torsions:
REMARK  status: ('A' for Active; 'I' for Inactive)
REMARK    1  A    between atoms: C_1  and  C_2
REMARK    2  A    between atoms: N_6  and  C_7
REMARK    3  A    between atoms: C_9  and  O_10
REMARK    4  A    between atoms: O_10  and  C_11
REMARK    5  A    between atoms: C_11  and  C_12
REMARK    6  A    between atoms: C_12  and  N_13
REMARK    7  A    between atoms: C_16  and  C_17
REMARK    8  A    between atoms: C_21  and  C_22
REMARK                            x       y       z     vdW  Elec       q    Type
REMARK                         _______ _______ _______ _____ _____    ______ ____
ROOT
ATOM      1  C   UNL     1       6.044   3.898  15.875  0.00  0.00    +0.000 A 
ATOM      2  C   UNL     1       5.849   3.692  14.504  0.00  0.00    +0.000 A 
ATOM      3  C   UNL     1       6.636   4.377  13.600  0.00  0.00    +0.000 A 
ATOM      4  N   UNL     1       7.531   5.311  13.988  0.00  0.00    +0.000 NA
ATOM      5  N   UNL     1       7.699   5.576  15.314  0.00  0.00    +0.000 NA
ATOM      6  C   UNL     1       6.970   4.881  16.228  0.00  0.00    +0.000 A 
ENDROOT
BRANCH   1  12
ATOM      7  C   UNL     1       1.843   5.764  20.550  0.00  0.00    +0.000 C 
ATOM      8  C   UNL     1       2.728   5.067  19.564  0.00  0.00    +0.000 A 
ATOM      9  C   UNL     1       3.248   3.801  19.847  0.00  0.00    +0.000 A 
ATOM     10  C   UNL     1       4.066   3.160  18.919  0.00  0.00    +0.000 A 
ATOM     11  C   UNL     1       4.377   3.818  17.734  0.00  0.00    +0.000 A 
ATOM     12  N   UNL     1       5.254   3.195  16.821  0.00  0.00    +0.000 N 
ATOM     13  N   UNL     1       3.882   5.036  17.449  0.00  0.00    +0.000 NA
ATOM     14  C   UNL     1       3.066   5.645  18.340  0.00  0.00    +0.000 A 
ATOM     15  C   UNL     1       2.552   6.993  17.925  0.00  0.00    +0.000 C 
ATOM     16  H   UNL     1       4.802   2.373  16.414  0.00  0.00    +0.000 HD
ENDBRANCH   1  12
BRANCH   6  17
ATOM     17  C   UNL     1       7.255   5.231  17.654  0.00  0.00    +0.000 C 
ATOM     18  N   UNL     1       6.840   6.472  18.069  0.00  0.00    +0.000 N 
ATOM     19  O   UNL     1       7.836   4.467  18.417  0.00  0.00    +0.000 OA
ATOM     20  H   UNL     1       6.394   7.113  17.423  0.00  0.00    +0.000 HD
ATOM     21  H   UNL     1       7.040   6.771  19.013  0.00  0.00    +0.000 HD
ENDBRANCH   6  17
BRANCH   3  22
ATOM     22  O   UNL     1       6.449   4.119  12.256  0.00  0.00    +0.000 OA
BRANCH  22  23
ATOM     23  C   UNL     1       5.811   2.850  12.054  0.00  0.00    +0.000 C 
BRANCH  23  24
ATOM     24  C   UNL     1       6.738   1.926  11.257  0.00  0.00    +0.000 C 
BRANCH  24  25
ATOM     25  N   UNL     1       6.305   0.530  11.330  0.00  0.00    +0.000 NA
ATOM     26  H   UNL     1       6.702   0.090  12.160  0.00  0.00    +0.000 HD
ATOM     27  H   UNL     1       6.677   0.017  10.531  0.00  0.00    +0.000 HD
ENDBRANCH  24  25
ENDBRANCH  23  24
ENDBRANCH  22  23
ENDBRANCH   3  22
TORSDOF 6
ENDMDL
MODEL 4
REMARK VINA RESULT:      -7.6      1.324      1.880
REMARK  Name = 
REMARK  8 active torsions:
REMARK  status: ('A' for Active; 'I' for Inactive)
REMARK    1  A    between atoms: C_1  and  C_2
REMARK    2  A    between atoms: N_6  and  C_7
REMARK    3  A    between atoms: C_9  and  O_10
REMARK    4  A    between atoms: O_10  and  C_11
REMARK    5  A    between atoms: C_11  and  C_12
REMARK    6  A    between atoms: C_12  and  N_13
REMARK    7  A    between atoms: C_16  and  C_17
REMARK    8  A    between atoms: C_21  and  C_22
REMARK                            x       y       z     vdW  Elec       q    Type
REMARK                         _______ _______ _______ _____ _____    ______ ____
ROOT
ATOM      1  C   UNL     1       6.571   4.367  17.327  0.00  0.00    +0.000 A 
ATOM      2  C   UNL     1       6.315   4.094  15.977  0.00  0.00    +0.000 A 
ATOM      3  C   UNL     1       6.835   4.930  15.010  0.00  0.00    +0.000 A 
ATOM      4  N   UNL     1       7.510   6.058  15.320  0.00  0.00    +0.000 NA
ATOM      5  N   UNL     1       7.721   6.381  16.627  0.00  0.00    +0.000 NA
ATOM      6  C   UNL     1       7.261   5.549  17.600  0.00  0.00    +0.000 A 
ENDROOT
BRANCH   1  12
ATOM      7  C   UNL     1       0.717   3.795  20.224  0.00  0.00    +0.000 C 
ATOM      8  C   UNL     1       2.127   3.696  19.729  0.00  0.00    +0.000 A 
ATOM      9  C   UNL     1       3.135   3.186  20.552  0.00  0.00    +0.000 A 
ATOM     10  C   UNL     1       4.441   3.094  20.078  0.00  0.00    +0.000 A 
ATOM     11  C   UNL     1       4.722   3.550  18.795  0.00  0.00    +0.000 A 
ATOM     12  N   UNL     1       6.056   3.513  18.336  0.00  0.00    +0.000 N 
ATOM     13  N   UNL     1       3.760   4.041  17.992  0.00  0.00    +0.000 NA
ATOM     14  C   UNL     1       2.487   4.105  18.444  0.00  0.00    +0.000 A 
ATOM     15  C   UNL     1       1.485   4.653  17.471  0.00  0.00    +0.000 C 
ATOM     16  H   UNL     1       6.351   2.542  18.212  0.00  0.00    +0.000 HD
ENDBRANCH   1  12
BRANCH   6  17
ATOM     17  C   UNL     1       7.574   5.984  18.996  0.00  0.00    +0.000 C 
ATOM     18  N   UNL     1       8.398   7.074  19.122  0.00  0.00    +0.000 N 
ATOM     19  O   UNL     1       7.136   5.401  19.982  0.00  0.00    +0.000 OA
ATOM     20  H   UNL     1       8.787   7.528  18.303  0.00  0.00    +0.000 HD
ATOM     21  H   UNL     1       8.669   7.387  20.043  0.00  0.00    +0.000 HD
ENDBRANCH   6  17
BRANCH   3  22
ATOM     22  O   UNL     1       6.602   4.609  13.687  0.00  0.00    +0.000 OA
BRANCH  22  23
ATOM     23  C   UNL     1       5.467   3.742  13.554  0.00  0.00    +0.000 C 
BRANCH  23  24
ATOM     24  C   UNL     1       5.391   3.207  12.120  0.00  0.00    +0.000 C 
BRANCH  24  25
ATOM     25  N   UNL     1       6.393   2.167  11.876  0.00  0.00    +0.000 NA
ATOM     26  H   UNL     1       6.695   2.203  10.903  0.00  0.00    +0.000 HD
ATOM     27  H   UNL     1       5.969   1.250  12.009  0.00  0.00    +0.000 HD
ENDBRANCH  24  25
ENDBRANCH  23  24
ENDBRANCH  22  23
ENDBRANCH   3  22
TORSDOF 6
ENDMDL
MODEL 5
REMARK VINA RESULT:      -7.6      1.195      1.249
REMARK  Name = 
REMARK  8 active torsions:
REMARK  status: ('A' for Active; 'I' for Inactive)
REMARK    1  A    between atoms: C_1  and  C_2
REMARK    2  A    between atoms: N_6  and  C_7
REMARK    3  A    between atoms: C_9  and  O_10
REMARK    4  A    between atoms: O_10  and  C_11
REMARK    5  A    between atoms: C_11  and  C_12
REMARK    6  A    between atoms: C_12  and  N_13
REMARK    7  A    between atoms: C_16  and  C_17
REMARK    8  A    between atoms: C_21  and  C_22
REMARK                            x       y       z     vdW  Elec       q    Type
REMARK                         _______ _______ _______ _____ _____    ______ ____
ROOT
ATOM      1  C   UNL     1       5.310   5.484  16.164  0.00  0.00    +0.000 A 
ATOM      2  C   UNL     1       5.055   4.732  15.010  0.00  0.00    +0.000 A 
ATOM      3  C   UNL     1       6.116   4.290  14.246  0.00  0.00    +0.000 A 
ATOM      4  N   UNL     1       7.392   4.632  14.520  0.00  0.00    +0.000 NA
ATOM      5  N   UNL     1       7.665   5.414  15.602  0.00  0.00    +0.000 NA
ATOM      6  C   UNL     1       6.643   5.825  16.400  0.00  0.00    +0.000 A 
ENDROOT
BRANCH   1  12
ATOM      7  C   UNL     1       1.569   2.651  20.743  0.00  0.00    +0.000 C 
ATOM      8  C   UNL     1       2.269   3.538  19.761  0.00  0.00    +0.000 A 
ATOM      9  C   UNL     1       1.606   4.629  19.189  0.00  0.00    +0.000 A 
ATOM     10  C   UNL     1       2.270   5.450  18.282  0.00  0.00    +0.000 A 
ATOM     11  C   UNL     1       3.581   5.142  17.935  0.00  0.00    +0.000 A 
ATOM     12  N   UNL     1       4.234   5.939  16.970  0.00  0.00    +0.000 N 
ATOM     13  N   UNL     1       4.231   4.098  18.480  0.00  0.00    +0.000 NA
ATOM     14  C   UNL     1       3.594   3.316  19.381  0.00  0.00    +0.000 A 
ATOM     15  C   UNL     1       4.406   2.187  19.943  0.00  0.00    +0.000 C 
ATOM     16  H   UNL     1       4.401   6.873  17.350  0.00  0.00    +0.000 HD
ENDBRANCH   1  12
BRANCH   6  17
ATOM     17  C   UNL     1       7.057   6.652  17.575  0.00  0.00    +0.000 C 
ATOM     18  N   UNL     1       7.544   7.904  17.294  0.00  0.00    +0.000 N 
ATOM     19  O   UNL     1       6.983   6.242  18.728  0.00  0.00    +0.000 OA
ATOM     20  H   UNL     1       7.638   8.222  16.336  0.00  0.00    +0.000 HD
ATOM     21  H   UNL     1       7.871   8.489  18.049  0.00  0.00    +0.000 HD
ENDBRANCH   6  17
BRANCH   3  22
ATOM     22  O   UNL     1       5.833   3.514  13.138  0.00  0.00    +0.000 OA
BRANCH  22  23
ATOM     23  C   UNL     1       6.844   3.658  12.131  0.00  0.00    +0.000 C 
BRANCH  23  24
ATOM     24  C   UNL     1       6.864   2.412  11.238  0.00  0.00    +0.000 C 
BRANCH  24  25
ATOM     25  N   UNL     1       5.864   1.429  11.659  0.00  0.00    +0.000 NA
ATOM     26  H   UNL     1       5.412   1.026  10.838  0.00  0.00    +0.000 HD
ATOM     27  H   UNL     1       5.129   1.898  12.186  0.00  0.00    +0.000 HD
ENDBRANCH  24  25
ENDBRANCH  23  24
ENDBRANCH  22  23
ENDBRANCH   3  22
TORSDOF 6
ENDMDL
MODEL 6
REMARK VINA RESULT:      -7.6      2.202      4.955
REMARK  Name = 
REMARK  8 active torsions:
REMARK  status: ('A' for Active; 'I' for Inactive)
REMARK    1  A    between atoms: C_1  and  C_2
REMARK    2  A    between atoms: N_6  and  C_7
REMARK    3  A    between atoms: C_9  and  O_10
REMARK    4  A    between atoms: O_10  and  C_11
REMARK    5  A    between atoms: C_11  and  C_12
REMARK    6  A    between atoms: C_12  and  N_13
REMARK    7  A    between atoms: C_16  and  C_17
REMARK    8  A    between atoms: C_21  and  C_22
REMARK                            x       y       z     vdW  Elec       q    Type
REMARK                         _______ _______ _______ _____ _____    ______ ____
ROOT
ATOM      1  C   UNL     1       6.652   4.881  17.899  0.00  0.00    +0.000 A 
ATOM      2  C   UNL     1       7.318   5.861  18.646  0.00  0.00    +0.000 A 
ATOM      3  C   UNL     1       7.831   6.968  18.000  0.00  0.00    +0.000 A 
ATOM      4  N   UNL     1       7.794   7.099  16.657  0.00  0.00    +0.000 NA
ATOM      5  N   UNL     1       7.206   6.131  15.899  0.00  0.00    +0.000 NA
ATOM      6  C   UNL     1       6.650   5.052  16.514  0.00  0.00    +0.000 A 
ENDROOT
BRANCH   1  12
ATOM      7  C   UNL     1       0.702   3.408  20.227  0.00  0.00    +0.000 C 
ATOM      8  C   UNL     1       2.129   3.473  19.779  0.00  0.00    +0.000 A 
ATOM      9  C   UNL     1       3.111   2.709  20.418  0.00  0.00    +0.000 A 
ATOM     10  C   UNL     1       4.433   2.773  19.987  0.00  0.00    +0.000 A 
ATOM     11  C   UNL     1       4.757   3.631  18.941  0.00  0.00    +0.000 A 
ATOM     12  N   UNL     1       6.106   3.742  18.545  0.00  0.00    +0.000 N 
ATOM     13  N   UNL     1       3.821   4.369  18.317  0.00  0.00    +0.000 NA
ATOM     14  C   UNL     1       2.532   4.286  18.719  0.00  0.00    +0.000 A 
ATOM     15  C   UNL     1       1.562   5.135  17.951  0.00  0.00    +0.000 C 
ATOM     16  H   UNL     1       6.411   2.867  18.112  0.00  0.00    +0.000 HD
ENDBRANCH   1  12
BRANCH   6  17
ATOM     17  C   UNL     1       6.006   4.068  15.590  0.00  0.00    +0.000 C 
ATOM     18  N   UNL     1       5.560   4.563  14.391  0.00  0.00    +0.000 N 
ATOM     19  O   UNL     1       5.869   2.885  15.880  0.00  0.00    +0.000 OA
ATOM     20  H   UNL     1       5.643   5.549  14.173  0.00  0.00    +0.000 HD
ATOM     21  H   UNL     1       5.085   3.947  13.746  0.00  0.00    +0.000 HD
ENDBRANCH   6  17
BRANCH   3  22
ATOM     22  O   UNL     1       8.444   7.937  18.770  0.00  0.00    +0.000 OA
BRANCH  22  23
ATOM     23  C   UNL     1       8.357   9.228  18.148  0.00  0.00    +0.000 C 
BRANCH  23  24
ATOM     24  C   UNL     1       9.169  10.246  18.956  0.00  0.00    +0.000 C 
BRANCH  24  25
ATOM     25  N   UNL     1       9.842  11.213  18.087  0.00  0.00    +0.000 NA
ATOM     26  H   UNL     1       9.240  11.442  17.297  0.00  0.00    +0.000 HD
ATOM     27  H   UNL     1      10.680  10.789  17.693  0.00  0.00    +0.000 HD
ENDBRANCH  24  25
ENDBRANCH  23  24
ENDBRANCH  22  23
ENDBRANCH   3  22
TORSDOF 6
ENDMDL
MODEL 7
REMARK VINA RESULT:      -7.5      1.460      2.448
REMARK  Name = 
REMARK  8 active torsions:
REMARK  status: ('A' for Active; 'I' for Inactive)
REMARK    1  A    between atoms: C_1  and  C_2
REMARK    2  A    between atoms: N_6  and  C_7
REMARK    3  A    between atoms: C_9  and  O_10
REMARK    4  A    between atoms: O_10  and  C_11
REMARK    5  A    between atoms: C_11  and  C_12
REMARK    6  A    between atoms: C_12  and  N_13
REMARK    7  A    between atoms: C_16  and  C_17
REMARK    8  A    between atoms: C_21  and  C_22
REMARK                            x       y       z     vdW  Elec       q    Type
REMARK                         _______ _______ _______ _____ _____    ______ ____
ROOT
ATOM      1  C   UNL     1       5.690   4.274  16.595  0.00  0.00    +0.000 A 
ATOM      2  C   UNL     1       5.351   3.930  15.280  0.00  0.00    +0.000 A 
ATOM      3  C   UNL     1       6.189   4.302  14.249  0.00  0.00    +0.000 A 
ATOM      4  N   UNL     1       7.283   5.068  14.450  0.00  0.00    +0.000 NA
ATOM      5  N   UNL     1       7.604   5.469  15.712  0.00  0.00    +0.000 NA
ATOM      6  C   UNL     1       6.821   5.076  16.753  0.00  0.00    +0.000 A 
ENDROOT
BRANCH   1  12
ATOM      7  C   UNL     1       1.579   7.543  20.520  0.00  0.00    +0.000 C 
ATOM      8  C   UNL     1       2.426   6.561  19.771  0.00  0.00    +0.000 A 
ATOM      9  C   UNL     1       2.862   5.384  20.386  0.00  0.00    +0.000 A 
ATOM     10  C   UNL     1       3.644   4.475  19.677  0.00  0.00    +0.000 A 
ATOM     11  C   UNL     1       4.007   4.782  18.370  0.00  0.00    +0.000 A 
ATOM     12  N   UNL     1       4.849   3.891  17.671  0.00  0.00    +0.000 N 
ATOM     13  N   UNL     1       3.592   5.910  17.766  0.00  0.00    +0.000 NA
ATOM     14  C   UNL     1       2.810   6.779  18.447  0.00  0.00    +0.000 A 
ATOM     15  C   UNL     1       2.387   7.999  17.684  0.00  0.00    +0.000 C 
ATOM     16  H   UNL     1       4.348   3.019  17.481  0.00  0.00    +0.000 HD
ENDBRANCH   1  12
BRANCH   6  17
ATOM     17  C   UNL     1       7.282   5.547  18.096  0.00  0.00    +0.000 C 
ATOM     18  N   UNL     1       7.681   6.858  18.175  0.00  0.00    +0.000 N 
ATOM     19  O   UNL     1       7.316   4.812  19.076  0.00  0.00    +0.000 OA
ATOM     20  H   UNL     1       7.686   7.450  17.352  0.00  0.00    +0.000 HD
ATOM     21  H   UNL     1       8.036   7.216  19.051  0.00  0.00    +0.000 HD
ENDBRANCH   6  17
BRANCH   3  22
ATOM     22  O   UNL     1       5.849   3.910  12.969  0.00  0.00    +0.000 OA
BRANCH  22  23
ATOM     23  C   UNL     1       7.001   3.868  12.114  0.00  0.00    +0.000 C 
BRANCH  23  24
ATOM     24  C   UNL     1       7.074   2.507  11.413  0.00  0.00    +0.000 C 
BRANCH  24  25
ATOM     25  N   UNL     1       5.846   1.734  11.603  0.00  0.00    +0.000 NA
ATOM     26  H   UNL     1       5.366   1.625  10.710  0.00  0.00    +0.000 HD
ATOM     27  H   UNL     1       5.209   2.252  12.207  0.00  0.00    +0.000 HD
ENDBRANCH  24  25
ENDBRANCH  23  24
ENDBRANCH  22  23
ENDBRANCH   3  22
TORSDOF 6
ENDMDL
MODEL 8
REMARK VINA RESULT:      -7.3      1.447      1.517
REMARK  Name = 
REMARK  8 active torsions:
REMARK  status: ('A' for Active; 'I' for Inactive)
REMARK    1  A    between atoms: C_1  and  C_2
REMARK    2  A    between atoms: N_6  and  C_7
REMARK    3  A    between atoms: C_9  and  O_10
REMARK    4  A    between atoms: O_10  and  C_11
REMARK    5  A    between atoms: C_11  and  C_12
REMARK    6  A    between atoms: C_12  and  N_13
REMARK    7  A    between atoms: C_16  and  C_17
REMARK    8  A    between atoms: C_21  and  C_22
REMARK                            x       y       z     vdW  Elec       q    Type
REMARK                         _______ _______ _______ _____ _____    ______ ____
ROOT
ATOM      1  C   UNL     1       5.307   5.358  16.157  0.00  0.00    +0.000 A 
ATOM      2  C   UNL     1       5.103   4.535  15.042  0.00  0.00    +0.000 A 
ATOM      3  C   UNL     1       6.193   4.110  14.310  0.00  0.00    +0.000 A 
ATOM      4  N   UNL     1       7.448   4.532  14.575  0.00  0.00    +0.000 NA
ATOM      5  N   UNL     1       7.669   5.382  15.617  0.00  0.00    +0.000 NA
ATOM      6  C   UNL     1       6.618   5.779  16.385  0.00  0.00    +0.000 A 
ENDROOT
BRANCH   1  12
ATOM      7  C   UNL     1       1.646   2.560  20.821  0.00  0.00    +0.000 C 
ATOM      8  C   UNL     1       2.316   3.434  19.807  0.00  0.00    +0.000 A 
ATOM      9  C   UNL     1       1.610   4.465  19.180  0.00  0.00    +0.000 A 
ATOM     10  C   UNL     1       2.246   5.275  18.243  0.00  0.00    +0.000 A 
ATOM     11  C   UNL     1       3.574   5.015  17.924  0.00  0.00    +0.000 A 
ATOM     12  N   UNL     1       4.202   5.797  16.931  0.00  0.00    +0.000 N 
ATOM     13  N   UNL     1       4.265   4.028  18.522  0.00  0.00    +0.000 NA
ATOM     14  C   UNL     1       3.654   3.258  19.452  0.00  0.00    +0.000 A 
ATOM     15  C   UNL     1       4.511   2.195  20.073  0.00  0.00    +0.000 C 
ATOM     16  H   UNL     1       4.320   6.755  17.270  0.00  0.00    +0.000 HD
ENDBRANCH   1  12
BRANCH   6  17
ATOM     17  C   UNL     1       6.978   6.687  17.518  0.00  0.00    +0.000 C 
ATOM     18  N   UNL     1       7.457   7.926  17.175  0.00  0.00    +0.000 N 
ATOM     19  O   UNL     1       6.866   6.351  18.692  0.00  0.00    +0.000 OA
ATOM     20  H   UNL     1       7.583   8.183  16.202  0.00  0.00    +0.000 HD
ATOM     21  H   UNL     1       7.749   8.563  17.902  0.00  0.00    +0.000 HD
ENDBRANCH   6  17
BRANCH   3  22
ATOM     22  O   UNL     1       5.962   3.264  13.243  0.00  0.00    +0.000 OA
BRANCH  22  23
ATOM     23  C   UNL     1       5.363   3.965  12.143  0.00  0.00    +0.000 C 
BRANCH  23  24
ATOM     24  C   UNL     1       4.277   3.093  11.505  0.00  0.00    +0.000 C 
BRANCH  24  25
ATOM     25  N   UNL     1       3.552   3.812  10.456  0.00  0.00    +0.000 NA
ATOM     26  H   UNL     1       2.994   4.557  10.872  0.00  0.00    +0.000 HD
ATOM     27  H   UNL     1       2.891   3.180  10.006  0.00  0.00    +0.000 HD
ENDBRANCH  24  25
ENDBRANCH  23  24
ENDBRANCH  22  23
ENDBRANCH   3  22
TORSDOF 6
ENDMDL
MODEL 9
REMARK VINA RESULT:      -7.3      1.139      1.171
REMARK  Name = 
REMARK  8 active torsions:
REMARK  status: ('A' for Active; 'I' for Inactive)
REMARK    1  A    between atoms: C_1  and  C_2
REMARK    2  A    between atoms: N_6  and  C_7
REMARK    3  A    between atoms: C_9  and  O_10
REMARK    4  A    between atoms: O_10  and  C_11
REMARK    5  A    between atoms: C_11  and  C_12
REMARK    6  A    between atoms: C_12  and  N_13
REMARK    7  A    between atoms: C_16  and  C_17
REMARK    8  A    between atoms: C_21  and  C_22
REMARK                            x       y       z     vdW  Elec       q    Type
REMARK                         _______ _______ _______ _____ _____    ______ ____
ROOT
ATOM      1  C   UNL     1       5.633   5.236  17.407  0.00  0.00    +0.000 A 
ATOM      2  C   UNL     1       5.305   4.678  16.165  0.00  0.00    +0.000 A 
ATOM      3  C   UNL     1       6.302   4.110  15.398  0.00  0.00    +0.000 A 
ATOM      4  N   UNL     1       7.602   4.153  15.760  0.00  0.00    +0.000 NA
ATOM      5  N   UNL     1       7.957   4.744  16.935  0.00  0.00    +0.000 NA
ATOM      6  C   UNL     1       6.989   5.270  17.733  0.00  0.00    +0.000 A 
ENDROOT
BRANCH   1  12
ATOM      7  C   UNL     1       1.266   2.785  21.640  0.00  0.00    +0.000 C 
ATOM      8  C   UNL     1       2.151   3.603  20.751  0.00  0.00    +0.000 A 
ATOM      9  C   UNL     1       1.714   4.833  20.250  0.00  0.00    +0.000 A 
ATOM     10  C   UNL     1       2.549   5.588  19.431  0.00  0.00    +0.000 A 
ATOM     11  C   UNL     1       3.799   5.078  19.097  0.00  0.00    +0.000 A 
ATOM     12  N   UNL     1       4.621   5.814  18.217  0.00  0.00    +0.000 N 
ATOM     13  N   UNL     1       4.232   3.897  19.574  0.00  0.00    +0.000 NA
ATOM     14  C   UNL     1       3.431   3.177  20.392  0.00  0.00    +0.000 A 
ATOM     15  C   UNL     1       4.008   1.883  20.884  0.00  0.00    +0.000 C 
ATOM     16  H   UNL     1       4.934   6.674  18.675  0.00  0.00    +0.000 HD
ENDBRANCH   1  12
BRANCH   6  17
ATOM     17  C   UNL     1       7.486   5.866  19.012  0.00  0.00    +0.000 C 
ATOM     18  N   UNL     1       8.259   6.994  18.895  0.00  0.00    +0.000 N 
ATOM     19  O   UNL     1       7.234   5.379  20.108  0.00  0.00    +0.000 OA
ATOM     20  H   UNL     1       8.495   7.370  17.983  0.00  0.00    +0.000 HD
ATOM     21  H   UNL     1       8.650   7.416  19.725  0.00  0.00    +0.000 HD
ENDBRANCH   6  17
BRANCH   3  22
ATOM     22  O   UNL     1       5.941   3.529  14.198  0.00  0.00    +0.000 OA
BRANCH  22  23
ATOM     23  C   UNL     1       5.957   4.487  13.130  0.00  0.00    +0.000 C 
BRANCH  23  24
ATOM     24  C   UNL     1       7.330   4.477  12.448  0.00  0.00    +0.000 C 
BRANCH  24  25
ATOM     25  N   UNL     1       8.125   5.651  12.815  0.00  0.00    +0.000 NA
ATOM     26  H   UNL     1       7.507   6.405  13.112  0.00  0.00    +0.000 HD
ATOM     27  H   UNL     1       8.619   5.996  11.993  0.00  0.00    +0.000 HD
ENDBRANCH  24  25
ENDBRANCH  23  24
ENDBRANCH  22  23
ENDBRANCH   3  22
TORSDOF 6
ENDMDL
