MODEL 1
REMARK VINA RESULT:      -9.4      0.000      0.000
REMARK  Name = 
REMARK  7 active torsions:
REMARK  status: ('A' for Active; 'I' for Inactive)
REMARK    1  A    between atoms: C_2  and  O_3
REMARK    2  A    between atoms: C_2  and  C_4
REMARK    3  A    between atoms: C_6  and  C_7
REMARK    4  A    between atoms: C_12  and  C_13
REMARK    5  A    between atoms: C_18  and  O_19
REMARK    6  A    between atoms: O_19  and  C_20
REMARK    7  A    between atoms: C_20  and  C_21
REMARK                            x       y       z     vdW  Elec       q    Type
REMARK                         _______ _______ _______ _____ _____    ______ ____
ROOT
ATOM      1  C   UNL     1       2.690   4.786  18.678  0.00  0.00    +0.000 A 
ATOM      2  C   UNL     1       1.560   3.914  18.725  0.00  0.00    +0.000 A 
ATOM      3  C   UNL     1       1.648   2.536  18.555  0.00  0.00    +0.000 A 
ATOM      4  C   UNL     1       2.882   1.970  18.319  0.00  0.00    +0.000 A 
ATOM      5  C   UNL     1       4.016   2.785  18.292  0.00  0.00    +0.000 A 
ATOM      6  C   UNL     1       3.983   4.202  18.465  0.00  0.00    +0.000 A 
ENDROOT
BRANCH   1   9
ATOM      7  C   UNL     1       1.658   8.152  20.228  0.00  0.00    +0.000 A 
ATOM      8  C   UNL     1       2.074   6.807  20.098  0.00  0.00    +0.000 A 
ATOM      9  C   UNL     1       2.387   6.239  18.852  0.00  0.00    +0.000 A 
ATOM     10  C   UNL     1       2.362   7.104  17.737  0.00  0.00    +0.000 A 
ATOM     11  C   UNL     1       2.065   8.461  17.866  0.00  0.00    +0.000 A 
ATOM     12  C   UNL     1       1.704   8.986  19.105  0.00  0.00    +0.000 A 
ATOM     13 CL   UNL     1       1.383  10.683  19.161  0.00  0.00    +0.000 Cl
BRANCH   7  15
ATOM     14  O   UNL     1      -0.194   8.473  21.701  0.00  0.00    +0.000 OA
ATOM     15  C   UNL     1       1.001   8.598  21.488  0.00  0.00    +0.000 C 
BRANCH  15  16
ATOM     16  O   UNL     1       1.835   9.094  22.426  0.00  0.00    +0.000 OA
ATOM     17  H   UNL     1       1.813  10.056  22.567  0.00  0.00    +0.000 HD
ENDBRANCH  15  16
ENDBRANCH   7  15
ENDBRANCH   1   9
BRANCH   6  18
ATOM     18  C   UNL     1       5.319   4.924  18.379  0.00  0.00    +0.000 A 
ATOM     19  C   UNL     1       6.041   5.168  19.575  0.00  0.00    +0.000 A 
ATOM     20  C   UNL     1       7.264   5.848  19.600  0.00  0.00    +0.000 A 
ATOM     21  C   UNL     1       7.858   6.235  18.412  0.00  0.00    +0.000 A 
ATOM     22  C   UNL     1       7.201   5.994  17.211  0.00  0.00    +0.000 A 
ATOM     23  C   UNL     1       5.919   5.421  17.193  0.00  0.00    +0.000 A 
BRANCH  23  24
ATOM     24  O   UNL     1       5.209   5.292  16.036  0.00  0.00    +0.000 OA
BRANCH  24  25
ATOM     25  C   UNL     1       5.136   4.029  15.381  0.00  0.00    +0.000 C 
BRANCH  25  26
ATOM     26  C   UNL     1       5.956   4.119  14.118  0.00  0.00    +0.000 A 
ATOM     27  C   UNL     1       5.576   3.399  12.973  0.00  0.00    +0.000 A 
ATOM     28  C   UNL     1       6.290   3.519  11.786  0.00  0.00    +0.000 A 
ATOM     29  C   UNL     1       7.381   4.380  11.724  0.00  0.00    +0.000 A 
ATOM     30  C   UNL     1       7.760   5.114  12.848  0.00  0.00    +0.000 A 
ATOM     31  C   UNL     1       7.051   4.986  14.043  0.00  0.00    +0.000 A 
ENDBRANCH  25  26
ENDBRANCH  24  25
ENDBRANCH  23  24
ENDBRANCH   6  18
TORSDOF 7
ENDMDL
MODEL 2
REMARK VINA RESULT:      -9.0      0.562      1.046
REMARK  Name = 
REMARK  7 active torsions:
REMARK  status: ('A' for Active; 'I' for Inactive)
REMARK    1  A    between atoms: C_2  and  O_3
REMARK    2  A    between atoms: C_2  and  C_4
REMARK    3  A    between atoms: C_6  and  C_7
REMARK    4  A    between atoms: C_12  and  C_13
REMARK    5  A    between atoms: C_18  and  O_19
REMARK    6  A    between atoms: O_19  and  C_20
REMARK    7  A    between atoms: C_20  and  C_21
REMARK                            x       y       z     vdW  Elec       q    Type
REMARK                         _______ _______ _______ _____ _____    ______ ____
ROOT
ATOM      1  C   UNL     1       2.503   4.520  18.657  0.00  0.00    +0.000 A 
ATOM      2  C   UNL     1       1.320   3.723  18.724  0.00  0.00    +0.000 A 
ATOM      3  C   UNL     1       1.321   2.338  18.587  0.00  0.00    +0.000 A 
ATOM      4  C   UNL     1       2.516   1.690  18.367  0.00  0.00    +0.000 A 
ATOM      5  C   UNL     1       3.699   2.431  18.320  0.00  0.00    +0.000 A 
ATOM      6  C   UNL     1       3.756   3.851  18.459  0.00  0.00    +0.000 A 
ENDROOT
BRANCH   1   9
ATOM      7  C   UNL     1       1.654   7.977  20.116  0.00  0.00    +0.000 A 
ATOM      8  C   UNL     1       1.983   6.605  20.022  0.00  0.00    +0.000 A 
ATOM      9  C   UNL     1       2.292   5.994  18.796  0.00  0.00    +0.000 A 
ATOM     10  C   UNL     1       2.358   6.836  17.666  0.00  0.00    +0.000 A 
ATOM     11  C   UNL     1       2.148   8.212  17.762  0.00  0.00    +0.000 A 
ATOM     12  C   UNL     1       1.788   8.785  18.980  0.00  0.00    +0.000 A 
ATOM     13 CL   UNL     1       1.579  10.499  18.996  0.00  0.00    +0.000 Cl
BRANCH   7  15
ATOM     14  O   UNL     1      -0.217   8.477  21.513  0.00  0.00    +0.000 OA
ATOM     15  C   UNL     1       0.992   8.490  21.348  0.00  0.00    +0.000 C 
BRANCH  15  16
ATOM     16  O   UNL     1       1.831   8.916  22.315  0.00  0.00    +0.000 OA
ATOM     17  H   UNL     1       1.810   8.432  23.158  0.00  0.00    +0.000 HD
ENDBRANCH  15  16
ENDBRANCH   7  15
ENDBRANCH   1   9
BRANCH   6  18
ATOM     18  C   UNL     1       5.136   4.484  18.357  0.00  0.00    +0.000 A 
ATOM     19  C   UNL     1       5.772   4.929  19.544  0.00  0.00    +0.000 A 
ATOM     20  C   UNL     1       7.027   5.548  19.547  0.00  0.00    +0.000 A 
ATOM     21  C   UNL     1       7.736   5.668  18.366  0.00  0.00    +0.000 A 
ATOM     22  C   UNL     1       7.165   5.223  17.180  0.00  0.00    +0.000 A 
ATOM     23  C   UNL     1       5.856   4.712  17.157  0.00  0.00    +0.000 A 
BRANCH  23  24
ATOM     24  O   UNL     1       5.236   4.388  15.987  0.00  0.00    +0.000 OA
BRANCH  24  25
ATOM     25  C   UNL     1       5.239   5.308  14.898  0.00  0.00    +0.000 C 
BRANCH  25  26
ATOM     26  C   UNL     1       5.778   4.584  13.689  0.00  0.00    +0.000 A 
ATOM     27  C   UNL     1       7.091   4.820  13.248  0.00  0.00    +0.000 A 
ATOM     28  C   UNL     1       7.618   4.116  12.171  0.00  0.00    +0.000 A 
ATOM     29  C   UNL     1       6.844   3.151  11.535  0.00  0.00    +0.000 A 
ATOM     30  C   UNL     1       5.545   2.894  11.972  0.00  0.00    +0.000 A 
ATOM     31  C   UNL     1       5.011   3.607  13.046  0.00  0.00    +0.000 A 
ENDBRANCH  25  26
ENDBRANCH  24  25
ENDBRANCH  23  24
ENDBRANCH   6  18
TORSDOF 7
ENDMDL
MODEL 3
REMARK VINA RESULT:      -8.7      3.030      6.942
REMARK  Name = 
REMARK  7 active torsions:
REMARK  status: ('A' for Active; 'I' for Inactive)
REMARK    1  A    between atoms: C_2  and  O_3
REMARK    2  A    between atoms: C_2  and  C_4
REMARK    3  A    between atoms: C_6  and  C_7
REMARK    4  A    between atoms: C_12  and  C_13
REMARK    5  A    between atoms: C_18  and  O_19
REMARK    6  A    between atoms: O_19  and  C_20
REMARK    7  A    between atoms: C_20  and  C_21
REMARK                            x       y       z     vdW  Elec       q    Type
REMARK                         _______ _______ _______ _____ _____    ______ ____
ROOT
ATOM      1  C   UNL     1       5.299   3.640  16.783  0.00  0.00    +0.000 A 
ATOM      2  C   UNL     1       4.549   2.438  16.956  0.00  0.00    +0.000 A 
ATOM      3  C   UNL     1       4.062   2.009  18.187  0.00  0.00    +0.000 A 
ATOM      4  C   UNL     1       4.316   2.769  19.307  0.00  0.00    +0.000 A 
ATOM      5  C   UNL     1       5.025   3.966  19.176  0.00  0.00    +0.000 A 
ATOM      6  C   UNL     1       5.542   4.455  17.939  0.00  0.00    +0.000 A 
ENDROOT
BRANCH   1   9
ATOM      7  C   UNL     1       5.599   3.592  12.948  0.00  0.00    +0.000 A 
ATOM      8  C   UNL     1       5.079   3.442  14.255  0.00  0.00    +0.000 A 
ATOM      9  C   UNL     1       5.762   3.913  15.388  0.00  0.00    +0.000 A 
ATOM     10  C   UNL     1       6.952   4.635  15.157  0.00  0.00    +0.000 A 
ATOM     11  C   UNL     1       7.419   4.890  13.867  0.00  0.00    +0.000 A 
ATOM     12  C   UNL     1       6.752   4.363  12.762  0.00  0.00    +0.000 A 
ATOM     13 CL   UNL     1       7.396   4.761  11.209  0.00  0.00    +0.000 Cl
BRANCH   7  15
ATOM     14  O   UNL     1       4.047   3.101  11.200  0.00  0.00    +0.000 OA
ATOM     15  C   UNL     1       5.035   2.775  11.837  0.00  0.00    +0.000 C 
BRANCH  15  16
ATOM     16  O   UNL     1       5.739   1.666  11.527  0.00  0.00    +0.000 OA
ATOM     17  H   UNL     1       5.343   0.812  11.773  0.00  0.00    +0.000 HD
ENDBRANCH  15  16
ENDBRANCH   7  15
ENDBRANCH   1   9
BRANCH   6  18
ATOM     18  C   UNL     1       6.309   5.768  17.999  0.00  0.00    +0.000 A 
ATOM     19  C   UNL     1       7.574   5.789  18.639  0.00  0.00    +0.000 A 
ATOM     20  C   UNL     1       8.340   6.953  18.769  0.00  0.00    +0.000 A 
ATOM     21  C   UNL     1       7.907   8.129  18.184  0.00  0.00    +0.000 A 
ATOM     22  C   UNL     1       6.685   8.151  17.523  0.00  0.00    +0.000 A 
ATOM     23  C   UNL     1       5.858   7.015  17.497  0.00  0.00    +0.000 A 
BRANCH  23  24
ATOM     24  O   UNL     1       4.605   7.055  16.963  0.00  0.00    +0.000 OA
BRANCH  24  25
ATOM     25  C   UNL     1       3.548   7.702  17.668  0.00  0.00    +0.000 C 
BRANCH  25  26
ATOM     26  C   UNL     1       2.733   6.634  18.352  0.00  0.00    +0.000 A 
ATOM     27  C   UNL     1       2.183   5.576  17.608  0.00  0.00    +0.000 A 
ATOM     28  C   UNL     1       1.479   4.554  18.235  0.00  0.00    +0.000 A 
ATOM     29  C   UNL     1       1.334   4.567  19.619  0.00  0.00    +0.000 A 
ATOM     30  C   UNL     1       1.888   5.602  20.372  0.00  0.00    +0.000 A 
ATOM     31  C   UNL     1       2.586   6.634  19.743  0.00  0.00    +0.000 A 
ENDBRANCH  25  26
ENDBRANCH  24  25
ENDBRANCH  23  24
ENDBRANCH   6  18
TORSDOF 7
ENDMDL
MODEL 4
REMARK VINA RESULT:      -8.7      6.272     10.777
REMARK  Name = 
REMARK  7 active torsions:
REMARK  status: ('A' for Active; 'I' for Inactive)
REMARK    1  A    between atoms: C_2  and  O_3
REMARK    2  A    between atoms: C_2  and  C_4
REMARK    3  A    between atoms: C_6  and  C_7
REMARK    4  A    between atoms: C_12  and  C_13
REMARK    5  A    between atoms: C_18  and  O_19
REMARK    6  A    between atoms: O_19  and  C_20
REMARK    7  A    between atoms: C_20  and  C_21
REMARK                            x       y       z     vdW  Elec       q    Type
REMARK                         _______ _______ _______ _____ _____    ______ ____
ROOT
ATOM      1  C   UNL     1      -0.353  13.119  19.643  0.00  0.00    +0.000 A 
ATOM      2  C   UNL     1      -0.274  14.541  19.542  0.00  0.00    +0.000 A 
ATOM      3  C   UNL     1       0.838  15.276  19.939  0.00  0.00    +0.000 A 
ATOM      4  C   UNL     1       1.924  14.612  20.467  0.00  0.00    +0.000 A 
ATOM      5  C   UNL     1       1.896  13.219  20.559  0.00  0.00    +0.000 A 
ATOM      6  C   UNL     1       0.784  12.416  20.162  0.00  0.00    +0.000 A 
ENDROOT
BRANCH   1   9
ATOM      7  C   UNL     1      -2.995  11.253  17.561  0.00  0.00    +0.000 A 
ATOM      8  C   UNL     1      -1.748  11.707  18.050  0.00  0.00    +0.000 A 
ATOM      9  C   UNL     1      -1.644  12.515  19.194  0.00  0.00    +0.000 A 
ATOM     10  C   UNL     1      -2.840  12.776  19.896  0.00  0.00    +0.000 A 
ATOM     11  C   UNL     1      -4.063  12.240  19.490  0.00  0.00    +0.000 A 
ATOM     12  C   UNL     1      -4.147  11.488  18.321  0.00  0.00    +0.000 A 
ATOM     13 CL   UNL     1      -5.702  10.849  17.923  0.00  0.00    +0.000 Cl
BRANCH   7  15
ATOM     14  O   UNL     1      -2.999   9.531  15.906  0.00  0.00    +0.000 OA
ATOM     15  C   UNL     1      -3.088  10.718  16.173  0.00  0.00    +0.000 C 
BRANCH  15  16
ATOM     16  O   UNL     1      -3.350  11.638  15.221  0.00  0.00    +0.000 OA
ATOM     17  H   UNL     1      -3.704  11.307  14.377  0.00  0.00    +0.000 HD
ENDBRANCH  15  16
ENDBRANCH   7  15
ENDBRANCH   1   9
BRANCH   6  18
ATOM     18  C   UNL     1       0.931  10.915  20.361  0.00  0.00    +0.000 A 
ATOM     19  C   UNL     1       1.308  10.114  19.252  0.00  0.00    +0.000 A 
ATOM     20  C   UNL     1       1.440   8.723  19.330  0.00  0.00    +0.000 A 
ATOM     21  C   UNL     1       1.287   8.086  20.547  0.00  0.00    +0.000 A 
ATOM     22  C   UNL     1       0.943   8.832  21.669  0.00  0.00    +0.000 A 
ATOM     23  C   UNL     1       0.691  10.210  21.568  0.00  0.00    +0.000 A 
BRANCH  23  24
ATOM     24  O   UNL     1       0.232  10.933  22.629  0.00  0.00    +0.000 OA
BRANCH  24  25
ATOM     25  C   UNL     1      -1.099  10.743  23.101  0.00  0.00    +0.000 C 
BRANCH  25  26
ATOM     26  C   UNL     1      -1.756  12.098  23.176  0.00  0.00    +0.000 A 
ATOM     27  C   UNL     1      -3.134  12.205  23.428  0.00  0.00    +0.000 A 
ATOM     28  C   UNL     1      -3.741  13.449  23.558  0.00  0.00    +0.000 A 
ATOM     29  C   UNL     1      -2.971  14.604  23.458  0.00  0.00    +0.000 A 
ATOM     30  C   UNL     1      -1.599  14.514  23.223  0.00  0.00    +0.000 A 
ATOM     31  C   UNL     1      -0.991  13.265  23.082  0.00  0.00    +0.000 A 
ENDBRANCH  25  26
ENDBRANCH  24  25
ENDBRANCH  23  24
ENDBRANCH   6  18
TORSDOF 7
ENDMDL
MODEL 5
REMARK VINA RESULT:      -8.4      2.095      3.678
REMARK  Name = 
REMARK  7 active torsions:
REMARK  status: ('A' for Active; 'I' for Inactive)
REMARK    1  A    between atoms: C_2  and  O_3
REMARK    2  A    between atoms: C_2  and  C_4
REMARK    3  A    between atoms: C_6  and  C_7
REMARK    4  A    between atoms: C_12  and  C_13
REMARK    5  A    between atoms: C_18  and  O_19
REMARK    6  A    between atoms: O_19  and  C_20
REMARK    7  A    between atoms: C_20  and  C_21
REMARK                            x       y       z     vdW  Elec       q    Type
REMARK                         _______ _______ _______ _____ _____    ______ ____
ROOT
ATOM      1  C   UNL     1       3.029   5.339  20.159  0.00  0.00    +0.000 A 
ATOM      2  C   UNL     1       2.159   4.617  21.031  0.00  0.00    +0.000 A 
ATOM      3  C   UNL     1       2.425   3.327  21.481  0.00  0.00    +0.000 A 
ATOM      4  C   UNL     1       3.578   2.700  21.067  0.00  0.00    +0.000 A 
ATOM      5  C   UNL     1       4.469   3.382  20.235  0.00  0.00    +0.000 A 
ATOM      6  C   UNL     1       4.249   4.706  19.748  0.00  0.00    +0.000 A 
ENDROOT
BRANCH   1   9
ATOM      7  C   UNL     1       1.406   8.825  20.257  0.00  0.00    +0.000 A 
ATOM      8  C   UNL     1       1.973   7.598  20.671  0.00  0.00    +0.000 A 
ATOM      9  C   UNL     1       2.554   6.700  19.762  0.00  0.00    +0.000 A 
ATOM     10  C   UNL     1       2.636   7.122  18.418  0.00  0.00    +0.000 A 
ATOM     11  C   UNL     1       2.184   8.379  18.013  0.00  0.00    +0.000 A 
ATOM     12  C   UNL     1       1.561   9.228  18.926  0.00  0.00    +0.000 A 
ATOM     13 CL   UNL     1       1.064  10.771  18.329  0.00  0.00    +0.000 Cl
BRANCH   7  15
ATOM     14  O   UNL     1      -0.717   9.444  21.160  0.00  0.00    +0.000 OA
ATOM     15  C   UNL     1       0.497   9.562  21.180  0.00  0.00    +0.000 C 
BRANCH  15  16
ATOM     16  O   UNL     1       1.115  10.330  22.102  0.00  0.00    +0.000 OA
ATOM     17  H   UNL     1       1.119  11.289  21.943  0.00  0.00    +0.000 HD
ENDBRANCH  15  16
ENDBRANCH   7  15
ENDBRANCH   1   9
BRANCH   6  18
ATOM     18  C   UNL     1       5.322   5.275  18.832  0.00  0.00    +0.000 A 
ATOM     19  C   UNL     1       6.538   5.727  19.405  0.00  0.00    +0.000 A 
ATOM     20  C   UNL     1       7.571   6.291  18.648  0.00  0.00    +0.000 A 
ATOM     21  C   UNL     1       7.463   6.345  17.271  0.00  0.00    +0.000 A 
ATOM     22  C   UNL     1       6.300   5.890  16.660  0.00  0.00    +0.000 A 
ATOM     23  C   UNL     1       5.213   5.436  17.427  0.00  0.00    +0.000 A 
BRANCH  23  24
ATOM     24  O   UNL     1       4.022   5.104  16.853  0.00  0.00    +0.000 OA
BRANCH  24  25
ATOM     25  C   UNL     1       3.800   3.776  16.386  0.00  0.00    +0.000 C 
BRANCH  25  26
ATOM     26  C   UNL     1       2.654   3.198  17.178  0.00  0.00    +0.000 A 
ATOM     27  C   UNL     1       2.752   1.910  17.730  0.00  0.00    +0.000 A 
ATOM     28  C   UNL     1       1.726   1.389  18.512  0.00  0.00    +0.000 A 
ATOM     29  C   UNL     1       0.597   2.161  18.769  0.00  0.00    +0.000 A 
ATOM     30  C   UNL     1       0.493   3.448  18.242  0.00  0.00    +0.000 A 
ATOM     31  C   UNL     1       1.517   3.968  17.448  0.00  0.00    +0.000 A 
ENDBRANCH  25  26
ENDBRANCH  24  25
ENDBRANCH  23  24
ENDBRANCH   6  18
TORSDOF 7
ENDMDL
MODEL 6
REMARK VINA RESULT:      -8.1      1.399      1.875
REMARK  Name = 
REMARK  7 active torsions:
REMARK  status: ('A' for Active; 'I' for Inactive)
REMARK    1  A    between atoms: C_2  and  O_3
REMARK    2  A    between atoms: C_2  and  C_4
REMARK    3  A    between atoms: C_6  and  C_7
REMARK    4  A    between atoms: C_12  and  C_13
REMARK    5  A    between atoms: C_18  and  O_19
REMARK    6  A    between atoms: O_19  and  C_20
REMARK    7  A    between atoms: C_20  and  C_21
REMARK                            x       y       z     vdW  Elec       q    Type
REMARK                         _______ _______ _______ _____ _____    ______ ____
ROOT
ATOM      1  C   UNL     1       2.787   4.391  18.727  0.00  0.00    +0.000 A 
ATOM      2  C   UNL     1       1.775   3.385  18.680  0.00  0.00    +0.000 A 
ATOM      3  C   UNL     1       2.010   2.082  18.252  0.00  0.00    +0.000 A 
ATOM      4  C   UNL     1       3.278   1.733  17.841  0.00  0.00    +0.000 A 
ATOM      5  C   UNL     1       4.302   2.681  17.896  0.00  0.00    +0.000 A 
ATOM      6  C   UNL     1       4.117   4.028  18.330  0.00  0.00    +0.000 A 
ENDROOT
BRANCH   1   9
ATOM      7  C   UNL     1       1.852   8.122  18.772  0.00  0.00    +0.000 A 
ATOM      8  C   UNL     1       2.152   6.821  18.309  0.00  0.00    +0.000 A 
ATOM      9  C   UNL     1       2.331   5.739  19.186  0.00  0.00    +0.000 A 
ATOM     10  C   UNL     1       2.100   5.988  20.555  0.00  0.00    +0.000 A 
ATOM     11  C   UNL     1       1.691   7.240  21.016  0.00  0.00    +0.000 A 
ATOM     12  C   UNL     1       1.575   8.310  20.131  0.00  0.00    +0.000 A 
ATOM     13 CL   UNL     1       1.036   9.809  20.799  0.00  0.00    +0.000 Cl
BRANCH   7  15
ATOM     14  O   UNL     1       3.113   9.642  17.429  0.00  0.00    +0.000 OA
ATOM     15  C   UNL     1       2.028   9.285  17.858  0.00  0.00    +0.000 C 
BRANCH  15  16
ATOM     16  O   UNL     1       0.885   9.889  17.471  0.00  0.00    +0.000 OA
ATOM     17  H   UNL     1       0.949  10.520  16.734  0.00  0.00    +0.000 HD
ENDBRANCH  15  16
ENDBRANCH   7  15
ENDBRANCH   1   9
BRANCH   6  18
ATOM     18  C   UNL     1       5.348   4.922  18.298  0.00  0.00    +0.000 A 
ATOM     19  C   UNL     1       6.087   5.109  19.494  0.00  0.00    +0.000 A 
ATOM     20  C   UNL     1       7.215   5.934  19.569  0.00  0.00    +0.000 A 
ATOM     21  C   UNL     1       7.701   6.538  18.424  0.00  0.00    +0.000 A 
ATOM     22  C   UNL     1       7.026   6.364  17.222  0.00  0.00    +0.000 A 
ATOM     23  C   UNL     1       5.825   5.635  17.169  0.00  0.00    +0.000 A 
BRANCH  23  24
ATOM     24  O   UNL     1       5.086   5.559  16.026  0.00  0.00    +0.000 OA
BRANCH  24  25
ATOM     25  C   UNL     1       4.886   4.301  15.388  0.00  0.00    +0.000 C 
BRANCH  25  26
ATOM     26  C   UNL     1       5.786   4.252  14.179  0.00  0.00    +0.000 A 
ATOM     27  C   UNL     1       5.439   3.465  13.068  0.00  0.00    +0.000 A 
ATOM     28  C   UNL     1       6.231   3.457  11.925  0.00  0.00    +0.000 A 
ATOM     29  C   UNL     1       7.369   4.256  11.870  0.00  0.00    +0.000 A 
ATOM     30  C   UNL     1       7.717   5.055  12.959  0.00  0.00    +0.000 A 
ATOM     31  C   UNL     1       6.929   5.056  14.111  0.00  0.00    +0.000 A 
ENDBRANCH  25  26
ENDBRANCH  24  25
ENDBRANCH  23  24
ENDBRANCH   6  18
TORSDOF 7
ENDMDL
MODEL 7
REMARK VINA RESULT:      -7.9      7.909     10.847
REMARK  Name = 
REMARK  7 active torsions:
REMARK  status: ('A' for Active; 'I' for Inactive)
REMARK    1  A    between atoms: C_2  and  O_3
REMARK    2  A    between atoms: C_2  and  C_4
REMARK    3  A    between atoms: C_6  and  C_7
REMARK    4  A    between atoms: C_12  and  C_13
REMARK    5  A    between atoms: C_18  and  O_19
REMARK    6  A    between atoms: O_19  and  C_20
REMARK    7  A    between atoms: C_20  and  C_21
REMARK                            x       y       z     vdW  Elec       q    Type
REMARK                         _______ _______ _______ _____ _____    ______ ____
ROOT
ATOM      1  C   UNL     1      -2.501  13.652  21.346  0.00  0.00    +0.000 A 
ATOM      2  C   UNL     1      -2.706  15.059  21.479  0.00  0.00    +0.000 A 
ATOM      3  C   UNL     1      -1.788  15.912  22.083  0.00  0.00    +0.000 A 
ATOM      4  C   UNL     1      -0.622  15.386  22.593  0.00  0.00    +0.000 A 
ATOM      5  C   UNL     1      -0.371  14.018  22.460  0.00  0.00    +0.000 A 
ATOM      6  C   UNL     1      -1.275  13.099  21.845  0.00  0.00    +0.000 A 
ENDROOT
BRANCH   1   9
ATOM      7  C   UNL     1      -4.594  11.711  18.767  0.00  0.00    +0.000 A 
ATOM      8  C   UNL     1      -3.494  12.302  19.430  0.00  0.00    +0.000 A 
ATOM      9  C   UNL     1      -3.616  12.900  20.694  0.00  0.00    +0.000 A 
ATOM     10  C   UNL     1      -4.875  12.798  21.324  0.00  0.00    +0.000 A 
ATOM     11  C   UNL     1      -5.940  12.118  20.733  0.00  0.00    +0.000 A 
ATOM     12  C   UNL     1      -5.808  11.582  19.453  0.00  0.00    +0.000 A 
ATOM     13 CL   UNL     1      -7.177  10.737  18.824  0.00  0.00    +0.000 Cl
BRANCH   7  15
ATOM     14  O   UNL     1      -5.030  12.117  16.454  0.00  0.00    +0.000 OA
ATOM     15  C   UNL     1      -4.504  11.422  17.308  0.00  0.00    +0.000 C 
BRANCH  15  16
ATOM     16  O   UNL     1      -3.733  10.364  16.980  0.00  0.00    +0.000 OA
ATOM     17  H   UNL     1      -4.193   9.562  16.680  0.00  0.00    +0.000 HD
ENDBRANCH  15  16
ENDBRANCH   7  15
ENDBRANCH   1   9
BRANCH   6  18
ATOM     18  C   UNL     1      -0.838  11.642  21.815  0.00  0.00    +0.000 A 
ATOM     19  C   UNL     1      -0.909  10.884  23.012  0.00  0.00    +0.000 A 
ATOM     20  C   UNL     1      -0.504   9.547  23.090  0.00  0.00    +0.000 A 
ATOM     21  C   UNL     1      -0.093   8.887  21.947  0.00  0.00    +0.000 A 
ATOM     22  C   UNL     1      -0.031   9.580  20.744  0.00  0.00    +0.000 A 
ATOM     23  C   UNL     1      -0.321  10.954  20.688  0.00  0.00    +0.000 A 
BRANCH  23  24
ATOM     24  O   UNL     1      -0.146  11.676  19.545  0.00  0.00    +0.000 OA
BRANCH  24  25
ATOM     25  C   UNL     1       1.135  12.215  19.230  0.00  0.00    +0.000 C 
BRANCH  25  26
ATOM     26  C   UNL     1       1.019  13.718  19.261  0.00  0.00    +0.000 A 
ATOM     27  C   UNL     1       2.071  14.501  19.768  0.00  0.00    +0.000 A 
ATOM     28  C   UNL     1       2.001  15.889  19.748  0.00  0.00    +0.000 A 
ATOM     29  C   UNL     1       0.885  16.514  19.199  0.00  0.00    +0.000 A 
ATOM     30  C   UNL     1      -0.160  15.751  18.677  0.00  0.00    +0.000 A 
ATOM     31  C   UNL     1      -0.095  14.357  18.707  0.00  0.00    +0.000 A 
ENDBRANCH  25  26
ENDBRANCH  24  25
ENDBRANCH  23  24
ENDBRANCH   6  18
TORSDOF 7
ENDMDL
MODEL 8
REMARK VINA RESULT:      -7.9      7.737     10.747
REMARK  Name = 
REMARK  7 active torsions:
REMARK  status: ('A' for Active; 'I' for Inactive)
REMARK    1  A    between atoms: C_2  and  O_3
REMARK    2  A    between atoms: C_2  and  C_4
REMARK    3  A    between atoms: C_6  and  C_7
REMARK    4  A    between atoms: C_12  and  C_13
REMARK    5  A    between atoms: C_18  and  O_19
REMARK    6  A    between atoms: O_19  and  C_20
REMARK    7  A    between atoms: C_20  and  C_21
REMARK                            x       y       z     vdW  Elec       q    Type
REMARK                         _______ _______ _______ _____ _____    ______ ____
ROOT
ATOM      1  C   UNL     1      -0.693  11.137  22.404  0.00  0.00    +0.000 A 
ATOM      2  C   UNL     1      -0.736   9.864  23.049  0.00  0.00    +0.000 A 
ATOM      3  C   UNL     1      -0.078   8.738  22.565  0.00  0.00    +0.000 A 
ATOM      4  C   UNL     1       0.650   8.839  21.400  0.00  0.00    +0.000 A 
ATOM      5  C   UNL     1       0.738  10.074  20.752  0.00  0.00    +0.000 A 
ATOM      6  C   UNL     1       0.088  11.260  21.207  0.00  0.00    +0.000 A 
ENDROOT
BRANCH   1   9
ATOM      7  C   UNL     1      -3.601  13.091  23.993  0.00  0.00    +0.000 A 
ATOM      8  C   UNL     1      -2.813  12.027  23.497  0.00  0.00    +0.000 A 
ATOM      9  C   UNL     1      -1.492  12.216  23.061  0.00  0.00    +0.000 A 
ATOM     10  C   UNL     1      -0.947  13.506  23.232  0.00  0.00    +0.000 A 
ATOM     11  C   UNL     1      -1.674  14.539  23.826  0.00  0.00    +0.000 A 
ATOM     12  C   UNL     1      -3.001  14.339  24.198  0.00  0.00    +0.000 A 
ATOM     13 CL   UNL     1      -3.802  15.673  24.949  0.00  0.00    +0.000 Cl
BRANCH   7  15
ATOM     14  O   UNL     1      -5.872  13.537  23.404  0.00  0.00    +0.000 OA
ATOM     15  C   UNL     1      -5.078  12.923  24.098  0.00  0.00    +0.000 C 
BRANCH  15  16
ATOM     16  O   UNL     1      -5.487  11.983  24.976  0.00  0.00    +0.000 OA
ATOM     17  H   UNL     1      -4.975  11.898  25.798  0.00  0.00    +0.000 HD
ENDBRANCH  15  16
ENDBRANCH   7  15
ENDBRANCH   1   9
BRANCH   6  18
ATOM     18  C   UNL     1       0.282  12.505  20.354  0.00  0.00    +0.000 A 
ATOM     19  C   UNL     1       1.496  13.229  20.471  0.00  0.00    +0.000 A 
ATOM     20  C   UNL     1       1.755  14.400  19.751  0.00  0.00    +0.000 A 
ATOM     21  C   UNL     1       0.840  14.847  18.815  0.00  0.00    +0.000 A 
ATOM     22  C   UNL     1      -0.354  14.156  18.645  0.00  0.00    +0.000 A 
ATOM     23  C   UNL     1      -0.668  13.050  19.453  0.00  0.00    +0.000 A 
BRANCH  23  24
ATOM     24  O   UNL     1      -1.884  12.438  19.387  0.00  0.00    +0.000 OA
BRANCH  24  25
ATOM     25  C   UNL     1      -3.011  13.014  20.043  0.00  0.00    +0.000 C 
BRANCH  25  26
ATOM     26  C   UNL     1      -4.247  12.329  19.518  0.00  0.00    +0.000 A 
ATOM     27  C   UNL     1      -4.219  11.670  18.277  0.00  0.00    +0.000 A 
ATOM     28  C   UNL     1      -5.335  10.985  17.808  0.00  0.00    +0.000 A 
ATOM     29  C   UNL     1      -6.487  10.933  18.587  0.00  0.00    +0.000 A 
ATOM     30  C   UNL     1      -6.524  11.568  19.828  0.00  0.00    +0.000 A 
ATOM     31  C   UNL     1      -5.409  12.265  20.294  0.00  0.00    +0.000 A 
ENDBRANCH  25  26
ENDBRANCH  24  25
ENDBRANCH  23  24
ENDBRANCH   6  18
TORSDOF 7
ENDMDL
MODEL 9
REMARK VINA RESULT:      -7.9      2.677      8.003
REMARK  Name = 
REMARK  7 active torsions:
REMARK  status: ('A' for Active; 'I' for Inactive)
REMARK    1  A    between atoms: C_2  and  O_3
REMARK    2  A    between atoms: C_2  and  C_4
REMARK    3  A    between atoms: C_6  and  C_7
REMARK    4  A    between atoms: C_12  and  C_13
REMARK    5  A    between atoms: C_18  and  O_19
REMARK    6  A    between atoms: O_19  and  C_20
REMARK    7  A    between atoms: C_20  and  C_21
REMARK                            x       y       z     vdW  Elec       q    Type
REMARK                         _______ _______ _______ _____ _____    ______ ____
ROOT
ATOM      1  C   UNL     1       3.416   4.386  19.407  0.00  0.00    +0.000 A 
ATOM      2  C   UNL     1       3.393   3.141  20.106  0.00  0.00    +0.000 A 
ATOM      3  C   UNL     1       2.486   2.849  21.120  0.00  0.00    +0.000 A 
ATOM      4  C   UNL     1       1.562   3.804  21.485  0.00  0.00    +0.000 A 
ATOM      5  C   UNL     1       1.535   5.025  20.808  0.00  0.00    +0.000 A 
ATOM      6  C   UNL     1       2.437   5.375  19.758  0.00  0.00    +0.000 A 
ENDROOT
BRANCH   1   9
ATOM      7  C   UNL     1       6.590   5.508  17.546  0.00  0.00    +0.000 A 
ATOM      8  C   UNL     1       5.651   5.278  18.578  0.00  0.00    +0.000 A 
ATOM      9  C   UNL     1       4.486   4.521  18.372  0.00  0.00    +0.000 A 
ATOM     10  C   UNL     1       4.340   3.914  17.108  0.00  0.00    +0.000 A 
ATOM     11  C   UNL     1       5.313   4.037  16.115  0.00  0.00    +0.000 A 
ATOM     12  C   UNL     1       6.433   4.838  16.326  0.00  0.00    +0.000 A 
ATOM     13 CL   UNL     1       7.590   4.901  15.045  0.00  0.00    +0.000 Cl
BRANCH   7  15
ATOM     14  O   UNL     1       7.834   7.418  16.834  0.00  0.00    +0.000 OA
ATOM     15  C   UNL     1       7.600   6.592  17.701  0.00  0.00    +0.000 C 
BRANCH  15  16
ATOM     16  O   UNL     1       8.202   6.647  18.907  0.00  0.00    +0.000 OA
ATOM     17  H   UNL     1       7.655   6.425  19.681  0.00  0.00    +0.000 HD
ENDBRANCH  15  16
ENDBRANCH   7  15
ENDBRANCH   1   9
BRANCH   6  18
ATOM     18  C   UNL     1       2.268   6.762  19.157  0.00  0.00    +0.000 A 
ATOM     19  C   UNL     1       2.734   6.995  17.838  0.00  0.00    +0.000 A 
ATOM     20  C   UNL     1       2.648   8.243  17.211  0.00  0.00    +0.000 A 
ATOM     21  C   UNL     1       2.009   9.289  17.850  0.00  0.00    +0.000 A 
ATOM     22  C   UNL     1       1.513   9.103  19.134  0.00  0.00    +0.000 A 
ATOM     23  C   UNL     1       1.706   7.887  19.812  0.00  0.00    +0.000 A 
BRANCH  23  24
ATOM     24  O   UNL     1       1.336   7.728  21.114  0.00  0.00    +0.000 OA
BRANCH  24  25
ATOM     25  C   UNL     1       1.749   8.676  22.095  0.00  0.00    +0.000 C 
BRANCH  25  26
ATOM     26  C   UNL     1       0.669   9.722  22.206  0.00  0.00    +0.000 A 
ATOM     27  C   UNL     1      -0.381   9.562  23.127  0.00  0.00    +0.000 A 
ATOM     28  C   UNL     1      -1.350  10.547  23.280  0.00  0.00    +0.000 A 
ATOM     29  C   UNL     1      -1.270  11.715  22.528  0.00  0.00    +0.000 A 
ATOM     30  C   UNL     1      -0.225  11.895  21.622  0.00  0.00    +0.000 A 
ATOM     31  C   UNL     1       0.743  10.903  21.460  0.00  0.00    +0.000 A 
ENDBRANCH  25  26
ENDBRANCH  24  25
ENDBRANCH  23  24
ENDBRANCH   6  18
TORSDOF 7
ENDMDL
