MODEL 1
REMARK VINA RESULT:      -7.5      0.000      0.000
REMARK  Name = 
REMARK  5 active torsions:
REMARK  status: ('A' for Active; 'I' for Inactive)
REMARK    1  A    between atoms: C_2  and  C_3
REMARK    2  A    between atoms: C_2  and  C_14
REMARK    3  A    between atoms: C_4  and  C_5
REMARK    4  A    between atoms: C_9  and  N_10
REMARK    5  A    between atoms: C_17  and  O_18
REMARK                            x       y       z     vdW  Elec       q    Type
REMARK                         _______ _______ _______ _____ _____    ______ ____
ROOT
ATOM      1  C   UNL     1       5.951   4.396  17.087  0.00  0.00    +0.000 C 
ATOM      2  C   UNL     1       5.415   4.803  15.926  0.00  0.00    +0.000 C 
ENDROOT
BRANCH   2   3
ATOM      3  C   UNL     1       6.024   4.518  14.619  0.00  0.00    +0.000 A 
ATOM      4  C   UNL     1       7.177   5.209  14.222  0.00  0.00    +0.000 A 
ATOM      5  C   UNL     1       7.727   5.013  12.949  0.00  0.00    +0.000 A 
ATOM      6  C   UNL     1       7.128   4.129  12.053  0.00  0.00    +0.000 A 
ATOM      7  C   UNL     1       5.977   3.437  12.443  0.00  0.00    +0.000 A 
ATOM      8  C   UNL     1       5.423   3.629  13.716  0.00  0.00    +0.000 A 
BRANCH   7   9
ATOM      9  N   UNL     1       5.327   2.510  11.509  0.00  0.00    +0.000 N 
ATOM     10  O   UNL     1       4.201   2.812  11.083  0.00  0.00    +0.000 OA
ATOM     11  O   UNL     1       5.942   1.479  11.197  0.00  0.00    +0.000 OA
ENDBRANCH   7   9
ENDBRANCH   2   3
BRANCH   1  13
ATOM     12  O   UNL     1       5.697   5.337  19.257  0.00  0.00    +0.000 OA
ATOM     13  C   UNL     1       5.242   4.621  18.375  0.00  0.00    +0.000 C 
BRANCH  13  14
ATOM     14  C   UNL     1       3.906   3.987  18.514  0.00  0.00    +0.000 A 
ATOM     15  C   UNL     1       2.784   4.799  18.725  0.00  0.00    +0.000 A 
ATOM     16  C   UNL     1       1.516   4.222  18.847  0.00  0.00    +0.000 A 
ATOM     17  C   UNL     1       1.384   2.838  18.769  0.00  0.00    +0.000 A 
ATOM     18  C   UNL     1       2.494   2.022  18.580  0.00  0.00    +0.000 A 
ATOM     19  C   UNL     1       3.758   2.594  18.455  0.00  0.00    +0.000 A 
BRANCH  17  20
ATOM     20  O   UNL     1       0.170   2.229  18.875  0.00  0.00    +0.000 OA
ATOM     21  H   UNL     1       0.304   1.300  19.123  0.00  0.00    +0.000 HD
ENDBRANCH  17  20
ENDBRANCH  13  14
ENDBRANCH   1  13
TORSDOF 5
ENDMDL
MODEL 2
REMARK VINA RESULT:      -7.5      0.127      1.286
REMARK  Name = 
REMARK  5 active torsions:
REMARK  status: ('A' for Active; 'I' for Inactive)
REMARK    1  A    between atoms: C_2  and  C_3
REMARK    2  A    between atoms: C_2  and  C_14
REMARK    3  A    between atoms: C_4  and  C_5
REMARK    4  A    between atoms: C_9  and  N_10
REMARK    5  A    between atoms: C_17  and  O_18
REMARK                            x       y       z     vdW  Elec       q    Type
REMARK                         _______ _______ _______ _____ _____    ______ ____
ROOT
ATOM      1  C   UNL     1       5.968   4.529  17.125  0.00  0.00    +0.000 C 
ATOM      2  C   UNL     1       5.327   4.690  15.958  0.00  0.00    +0.000 C 
ENDROOT
BRANCH   2   3
ATOM      3  C   UNL     1       5.961   4.438  14.655  0.00  0.00    +0.000 A 
ATOM      4  C   UNL     1       7.118   5.141  14.296  0.00  0.00    +0.000 A 
ATOM      5  C   UNL     1       7.692   4.979  13.029  0.00  0.00    +0.000 A 
ATOM      6  C   UNL     1       7.111   4.116  12.100  0.00  0.00    +0.000 A 
ATOM      7  C   UNL     1       5.955   3.412  12.452  0.00  0.00    +0.000 A 
ATOM      8  C   UNL     1       5.378   3.572  13.719  0.00  0.00    +0.000 A 
BRANCH   7   9
ATOM      9  N   UNL     1       5.324   2.507  11.484  0.00  0.00    +0.000 N 
ATOM     10  O   UNL     1       5.940   1.475  11.171  0.00  0.00    +0.000 OA
ATOM     11  O   UNL     1       4.211   2.823  11.038  0.00  0.00    +0.000 OA
ENDBRANCH   7   9
ENDBRANCH   2   3
BRANCH   1  13
ATOM     12  O   UNL     1       5.697   5.380  19.330  0.00  0.00    +0.000 OA
ATOM     13  C   UNL     1       5.252   4.697  18.418  0.00  0.00    +0.000 C 
BRANCH  13  14
ATOM     14  C   UNL     1       3.920   4.047  18.525  0.00  0.00    +0.000 A 
ATOM     15  C   UNL     1       3.848   2.653  18.642  0.00  0.00    +0.000 A 
ATOM     16  C   UNL     1       2.605   2.023  18.755  0.00  0.00    +0.000 A 
ATOM     17  C   UNL     1       1.445   2.793  18.739  0.00  0.00    +0.000 A 
ATOM     18  C   UNL     1       1.504   4.175  18.603  0.00  0.00    +0.000 A 
ATOM     19  C   UNL     1       2.741   4.806  18.493  0.00  0.00    +0.000 A 
BRANCH  17  20
ATOM     20  O   UNL     1       0.211   2.226  18.854  0.00  0.00    +0.000 OA
ATOM     21  H   UNL     1      -0.133   2.039  17.965  0.00  0.00    +0.000 HD
ENDBRANCH  17  20
ENDBRANCH  13  14
ENDBRANCH   1  13
TORSDOF 5
ENDMDL
MODEL 3
REMARK VINA RESULT:      -7.5      0.991      1.447
REMARK  Name = 
REMARK  5 active torsions:
REMARK  status: ('A' for Active; 'I' for Inactive)
REMARK    1  A    between atoms: C_2  and  C_3
REMARK    2  A    between atoms: C_2  and  C_14
REMARK    3  A    between atoms: C_4  and  C_5
REMARK    4  A    between atoms: C_9  and  N_10
REMARK    5  A    between atoms: C_17  and  O_18
REMARK                            x       y       z     vdW  Elec       q    Type
REMARK                         _______ _______ _______ _____ _____    ______ ____
ROOT
ATOM      1  C   UNL     1       4.981   5.068  16.318  0.00  0.00    +0.000 C 
ATOM      2  C   UNL     1       6.231   4.866  15.876  0.00  0.00    +0.000 C 
ENDROOT
BRANCH   2   3
ATOM      3  C   UNL     1       6.545   4.573  14.469  0.00  0.00    +0.000 A 
ATOM      4  C   UNL     1       7.580   5.265  13.826  0.00  0.00    +0.000 A 
ATOM      5  C   UNL     1       7.842   5.061  12.467  0.00  0.00    +0.000 A 
ATOM      6  C   UNL     1       7.067   4.168  11.728  0.00  0.00    +0.000 A 
ATOM      7  C   UNL     1       6.031   3.475  12.362  0.00  0.00    +0.000 A 
ATOM      8  C   UNL     1       5.766   3.676  13.723  0.00  0.00    +0.000 A 
BRANCH   7   9
ATOM      9  N   UNL     1       5.199   2.539  11.598  0.00  0.00    +0.000 N 
ATOM     10  O   UNL     1       5.694   1.442  11.294  0.00  0.00    +0.000 OA
ATOM     11  O   UNL     1       4.049   2.897  11.303  0.00  0.00    +0.000 OA
ENDBRANCH   7   9
ENDBRANCH   2   3
BRANCH   1  13
ATOM     12  O   UNL     1       5.418   6.285  18.315  0.00  0.00    +0.000 OA
ATOM     13  C   UNL     1       4.727   5.463  17.730  0.00  0.00    +0.000 C 
BRANCH  13  14
ATOM     14  C   UNL     1       3.536   4.858  18.381  0.00  0.00    +0.000 A 
ATOM     15  C   UNL     1       2.673   4.060  17.620  0.00  0.00    +0.000 A 
ATOM     16  C   UNL     1       1.553   3.473  18.217  0.00  0.00    +0.000 A 
ATOM     17  C   UNL     1       1.301   3.700  19.567  0.00  0.00    +0.000 A 
ATOM     18  C   UNL     1       2.140   4.507  20.327  0.00  0.00    +0.000 A 
ATOM     19  C   UNL     1       3.258   5.091  19.736  0.00  0.00    +0.000 A 
BRANCH  17  20
ATOM     20  O   UNL     1       0.227   3.145  20.196  0.00  0.00    +0.000 OA
ATOM     21  H   UNL     1       0.016   3.673  20.984  0.00  0.00    +0.000 HD
ENDBRANCH  17  20
ENDBRANCH  13  14
ENDBRANCH   1  13
TORSDOF 5
ENDMDL
MODEL 4
REMARK VINA RESULT:      -7.5      0.872      1.203
REMARK  Name = 
REMARK  5 active torsions:
REMARK  status: ('A' for Active; 'I' for Inactive)
REMARK    1  A    between atoms: C_2  and  C_3
REMARK    2  A    between atoms: C_2  and  C_14
REMARK    3  A    between atoms: C_4  and  C_5
REMARK    4  A    between atoms: C_9  and  N_10
REMARK    5  A    between atoms: C_17  and  O_18
REMARK                            x       y       z     vdW  Elec       q    Type
REMARK                         _______ _______ _______ _____ _____    ______ ____
ROOT
ATOM      1  C   UNL     1       5.134   4.831  16.450  0.00  0.00    +0.000 C 
ATOM      2  C   UNL     1       6.374   4.822  15.939  0.00  0.00    +0.000 C 
ENDROOT
BRANCH   2   3
ATOM      3  C   UNL     1       6.651   4.579  14.515  0.00  0.00    +0.000 A 
ATOM      4  C   UNL     1       7.646   5.319  13.862  0.00  0.00    +0.000 A 
ATOM      5  C   UNL     1       7.871   5.163  12.490  0.00  0.00    +0.000 A 
ATOM      6  C   UNL     1       7.098   4.270  11.748  0.00  0.00    +0.000 A 
ATOM      7  C   UNL     1       6.102   3.529  12.393  0.00  0.00    +0.000 A 
ATOM      8  C   UNL     1       5.874   3.682  13.767  0.00  0.00    +0.000 A 
BRANCH   7   9
ATOM      9  N   UNL     1       5.273   2.592  11.627  0.00  0.00    +0.000 N 
ATOM     10  O   UNL     1       5.753   1.478  11.362  0.00  0.00    +0.000 OA
ATOM     11  O   UNL     1       4.139   2.966  11.291  0.00  0.00    +0.000 OA
ENDBRANCH   7   9
ENDBRANCH   2   3
BRANCH   1  13
ATOM     12  O   UNL     1       5.647   5.925  18.500  0.00  0.00    +0.000 OA
ATOM     13  C   UNL     1       4.900   5.183  17.876  0.00  0.00    +0.000 C 
BRANCH  13  14
ATOM     14  C   UNL     1       3.662   4.644  18.496  0.00  0.00    +0.000 A 
ATOM     15  C   UNL     1       3.332   5.024  19.803  0.00  0.00    +0.000 A 
ATOM     16  C   UNL     1       2.166   4.536  20.401  0.00  0.00    +0.000 A 
ATOM     17  C   UNL     1       1.346   3.664  19.688  0.00  0.00    +0.000 A 
ATOM     18  C   UNL     1       1.675   3.264  18.398  0.00  0.00    +0.000 A 
ATOM     19  C   UNL     1       2.835   3.751  17.800  0.00  0.00    +0.000 A 
BRANCH  17  20
ATOM     20  O   UNL     1       0.196   3.167  20.225  0.00  0.00    +0.000 OA
ATOM     21  H   UNL     1       0.201   3.326  21.183  0.00  0.00    +0.000 HD
ENDBRANCH  17  20
ENDBRANCH  13  14
ENDBRANCH   1  13
TORSDOF 5
ENDMDL
MODEL 5
REMARK VINA RESULT:      -7.4      4.656      8.178
REMARK  Name = 
REMARK  5 active torsions:
REMARK  status: ('A' for Active; 'I' for Inactive)
REMARK    1  A    between atoms: C_2  and  C_3
REMARK    2  A    between atoms: C_2  and  C_14
REMARK    3  A    between atoms: C_4  and  C_5
REMARK    4  A    between atoms: C_9  and  N_10
REMARK    5  A    between atoms: C_17  and  O_18
REMARK                            x       y       z     vdW  Elec       q    Type
REMARK                         _______ _______ _______ _____ _____    ______ ____
ROOT
ATOM      1  C   UNL     1       3.730   5.564  19.414  0.00  0.00    +0.000 C 
ATOM      2  C   UNL     1       3.055   6.297  18.516  0.00  0.00    +0.000 C 
ENDROOT
BRANCH   2   3
ATOM      3  C   UNL     1       2.270   7.486  18.881  0.00  0.00    +0.000 A 
ATOM      4  C   UNL     1       2.035   8.485  17.927  0.00  0.00    +0.000 A 
ATOM      5  C   UNL     1       1.361   9.662  18.274  0.00  0.00    +0.000 A 
ATOM      6  C   UNL     1       0.919   9.860  19.581  0.00  0.00    +0.000 A 
ATOM      7  C   UNL     1       1.151   8.867  20.538  0.00  0.00    +0.000 A 
ATOM      8  C   UNL     1       1.825   7.687  20.195  0.00  0.00    +0.000 A 
BRANCH   7   9
ATOM      9  N   UNL     1       0.702   9.061  21.921  0.00  0.00    +0.000 N 
ATOM     10  O   UNL     1      -0.479   8.789  22.190  0.00  0.00    +0.000 OA
ATOM     11  O   UNL     1       1.529   9.483  22.744  0.00  0.00    +0.000 OA
ENDBRANCH   7   9
ENDBRANCH   2   3
BRANCH   1  13
ATOM     12  O   UNL     1       4.589   3.349  19.552  0.00  0.00    +0.000 OA
ATOM     13  C   UNL     1       4.592   4.432  18.981  0.00  0.00    +0.000 C 
BRANCH  13  14
ATOM     14  C   UNL     1       5.415   4.655  17.764  0.00  0.00    +0.000 A 
ATOM     15  C   UNL     1       5.135   3.917  16.607  0.00  0.00    +0.000 A 
ATOM     16  C   UNL     1       5.890   4.120  15.448  0.00  0.00    +0.000 A 
ATOM     17  C   UNL     1       6.925   5.051  15.461  0.00  0.00    +0.000 A 
ATOM     18  C   UNL     1       7.225   5.773  16.610  0.00  0.00    +0.000 A 
ATOM     19  C   UNL     1       6.472   5.575  17.766  0.00  0.00    +0.000 A 
BRANCH  17  20
ATOM     20  O   UNL     1       7.685   5.289  14.355  0.00  0.00    +0.000 OA
ATOM     21  H   UNL     1       8.408   4.641  14.324  0.00  0.00    +0.000 HD
ENDBRANCH  17  20
ENDBRANCH  13  14
ENDBRANCH   1  13
TORSDOF 5
ENDMDL
MODEL 6
REMARK VINA RESULT:      -7.4      3.661      7.498
REMARK  Name = 
REMARK  5 active torsions:
REMARK  status: ('A' for Active; 'I' for Inactive)
REMARK    1  A    between atoms: C_2  and  C_3
REMARK    2  A    between atoms: C_2  and  C_14
REMARK    3  A    between atoms: C_4  and  C_5
REMARK    4  A    between atoms: C_9  and  N_10
REMARK    5  A    between atoms: C_17  and  O_18
REMARK                            x       y       z     vdW  Elec       q    Type
REMARK                         _______ _______ _______ _____ _____    ______ ____
ROOT
ATOM      1  C   UNL     1       5.065   3.792  16.850  0.00  0.00    +0.000 C 
ATOM      2  C   UNL     1       4.149   4.519  17.508  0.00  0.00    +0.000 C 
ENDROOT
BRANCH   2   3
ATOM      3  C   UNL     1       3.022   3.917  18.236  0.00  0.00    +0.000 A 
ATOM      4  C   UNL     1       1.753   3.872  17.643  0.00  0.00    +0.000 A 
ATOM      5  C   UNL     1       0.649   3.379  18.348  0.00  0.00    +0.000 A 
ATOM      6  C   UNL     1       0.797   2.930  19.660  0.00  0.00    +0.000 A 
ATOM      7  C   UNL     1       2.060   2.972  20.258  0.00  0.00    +0.000 A 
ATOM      8  C   UNL     1       3.168   3.465  19.556  0.00  0.00    +0.000 A 
BRANCH   7   9
ATOM      9  N   UNL     1       2.233   2.512  21.641  0.00  0.00    +0.000 N 
ATOM     10  O   UNL     1       1.236   2.519  22.381  0.00  0.00    +0.000 OA
ATOM     11  O   UNL     1       3.363   2.141  21.989  0.00  0.00    +0.000 OA
ENDBRANCH   7   9
ENDBRANCH   2   3
BRANCH   1  13
ATOM     12  O   UNL     1       6.607   4.175  15.079  0.00  0.00    +0.000 OA
ATOM     13  C   UNL     1       6.243   4.443  16.216  0.00  0.00    +0.000 C 
BRANCH  13  14
ATOM     14  C   UNL     1       6.922   5.499  17.011  0.00  0.00    +0.000 A 
ATOM     15  C   UNL     1       7.507   5.160  18.237  0.00  0.00    +0.000 A 
ATOM     16  C   UNL     1       8.160   6.137  18.995  0.00  0.00    +0.000 A 
ATOM     17  C   UNL     1       8.211   7.446  18.524  0.00  0.00    +0.000 A 
ATOM     18  C   UNL     1       7.616   7.798  17.318  0.00  0.00    +0.000 A 
ATOM     19  C   UNL     1       6.967   6.826  16.559  0.00  0.00    +0.000 A 
BRANCH  17  20
ATOM     20  O   UNL     1       8.842   8.433  19.222  0.00  0.00    +0.000 OA
ATOM     21  H   UNL     1       8.233   8.782  19.893  0.00  0.00    +0.000 HD
ENDBRANCH  17  20
ENDBRANCH  13  14
ENDBRANCH   1  13
TORSDOF 5
ENDMDL
MODEL 7
REMARK VINA RESULT:      -7.4      4.855      6.380
REMARK  Name = 
REMARK  5 active torsions:
REMARK  status: ('A' for Active; 'I' for Inactive)
REMARK    1  A    between atoms: C_2  and  C_3
REMARK    2  A    between atoms: C_2  and  C_14
REMARK    3  A    between atoms: C_4  and  C_5
REMARK    4  A    between atoms: C_9  and  N_10
REMARK    5  A    between atoms: C_17  and  O_18
REMARK                            x       y       z     vdW  Elec       q    Type
REMARK                         _______ _______ _______ _____ _____    ______ ____
ROOT
ATOM      1  C   UNL     1       2.222   7.884  18.327  0.00  0.00    +0.000 C 
ATOM      2  C   UNL     1       3.367   7.712  17.649  0.00  0.00    +0.000 C 
ENDROOT
BRANCH   2   3
ATOM      3  C   UNL     1       3.952   6.388  17.389  0.00  0.00    +0.000 A 
ATOM      4  C   UNL     1       3.219   5.232  17.686  0.00  0.00    +0.000 A 
ATOM      5  C   UNL     1       3.787   3.962  17.524  0.00  0.00    +0.000 A 
ATOM      6  C   UNL     1       5.098   3.832  17.069  0.00  0.00    +0.000 A 
ATOM      7  C   UNL     1       5.836   4.982  16.772  0.00  0.00    +0.000 A 
ATOM      8  C   UNL     1       5.271   6.255  16.933  0.00  0.00    +0.000 A 
BRANCH   7   9
ATOM      9  N   UNL     1       7.221   4.865  16.302  0.00  0.00    +0.000 N 
ATOM     10  O   UNL     1       8.018   4.224  17.005  0.00  0.00    +0.000 OA
ATOM     11  O   UNL     1       7.514   5.410  15.227  0.00  0.00    +0.000 OA
ENDBRANCH   7   9
ENDBRANCH   2   3
BRANCH   1  13
ATOM     12  O   UNL     1       1.574  10.038  17.552  0.00  0.00    +0.000 OA
ATOM     13  C   UNL     1       1.619   9.236  18.475  0.00  0.00    +0.000 C 
BRANCH  13  14
ATOM     14  C   UNL     1       1.001   9.544  19.790  0.00  0.00    +0.000 A 
ATOM     15  C   UNL     1       1.195   8.661  20.859  0.00  0.00    +0.000 A 
ATOM     16  C   UNL     1       0.631   8.938  22.108  0.00  0.00    +0.000 A 
ATOM     17  C   UNL     1      -0.131  10.092  22.272  0.00  0.00    +0.000 A 
ATOM     18  C   UNL     1      -0.347  10.966  21.213  0.00  0.00    +0.000 A 
ATOM     19  C   UNL     1       0.216  10.693  19.968  0.00  0.00    +0.000 A 
BRANCH  17  20
ATOM     20  O   UNL     1      -0.696  10.410  23.471  0.00  0.00    +0.000 OA
ATOM     21  H   UNL     1      -1.026   9.598  23.889  0.00  0.00    +0.000 HD
ENDBRANCH  17  20
ENDBRANCH  13  14
ENDBRANCH   1  13
TORSDOF 5
ENDMDL
MODEL 8
REMARK VINA RESULT:      -7.4      4.640      8.159
REMARK  Name = 
REMARK  5 active torsions:
REMARK  status: ('A' for Active; 'I' for Inactive)
REMARK    1  A    between atoms: C_2  and  C_3
REMARK    2  A    between atoms: C_2  and  C_14
REMARK    3  A    between atoms: C_4  and  C_5
REMARK    4  A    between atoms: C_9  and  N_10
REMARK    5  A    between atoms: C_17  and  O_18
REMARK                            x       y       z     vdW  Elec       q    Type
REMARK                         _______ _______ _______ _____ _____    ______ ____
ROOT
ATOM      1  C   UNL     1       2.875   5.191  18.504  0.00  0.00    +0.000 C 
ATOM      2  C   UNL     1       3.233   6.481  18.418  0.00  0.00    +0.000 C 
ENDROOT
BRANCH   2   3
ATOM      3  C   UNL     1       2.334   7.587  18.781  0.00  0.00    +0.000 A 
ATOM      4  C   UNL     1       1.976   8.539  17.817  0.00  0.00    +0.000 A 
ATOM      5  C   UNL     1       1.189   9.645  18.160  0.00  0.00    +0.000 A 
ATOM      6  C   UNL     1       0.755   9.818  19.474  0.00  0.00    +0.000 A 
ATOM      7  C   UNL     1       1.110   8.872  20.441  0.00  0.00    +0.000 A 
ATOM      8  C   UNL     1       1.897   7.764  20.102  0.00  0.00    +0.000 A 
BRANCH   7   9
ATOM      9  N   UNL     1       0.670   9.043  21.830  0.00  0.00    +0.000 N 
ATOM     10  O   UNL     1      -0.489   8.702  22.117  0.00  0.00    +0.000 OA
ATOM     11  O   UNL     1       1.483   9.516  22.639  0.00  0.00    +0.000 OA
ENDBRANCH   7   9
ENDBRANCH   2   3
BRANCH   1  13
ATOM     12  O   UNL     1       3.762   2.994  18.722  0.00  0.00    +0.000 OA
ATOM     13  C   UNL     1       3.855   4.107  18.223  0.00  0.00    +0.000 C 
BRANCH  13  14
ATOM     14  C   UNL     1       4.924   4.421  17.240  0.00  0.00    +0.000 A 
ATOM     15  C   UNL     1       6.233   4.622  17.696  0.00  0.00    +0.000 A 
ATOM     16  C   UNL     1       7.255   4.907  16.785  0.00  0.00    +0.000 A 
ATOM     17  C   UNL     1       6.955   5.000  15.428  0.00  0.00    +0.000 A 
ATOM     18  C   UNL     1       5.656   4.823  14.967  0.00  0.00    +0.000 A 
ATOM     19  C   UNL     1       4.636   4.536  15.872  0.00  0.00    +0.000 A 
BRANCH  17  20
ATOM     20  O   UNL     1       7.918   5.269  14.502  0.00  0.00    +0.000 OA
ATOM     21  H   UNL     1       8.755   4.873  14.794  0.00  0.00    +0.000 HD
ENDBRANCH  17  20
ENDBRANCH  13  14
ENDBRANCH   1  13
TORSDOF 5
ENDMDL
MODEL 9
REMARK VINA RESULT:      -7.3      4.521      5.620
REMARK  Name = 
REMARK  5 active torsions:
REMARK  status: ('A' for Active; 'I' for Inactive)
REMARK    1  A    between atoms: C_2  and  C_3
REMARK    2  A    between atoms: C_2  and  C_14
REMARK    3  A    between atoms: C_4  and  C_5
REMARK    4  A    between atoms: C_9  and  N_10
REMARK    5  A    between atoms: C_17  and  O_18
REMARK                            x       y       z     vdW  Elec       q    Type
REMARK                         _______ _______ _______ _____ _____    ______ ____
ROOT
ATOM      1  C   UNL     1       2.501   7.674  18.084  0.00  0.00    +0.000 C 
ATOM      2  C   UNL     1       3.647   7.550  17.399  0.00  0.00    +0.000 C 
ENDROOT
BRANCH   2   3
ATOM      3  C   UNL     1       4.220   6.247  17.026  0.00  0.00    +0.000 A 
ATOM      4  C   UNL     1       3.906   5.107  17.778  0.00  0.00    +0.000 A 
ATOM      5  C   UNL     1       4.503   3.874  17.493  0.00  0.00    +0.000 A 
ATOM      6  C   UNL     1       5.429   3.765  16.456  0.00  0.00    +0.000 A 
ATOM      7  C   UNL     1       5.748   4.899  15.702  0.00  0.00    +0.000 A 
ATOM      8  C   UNL     1       5.152   6.135  15.985  0.00  0.00    +0.000 A 
BRANCH   7   9
ATOM      9  N   UNL     1       6.727   4.805  14.613  0.00  0.00    +0.000 N 
ATOM     10  O   UNL     1       6.470   4.042  13.668  0.00  0.00    +0.000 OA
ATOM     11  O   UNL     1       7.753   5.496  14.698  0.00  0.00    +0.000 OA
ENDBRANCH   7   9
ENDBRANCH   2   3
BRANCH   1  13
ATOM     12  O   UNL     1       1.957   9.923  17.528  0.00  0.00    +0.000 OA
ATOM     13  C   UNL     1       1.911   9.014  18.347  0.00  0.00    +0.000 C 
BRANCH  13  14
ATOM     14  C   UNL     1       1.191   9.179  19.636  0.00  0.00    +0.000 A 
ATOM     15  C   UNL     1       0.249  10.207  19.765  0.00  0.00    +0.000 A 
ATOM     16  C   UNL     1      -0.447  10.372  20.966  0.00  0.00    +0.000 A 
ATOM     17  C   UNL     1      -0.185   9.514  22.031  0.00  0.00    +0.000 A 
ATOM     18  C   UNL     1       0.763   8.503  21.921  0.00  0.00    +0.000 A 
ATOM     19  C   UNL     1       1.456   8.335  20.724  0.00  0.00    +0.000 A 
BRANCH  17  20
ATOM     20  O   UNL     1      -0.842   9.630  23.220  0.00  0.00    +0.000 OA
ATOM     21  H   UNL     1      -0.202   9.861  23.912  0.00  0.00    +0.000 HD
ENDBRANCH  17  20
ENDBRANCH  13  14
ENDBRANCH   1  13
TORSDOF 5
ENDMDL
