MODEL 1
REMARK VINA RESULT:      -8.1      0.000      0.000
REMARK  Name = 
REMARK  6 active torsions:
REMARK  status: ('A' for Active; 'I' for Inactive)
REMARK    1  A    between atoms: N_1  and  S_2
REMARK    2  A    between atoms: S_2  and  C_5
REMARK    3  A    between atoms: C_8  and  N_9
REMARK    4  A    between atoms: N_12  and  C_13
REMARK    5  A    between atoms: C_13  and  C_14
REMARK    6  A    between atoms: C_14  and  C_15
REMARK                            x       y       z     vdW  Elec       q    Type
REMARK                         _______ _______ _______ _____ _____    ______ ____
ROOT
ATOM      1  N   UNL     1       2.267   6.511  20.084  0.00  0.00    +0.000 N 
ATOM      2  C   UNL     1       1.914   5.314  20.867  0.00  0.00    +0.000 C 
ATOM      3  C   UNL     1       1.171   4.267  20.003  0.00  0.00    +0.000 C 
ATOM      4  N   UNL     1       1.788   3.941  18.692  0.00  0.00    +0.000 NA
ATOM      5  C   UNL     1       2.028   5.209  17.971  0.00  0.00    +0.000 C 
ATOM      6  C   UNL     1       2.842   6.276  18.745  0.00  0.00    +0.000 C 
ENDROOT
BRANCH   1  10
ATOM      7  C   UNL     1       0.537  10.238  20.929  0.00  0.00    +0.000 A 
ATOM      8  C   UNL     1       0.679   9.289  21.943  0.00  0.00    +0.000 A 
ATOM      9  C   UNL     1       1.260   8.059  21.634  0.00  0.00    +0.000 A 
ATOM     10  C   UNL     1       1.688   7.741  20.337  0.00  0.00    +0.000 A 
ATOM     11  C   UNL     1       1.508   8.714  19.338  0.00  0.00    +0.000 A 
ATOM     12  C   UNL     1       0.935   9.954  19.628  0.00  0.00    +0.000 A 
BRANCH   7  13
ATOM     13  S   UNL     1      -0.090  11.840  21.342  0.00  0.00    +0.000 S 
ATOM     14  O   UNL     1      -1.252  12.116  20.548  0.00  0.00    +0.000 OA
ATOM     15  O   UNL     1       1.030  12.765  21.433  0.00  0.00    +0.000 OA
BRANCH  13  16
ATOM     16  N   UNL     1      -0.601  11.603  22.915  0.00  0.00    +0.000 NA
ATOM     17  H   UNL     1       0.199  11.385  23.505  0.00  0.00    +0.000 HD
ATOM     18  H   UNL     1      -1.355  10.924  22.954  0.00  0.00    +0.000 HD
ENDBRANCH  13  16
ENDBRANCH   7  13
ENDBRANCH   1  10
BRANCH   4  19
ATOM     19  C   UNL     1       3.037   3.199  18.862  0.00  0.00    +0.000 C 
BRANCH  19  20
ATOM     20  C   UNL     1       3.807   2.985  17.526  0.00  0.00    +0.000 C 
BRANCH  20  21
ATOM     21  C   UNL     1       4.933   3.977  17.144  0.00  0.00    +0.000 C 
ATOM     22  O   UNL     1       5.465   3.452  15.914  0.00  0.00    +0.000 OA
ATOM     23  C   UNL     1       5.403   4.472  14.940  0.00  0.00    +0.000 C 
ATOM     24  C   UNL     1       6.411   5.548  15.307  0.00  0.00    +0.000 C 
ATOM     25  C   UNL     1       6.705   5.665  16.800  0.00  0.00    +0.000 A 
ATOM     26  C   UNL     1       7.649   6.623  17.182  0.00  0.00    +0.000 A 
ATOM     27  C   UNL     1       7.993   6.763  18.518  0.00  0.00    +0.000 A 
ATOM     28  C   UNL     1       7.383   5.940  19.467  0.00  0.00    +0.000 A 
ATOM     29  C   UNL     1       6.410   4.971  19.101  0.00  0.00    +0.000 A 
ATOM     30  C   UNL     1       6.054   4.810  17.754  0.00  0.00    +0.000 A 
ENDBRANCH  20  21
ENDBRANCH  19  20
ENDBRANCH   4  19
TORSDOF 6
ENDMDL
MODEL 2
REMARK VINA RESULT:      -8.0      0.816      1.037
REMARK  Name = 
REMARK  6 active torsions:
REMARK  status: ('A' for Active; 'I' for Inactive)
REMARK    1  A    between atoms: N_1  and  S_2
REMARK    2  A    between atoms: S_2  and  C_5
REMARK    3  A    between atoms: C_8  and  N_9
REMARK    4  A    between atoms: N_12  and  C_13
REMARK    5  A    between atoms: C_13  and  C_14
REMARK    6  A    between atoms: C_14  and  C_15
REMARK                            x       y       z     vdW  Elec       q    Type
REMARK                         _______ _______ _______ _____ _____    ______ ____
ROOT
ATOM      1  N   UNL     1       2.344   6.478  19.763  0.00  0.00    +0.000 N 
ATOM      2  C   UNL     1       2.135   5.387  20.731  0.00  0.00    +0.000 C 
ATOM      3  C   UNL     1       1.335   4.218  20.106  0.00  0.00    +0.000 C 
ATOM      4  N   UNL     1       1.803   3.736  18.782  0.00  0.00    +0.000 NA
ATOM      5  C   UNL     1       1.906   4.902  17.881  0.00  0.00    +0.000 C 
ATOM      6  C   UNL     1       2.764   6.081  18.404  0.00  0.00    +0.000 C 
ENDROOT
BRANCH   1  10
ATOM      7  C   UNL     1       0.565  10.233  20.336  0.00  0.00    +0.000 A 
ATOM      8  C   UNL     1       0.588   9.306  21.379  0.00  0.00    +0.000 A 
ATOM      9  C   UNL     1       1.189   8.065  21.161  0.00  0.00    +0.000 A 
ATOM     10  C   UNL     1       1.752   7.717  19.925  0.00  0.00    +0.000 A 
ATOM     11  C   UNL     1       1.690   8.668  18.893  0.00  0.00    +0.000 A 
ATOM     12  C   UNL     1       1.100   9.918  19.092  0.00  0.00    +0.000 A 
BRANCH   7  13
ATOM     13  S   UNL     1      -0.089  11.848  20.645  0.00  0.00    +0.000 S 
ATOM     14  O   UNL     1       0.252  12.252  21.978  0.00  0.00    +0.000 OA
ATOM     15  O   UNL     1      -1.453  11.898  20.139  0.00  0.00    +0.000 OA
BRANCH  13  16
ATOM     16  N   UNL     1       0.812  12.779  19.590  0.00  0.00    +0.000 NA
ATOM     17  H   UNL     1       1.363  13.455  20.115  0.00  0.00    +0.000 HD
ATOM     18  H   UNL     1       0.224  13.181  18.866  0.00  0.00    +0.000 HD
ENDBRANCH  13  16
ENDBRANCH   7  13
ENDBRANCH   1  10
BRANCH   4  19
ATOM     19  C   UNL     1       3.092   3.051  18.890  0.00  0.00    +0.000 C 
BRANCH  19  20
ATOM     20  C   UNL     1       3.812   2.884  17.520  0.00  0.00    +0.000 C 
BRANCH  20  21
ATOM     21  C   UNL     1       4.928   3.884  17.134  0.00  0.00    +0.000 C 
ATOM     22  O   UNL     1       5.473   3.352  15.913  0.00  0.00    +0.000 OA
ATOM     23  C   UNL     1       5.407   4.361  14.928  0.00  0.00    +0.000 C 
ATOM     24  C   UNL     1       6.400   5.452  15.290  0.00  0.00    +0.000 C 
ATOM     25  C   UNL     1       6.683   5.588  16.783  0.00  0.00    +0.000 A 
ATOM     26  C   UNL     1       7.614   6.561  17.160  0.00  0.00    +0.000 A 
ATOM     27  C   UNL     1       7.948   6.719  18.497  0.00  0.00    +0.000 A 
ATOM     28  C   UNL     1       7.342   5.899  19.451  0.00  0.00    +0.000 A 
ATOM     29  C   UNL     1       6.382   4.916  19.089  0.00  0.00    +0.000 A 
ATOM     30  C   UNL     1       6.037   4.736  17.742  0.00  0.00    +0.000 A 
ENDBRANCH  20  21
ENDBRANCH  19  20
ENDBRANCH   4  19
TORSDOF 6
ENDMDL
MODEL 3
REMARK VINA RESULT:      -8.0      0.580      1.077
REMARK  Name = 
REMARK  6 active torsions:
REMARK  status: ('A' for Active; 'I' for Inactive)
REMARK    1  A    between atoms: N_1  and  S_2
REMARK    2  A    between atoms: S_2  and  C_5
REMARK    3  A    between atoms: C_8  and  N_9
REMARK    4  A    between atoms: N_12  and  C_13
REMARK    5  A    between atoms: C_13  and  C_14
REMARK    6  A    between atoms: C_14  and  C_15
REMARK                            x       y       z     vdW  Elec       q    Type
REMARK                         _______ _______ _______ _____ _____    ______ ____
ROOT
ATOM      1  N   UNL     1       2.326   6.451  19.698  0.00  0.00    +0.000 N 
ATOM      2  C   UNL     1       2.153   5.353  20.664  0.00  0.00    +0.000 C 
ATOM      3  C   UNL     1       1.308   4.200  20.071  0.00  0.00    +0.000 C 
ATOM      4  N   UNL     1       1.701   3.727  18.719  0.00  0.00    +0.000 NA
ATOM      5  C   UNL     1       1.772   4.901  17.825  0.00  0.00    +0.000 C 
ATOM      6  C   UNL     1       2.669   6.064  18.315  0.00  0.00    +0.000 C 
ENDROOT
BRANCH   1  10
ATOM      7  C   UNL     1       0.586  10.230  20.237  0.00  0.00    +0.000 A 
ATOM      8  C   UNL     1       1.151   9.892  19.006  0.00  0.00    +0.000 A 
ATOM      9  C   UNL     1       1.720   8.627  18.854  0.00  0.00    +0.000 A 
ATOM     10  C   UNL     1       1.758   7.695  19.902  0.00  0.00    +0.000 A 
ATOM     11  C   UNL     1       1.199   8.081  21.133  0.00  0.00    +0.000 A 
ATOM     12  C   UNL     1       0.617   9.339  21.304  0.00  0.00    +0.000 A 
BRANCH   7  13
ATOM     13  S   UNL     1      -0.242  11.786  20.397  0.00  0.00    +0.000 S 
ATOM     14  O   UNL     1      -1.645  11.604  20.167  0.00  0.00    +0.000 OA
ATOM     15  O   UNL     1       0.538  12.797  19.699  0.00  0.00    +0.000 OA
BRANCH  13  16
ATOM     16  N   UNL     1      -0.035  12.108  22.023  0.00  0.00    +0.000 NA
ATOM     17  H   UNL     1       0.759  12.730  22.150  0.00  0.00    +0.000 HD
ATOM     18  H   UNL     1       0.009  11.247  22.561  0.00  0.00    +0.000 HD
ENDBRANCH  13  16
ENDBRANCH   7  13
ENDBRANCH   1  10
BRANCH   4  19
ATOM     19  C   UNL     1       2.985   3.026  18.754  0.00  0.00    +0.000 C 
BRANCH  19  20
ATOM     20  C   UNL     1       3.665   2.926  17.357  0.00  0.00    +0.000 C 
BRANCH  20  21
ATOM     21  C   UNL     1       4.840   3.878  17.027  0.00  0.00    +0.000 C 
ATOM     22  O   UNL     1       5.430   3.315  15.841  0.00  0.00    +0.000 OA
ATOM     23  C   UNL     1       5.458   4.317  14.848  0.00  0.00    +0.000 C 
ATOM     24  C   UNL     1       6.473   5.371  15.257  0.00  0.00    +0.000 C 
ATOM     25  C   UNL     1       6.679   5.509  16.763  0.00  0.00    +0.000 A 
ATOM     26  C   UNL     1       7.626   6.446  17.184  0.00  0.00    +0.000 A 
ATOM     27  C   UNL     1       7.892   6.603  18.537  0.00  0.00    +0.000 A 
ATOM     28  C   UNL     1       7.202   5.815  19.461  0.00  0.00    +0.000 A 
ATOM     29  C   UNL     1       6.224   4.868  19.053  0.00  0.00    +0.000 A 
ATOM     30  C   UNL     1       5.947   4.691  17.690  0.00  0.00    +0.000 A 
ENDBRANCH  20  21
ENDBRANCH  19  20
ENDBRANCH   4  19
TORSDOF 6
ENDMDL
MODEL 4
REMARK VINA RESULT:      -7.7      1.073      1.533
REMARK  Name = 
REMARK  6 active torsions:
REMARK  status: ('A' for Active; 'I' for Inactive)
REMARK    1  A    between atoms: N_1  and  S_2
REMARK    2  A    between atoms: S_2  and  C_5
REMARK    3  A    between atoms: C_8  and  N_9
REMARK    4  A    between atoms: N_12  and  C_13
REMARK    5  A    between atoms: C_13  and  C_14
REMARK    6  A    between atoms: C_14  and  C_15
REMARK                            x       y       z     vdW  Elec       q    Type
REMARK                         _______ _______ _______ _____ _____    ______ ____
ROOT
ATOM      1  N   UNL     1       2.274   6.683  19.757  0.00  0.00    +0.000 N 
ATOM      2  C   UNL     1       1.906   5.636  20.726  0.00  0.00    +0.000 C 
ATOM      3  C   UNL     1       1.153   4.468  20.043  0.00  0.00    +0.000 C 
ATOM      4  N   UNL     1       1.770   3.923  18.807  0.00  0.00    +0.000 NA
ATOM      5  C   UNL     1       2.027   5.051  17.888  0.00  0.00    +0.000 C 
ATOM      6  C   UNL     1       2.850   6.223  18.477  0.00  0.00    +0.000 C 
ENDROOT
BRANCH   1  10
ATOM      7  C   UNL     1       0.545  10.504  19.805  0.00  0.00    +0.000 A 
ATOM      8  C   UNL     1       1.166  10.034  18.646  0.00  0.00    +0.000 A 
ATOM      9  C   UNL     1       1.730   8.758  18.658  0.00  0.00    +0.000 A 
ATOM     10  C   UNL     1       1.709   7.943  19.800  0.00  0.00    +0.000 A 
ATOM     11  C   UNL     1       1.094   8.460  20.953  0.00  0.00    +0.000 A 
ATOM     12  C   UNL     1       0.517   9.732  20.960  0.00  0.00    +0.000 A 
BRANCH   7  13
ATOM     13  S   UNL     1      -0.275  12.071  19.757  0.00  0.00    +0.000 S 
ATOM     14  O   UNL     1       0.704  13.120  19.757  0.00  0.00    +0.000 OA
ATOM     15  O   UNL     1      -1.385  12.041  20.697  0.00  0.00    +0.000 OA
BRANCH  13  16
ATOM     16  N   UNL     1      -0.974  12.035  18.240  0.00  0.00    +0.000 NA
ATOM     17  H   UNL     1      -1.804  11.448  18.260  0.00  0.00    +0.000 HD
ATOM     18  H   UNL     1      -0.292  11.784  17.531  0.00  0.00    +0.000 HD
ENDBRANCH  13  16
ENDBRANCH   7  13
ENDBRANCH   1  10
BRANCH   4  19
ATOM     19  C   UNL     1       3.010   3.205  19.103  0.00  0.00    +0.000 C 
BRANCH  19  20
ATOM     20  C   UNL     1       3.847   2.882  17.832  0.00  0.00    +0.000 C 
BRANCH  20  21
ATOM     21  C   UNL     1       4.915   3.898  17.360  0.00  0.00    +0.000 C 
ATOM     22  O   UNL     1       5.350   3.389  16.086  0.00  0.00    +0.000 OA
ATOM     23  C   UNL     1       5.185   4.410  15.126  0.00  0.00    +0.000 C 
ATOM     24  C   UNL     1       6.199   5.506  15.412  0.00  0.00    +0.000 C 
ATOM     25  C   UNL     1       6.617   5.624  16.875  0.00  0.00    +0.000 A 
ATOM     26  C   UNL     1       7.571   6.599  17.179  0.00  0.00    +0.000 A 
ATOM     27  C   UNL     1       8.025   6.741  18.482  0.00  0.00    +0.000 A 
ATOM     28  C   UNL     1       7.516   5.902  19.475  0.00  0.00    +0.000 A 
ATOM     29  C   UNL     1       6.535   4.915  19.188  0.00  0.00    +0.000 A 
ATOM     30  C   UNL     1       6.068   4.751  17.876  0.00  0.00    +0.000 A 
ENDBRANCH  20  21
ENDBRANCH  19  20
ENDBRANCH   4  19
TORSDOF 6
ENDMDL
MODEL 5
REMARK VINA RESULT:      -7.7      1.835      2.767
REMARK  Name = 
REMARK  6 active torsions:
REMARK  status: ('A' for Active; 'I' for Inactive)
REMARK    1  A    between atoms: N_1  and  S_2
REMARK    2  A    between atoms: S_2  and  C_5
REMARK    3  A    between atoms: C_8  and  N_9
REMARK    4  A    between atoms: N_12  and  C_13
REMARK    5  A    between atoms: C_13  and  C_14
REMARK    6  A    between atoms: C_14  and  C_15
REMARK                            x       y       z     vdW  Elec       q    Type
REMARK                         _______ _______ _______ _____ _____    ______ ____
ROOT
ATOM      1  N   UNL     1       2.105   7.486  19.757  0.00  0.00    +0.000 N 
ATOM      2  C   UNL     1       1.877   6.715  20.991  0.00  0.00    +0.000 C 
ATOM      3  C   UNL     1       1.296   5.312  20.686  0.00  0.00    +0.000 C 
ATOM      4  N   UNL     1       1.991   4.529  19.633  0.00  0.00    +0.000 NA
ATOM      5  C   UNL     1       2.098   5.377  18.427  0.00  0.00    +0.000 C 
ATOM      6  C   UNL     1       2.748   6.766  18.639  0.00  0.00    +0.000 C 
ENDROOT
BRANCH   1  10
ATOM      7  C   UNL     1      -0.120  10.948  18.946  0.00  0.00    +0.000 A 
ATOM      8  C   UNL     1      -0.234  10.321  20.188  0.00  0.00    +0.000 A 
ATOM      9  C   UNL     1       0.520   9.172  20.431  0.00  0.00    +0.000 A 
ATOM     10  C   UNL     1       1.372   8.621  19.463  0.00  0.00    +0.000 A 
ATOM     11  C   UNL     1       1.443   9.268  18.217  0.00  0.00    +0.000 A 
ATOM     12  C   UNL     1       0.703  10.423  17.956  0.00  0.00    +0.000 A 
BRANCH   7  13
ATOM     13  S   UNL     1      -0.983  12.469  18.676  0.00  0.00    +0.000 S 
ATOM     14  O   UNL     1      -0.036  13.540  18.561  0.00  0.00    +0.000 OA
ATOM     15  O   UNL     1      -2.116  12.525  19.588  0.00  0.00    +0.000 OA
BRANCH  13  16
ATOM     16  N   UNL     1      -1.642  12.215  17.162  0.00  0.00    +0.000 NA
ATOM     17  H   UNL     1      -0.994  11.675  16.593  0.00  0.00    +0.000 HD
ATOM     18  H   UNL     1      -1.945  13.090  16.746  0.00  0.00    +0.000 HD
ENDBRANCH  13  16
ENDBRANCH   7  13
ENDBRANCH   1  10
BRANCH   4  19
ATOM     19  C   UNL     1       3.316   4.096  20.079  0.00  0.00    +0.000 C 
BRANCH  19  20
ATOM     20  C   UNL     1       4.094   3.296  18.995  0.00  0.00    +0.000 C 
BRANCH  20  21
ATOM     21  C   UNL     1       5.215   4.007  18.199  0.00  0.00    +0.000 C 
ATOM     22  O   UNL     1       5.510   5.182  18.976  0.00  0.00    +0.000 OA
ATOM     23  C   UNL     1       6.891   5.180  19.267  0.00  0.00    +0.000 C 
ATOM     24  C   UNL     1       7.655   5.431  17.978  0.00  0.00    +0.000 C 
ATOM     25  C   UNL     1       6.942   4.965  16.712  0.00  0.00    +0.000 A 
ATOM     26  C   UNL     1       7.594   5.204  15.500  0.00  0.00    +0.000 A 
ATOM     27  C   UNL     1       6.992   4.839  14.304  0.00  0.00    +0.000 A 
ATOM     28  C   UNL     1       5.734   4.233  14.335  0.00  0.00    +0.000 A 
ATOM     29  C   UNL     1       5.062   3.968  15.558  0.00  0.00    +0.000 A 
ATOM     30  C   UNL     1       5.652   4.336  16.776  0.00  0.00    +0.000 A 
ENDBRANCH  20  21
ENDBRANCH  19  20
ENDBRANCH   4  19
TORSDOF 6
ENDMDL
MODEL 6
REMARK VINA RESULT:      -7.7      4.093     10.224
REMARK  Name = 
REMARK  6 active torsions:
REMARK  status: ('A' for Active; 'I' for Inactive)
REMARK    1  A    between atoms: N_1  and  S_2
REMARK    2  A    between atoms: S_2  and  C_5
REMARK    3  A    between atoms: C_8  and  N_9
REMARK    4  A    between atoms: N_12  and  C_13
REMARK    5  A    between atoms: C_13  and  C_14
REMARK    6  A    between atoms: C_14  and  C_15
REMARK                            x       y       z     vdW  Elec       q    Type
REMARK                         _______ _______ _______ _____ _____    ______ ____
ROOT
ATOM      1  N   UNL     1       1.824   8.209  20.124  0.00  0.00    +0.000 N 
ATOM      2  C   UNL     1       1.553   9.224  19.091  0.00  0.00    +0.000 C 
ATOM      3  C   UNL     1       0.083   9.706  19.138  0.00  0.00    +0.000 C 
ATOM      4  N   UNL     1      -0.440  10.086  20.475  0.00  0.00    +0.000 NA
ATOM      5  C   UNL     1      -0.176   8.968  21.405  0.00  0.00    +0.000 C 
ATOM      6  C   UNL     1       1.294   8.486  21.474  0.00  0.00    +0.000 C 
ENDROOT
BRANCH   1  10
ATOM      7  C   UNL     1       2.775   4.258  19.087  0.00  0.00    +0.000 A 
ATOM      8  C   UNL     1       3.167   5.310  18.257  0.00  0.00    +0.000 A 
ATOM      9  C   UNL     1       2.839   6.614  18.628  0.00  0.00    +0.000 A 
ATOM     10  C   UNL     1       2.116   6.898  19.796  0.00  0.00    +0.000 A 
ATOM     11  C   UNL     1       1.720   5.811  20.594  0.00  0.00    +0.000 A 
ATOM     12  C   UNL     1       2.045   4.498  20.245  0.00  0.00    +0.000 A 
BRANCH   7  13
ATOM     13  S   UNL     1       3.291   2.614  18.682  0.00  0.00    +0.000 S 
ATOM     14  O   UNL     1       4.116   2.101  19.737  0.00  0.00    +0.000 OA
ATOM     15  O   UNL     1       3.706   2.591  17.287  0.00  0.00    +0.000 OA
BRANCH  13  16
ATOM     16  N   UNL     1       1.840   1.788  18.729  0.00  0.00    +0.000 NA
ATOM     17  H   UNL     1       1.655   1.369  17.820  0.00  0.00    +0.000 HD
ATOM     18  H   UNL     1       1.095   2.381  19.083  0.00  0.00    +0.000 HD
ENDBRANCH  13  16
ENDBRANCH   7  13
ENDBRANCH   1  10
BRANCH   4  19
ATOM     19  C   UNL     1       0.182  11.318  20.959  0.00  0.00    +0.000 C 
BRANCH  19  20
ATOM     20  C   UNL     1      -0.605  11.983  22.126  0.00  0.00    +0.000 C 
BRANCH  20  21
ATOM     21  C   UNL     1      -2.104  12.312  21.926  0.00  0.00    +0.000 C 
ATOM     22  O   UNL     1      -2.119  13.247  20.833  0.00  0.00    +0.000 OA
ATOM     23  C   UNL     1      -2.975  12.739  19.832  0.00  0.00    +0.000 C 
ATOM     24  C   UNL     1      -4.404  12.802  20.345  0.00  0.00    +0.000 C 
ATOM     25  C   UNL     1      -4.542  12.711  21.862  0.00  0.00    +0.000 A 
ATOM     26  C   UNL     1      -5.838  12.795  22.380  0.00  0.00    +0.000 A 
ATOM     27  C   UNL     1      -6.039  12.756  23.752  0.00  0.00    +0.000 A 
ATOM     28  C   UNL     1      -4.935  12.630  24.598  0.00  0.00    +0.000 A 
ATOM     29  C   UNL     1      -3.613  12.527  24.089  0.00  0.00    +0.000 A 
ATOM     30  C   UNL     1      -3.388  12.572  22.706  0.00  0.00    +0.000 A 
ENDBRANCH  20  21
ENDBRANCH  19  20
ENDBRANCH   4  19
TORSDOF 6
ENDMDL
MODEL 7
REMARK VINA RESULT:      -7.6      4.272      9.524
REMARK  Name = 
REMARK  6 active torsions:
REMARK  status: ('A' for Active; 'I' for Inactive)
REMARK    1  A    between atoms: N_1  and  S_2
REMARK    2  A    between atoms: S_2  and  C_5
REMARK    3  A    between atoms: C_8  and  N_9
REMARK    4  A    between atoms: N_12  and  C_13
REMARK    5  A    between atoms: C_13  and  C_14
REMARK    6  A    between atoms: C_14  and  C_15
REMARK                            x       y       z     vdW  Elec       q    Type
REMARK                         _______ _______ _______ _____ _____    ______ ____
ROOT
ATOM      1  N   UNL     1       1.918   7.590  19.096  0.00  0.00    +0.000 N 
ATOM      2  C   UNL     1       1.476   7.479  20.497  0.00  0.00    +0.000 C 
ATOM      3  C   UNL     1       1.602   8.830  21.243  0.00  0.00    +0.000 C 
ATOM      4  N   UNL     1       1.039  10.017  20.550  0.00  0.00    +0.000 NA
ATOM      5  C   UNL     1       1.607  10.062  19.186  0.00  0.00    +0.000 C 
ATOM      6  C   UNL     1       1.443   8.771  18.348  0.00  0.00    +0.000 C 
ENDROOT
BRANCH   1  10
ATOM      7  C   UNL     1       5.376   5.693  17.668  0.00  0.00    +0.000 A 
ATOM      8  C   UNL     1       4.828   6.767  16.964  0.00  0.00    +0.000 A 
ATOM      9  C   UNL     1       3.679   7.380  17.464  0.00  0.00    +0.000 A 
ATOM     10  C   UNL     1       3.050   6.942  18.638  0.00  0.00    +0.000 A 
ATOM     11  C   UNL     1       3.618   5.844  19.307  0.00  0.00    +0.000 A 
ATOM     12  C   UNL     1       4.772   5.220  18.828  0.00  0.00    +0.000 A 
BRANCH   7  13
ATOM     13  S   UNL     1       6.897   4.989  17.102  0.00  0.00    +0.000 S 
ATOM     14  O   UNL     1       7.634   4.483  18.224  0.00  0.00    +0.000 OA
ATOM     15  O   UNL     1       7.488   5.891  16.125  0.00  0.00    +0.000 OA
BRANCH  13  16
ATOM     16  N   UNL     1       6.351   3.677  16.224  0.00  0.00    +0.000 NA
ATOM     17  H   UNL     1       5.974   3.994  15.334  0.00  0.00    +0.000 HD
ATOM     18  H   UNL     1       5.717   3.108  16.777  0.00  0.00    +0.000 HD
ENDBRANCH  13  16
ENDBRANCH   7  13
ENDBRANCH   1  10
BRANCH   4  19
ATOM     19  C   UNL     1      -0.422   9.960  20.499  0.00  0.00    +0.000 C 
BRANCH  19  20
ATOM     20  C   UNL     1      -1.071  11.301  20.046  0.00  0.00    +0.000 C 
BRANCH  20  21
ATOM     21  C   UNL     1      -2.223  11.264  19.013  0.00  0.00    +0.000 C 
ATOM     22  O   UNL     1      -1.559  11.332  17.738  0.00  0.00    +0.000 OA
ATOM     23  C   UNL     1      -1.974  10.225  16.968  0.00  0.00    +0.000 C 
ATOM     24  C   UNL     1      -3.434  10.420  16.594  0.00  0.00    +0.000 C 
ATOM     25  C   UNL     1      -4.240  11.255  17.585  0.00  0.00    +0.000 A 
ATOM     26  C   UNL     1      -5.581  11.485  17.267  0.00  0.00    +0.000 A 
ATOM     27  C   UNL     1      -6.368  12.265  18.102  0.00  0.00    +0.000 A 
ATOM     28  C   UNL     1      -5.802  12.808  19.257  0.00  0.00    +0.000 A 
ATOM     29  C   UNL     1      -4.445  12.572  19.606  0.00  0.00    +0.000 A 
ATOM     30  C   UNL     1      -3.632  11.793  18.770  0.00  0.00    +0.000 A 
ENDBRANCH  20  21
ENDBRANCH  19  20
ENDBRANCH   4  19
TORSDOF 6
ENDMDL
MODEL 8
REMARK VINA RESULT:      -7.6      4.355     10.147
REMARK  Name = 
REMARK  6 active torsions:
REMARK  status: ('A' for Active; 'I' for Inactive)
REMARK    1  A    between atoms: N_1  and  S_2
REMARK    2  A    between atoms: S_2  and  C_5
REMARK    3  A    between atoms: C_8  and  N_9
REMARK    4  A    between atoms: N_12  and  C_13
REMARK    5  A    between atoms: C_13  and  C_14
REMARK    6  A    between atoms: C_14  and  C_15
REMARK                            x       y       z     vdW  Elec       q    Type
REMARK                         _______ _______ _______ _____ _____    ______ ____
ROOT
ATOM      1  N   UNL     1       1.696   8.752  19.689  0.00  0.00    +0.000 N 
ATOM      2  C   UNL     1       1.404   9.630  18.543  0.00  0.00    +0.000 C 
ATOM      3  C   UNL     1      -0.104   9.970  18.455  0.00  0.00    +0.000 C 
ATOM      4  N   UNL     1      -0.748  10.426  19.713  0.00  0.00    +0.000 NA
ATOM      5  C   UNL     1      -0.446   9.436  20.768  0.00  0.00    +0.000 C 
ATOM      6  C   UNL     1       1.054   9.107  20.970  0.00  0.00    +0.000 C 
ENDROOT
BRANCH   1  10
ATOM      7  C   UNL     1       3.061   4.827  19.118  0.00  0.00    +0.000 A 
ATOM      8  C   UNL     1       3.305   5.799  18.145  0.00  0.00    +0.000 A 
ATOM      9  C   UNL     1       2.841   7.097  18.363  0.00  0.00    +0.000 A 
ATOM     10  C   UNL     1       2.125   7.449  19.517  0.00  0.00    +0.000 A 
ATOM     11  C   UNL     1       1.881   6.439  20.462  0.00  0.00    +0.000 A 
ATOM     12  C   UNL     1       2.343   5.135  20.267  0.00  0.00    +0.000 A 
BRANCH   7  13
ATOM     13  S   UNL     1       3.749   3.212  18.900  0.00  0.00    +0.000 S 
ATOM     14  O   UNL     1       3.492   2.762  17.563  0.00  0.00    +0.000 OA
ATOM     15  O   UNL     1       3.423   2.409  20.069  0.00  0.00    +0.000 OA
BRANCH  13  16
ATOM     16  N   UNL     1       5.386   3.528  19.019  0.00  0.00    +0.000 NA
ATOM     17  H   UNL     1       5.876   2.686  19.312  0.00  0.00    +0.000 HD
ATOM     18  H   UNL     1       5.557   4.344  19.599  0.00  0.00    +0.000 HD
ENDBRANCH  13  16
ENDBRANCH   7  13
ENDBRANCH   1  10
BRANCH   4  19
ATOM     19  C   UNL     1      -0.273  11.755  20.102  0.00  0.00    +0.000 C 
BRANCH  19  20
ATOM     20  C   UNL     1      -1.266  12.893  19.726  0.00  0.00    +0.000 C 
BRANCH  20  21
ATOM     21  C   UNL     1      -2.777  12.685  19.988  0.00  0.00    +0.000 C 
ATOM     22  O   UNL     1      -2.851  12.341  21.383  0.00  0.00    +0.000 OA
ATOM     23  C   UNL     1      -3.737  13.243  22.010  0.00  0.00    +0.000 C 
ATOM     24  C   UNL     1      -5.146  12.952  21.520  0.00  0.00    +0.000 C 
ATOM     25  C   UNL     1      -5.222  12.351  20.119  0.00  0.00    +0.000 A 
ATOM     26  C   UNL     1      -6.497  12.039  19.639  0.00  0.00    +0.000 A 
ATOM     27  C   UNL     1      -6.643  11.457  18.388  0.00  0.00    +0.000 A 
ATOM     28  C   UNL     1      -5.505  11.192  17.624  0.00  0.00    +0.000 A 
ATOM     29  C   UNL     1      -4.202  11.516  18.089  0.00  0.00    +0.000 A 
ATOM     30  C   UNL     1      -4.033  12.098  19.354  0.00  0.00    +0.000 A 
ENDBRANCH  20  21
ENDBRANCH  19  20
ENDBRANCH   4  19
TORSDOF 6
ENDMDL
MODEL 9
REMARK VINA RESULT:      -7.6      4.205      9.605
REMARK  Name = 
REMARK  6 active torsions:
REMARK  status: ('A' for Active; 'I' for Inactive)
REMARK    1  A    between atoms: N_1  and  S_2
REMARK    2  A    between atoms: S_2  and  C_5
REMARK    3  A    between atoms: C_8  and  N_9
REMARK    4  A    between atoms: N_12  and  C_13
REMARK    5  A    between atoms: C_13  and  C_14
REMARK    6  A    between atoms: C_14  and  C_15
REMARK                            x       y       z     vdW  Elec       q    Type
REMARK                         _______ _______ _______ _____ _____    ______ ____
ROOT
ATOM      1  N   UNL     1       1.233   8.476  19.551  0.00  0.00    +0.000 N 
ATOM      2  C   UNL     1       0.840   8.471  20.971  0.00  0.00    +0.000 C 
ATOM      3  C   UNL     1       1.177   9.816  21.660  0.00  0.00    +0.000 C 
ATOM      4  N   UNL     1       0.751  11.045  20.944  0.00  0.00    +0.000 NA
ATOM      5  C   UNL     1       1.261  10.969  19.559  0.00  0.00    +0.000 C 
ATOM      6  C   UNL     1       0.890   9.686  18.777  0.00  0.00    +0.000 C 
ENDROOT
BRANCH   1  10
ATOM      7  C   UNL     1       4.273   5.951  18.145  0.00  0.00    +0.000 A 
ATOM      8  C   UNL     1       3.606   5.645  19.333  0.00  0.00    +0.000 A 
ATOM      9  C   UNL     1       2.597   6.501  19.775  0.00  0.00    +0.000 A 
ATOM     10  C   UNL     1       2.247   7.665  19.075  0.00  0.00    +0.000 A 
ATOM     11  C   UNL     1       2.957   7.952  17.897  0.00  0.00    +0.000 A 
ATOM     12  C   UNL     1       3.965   7.104  17.432  0.00  0.00    +0.000 A 
BRANCH   7  13
ATOM     13  S   UNL     1       5.470   4.807  17.520  0.00  0.00    +0.000 S 
ATOM     14  O   UNL     1       6.697   5.500  17.254  0.00  0.00    +0.000 OA
ATOM     15  O   UNL     1       4.823   3.958  16.530  0.00  0.00    +0.000 OA
BRANCH  13  16
ATOM     16  N   UNL     1       5.722   3.828  18.851  0.00  0.00    +0.000 NA
ATOM     17  H   UNL     1       6.165   2.961  18.558  0.00  0.00    +0.000 HD
ATOM     18  H   UNL     1       4.865   3.710  19.382  0.00  0.00    +0.000 HD
ENDBRANCH  13  16
ENDBRANCH   7  13
ENDBRANCH   1  10
BRANCH   4  19
ATOM     19  C   UNL     1      -0.706  11.186  20.950  0.00  0.00    +0.000 C 
BRANCH  19  20
ATOM     20  C   UNL     1      -1.227  12.199  19.889  0.00  0.00    +0.000 C 
BRANCH  20  21
ATOM     21  C   UNL     1      -2.489  11.840  19.068  0.00  0.00    +0.000 C 
ATOM     22  O   UNL     1      -2.085  12.022  17.699  0.00  0.00    +0.000 OA
ATOM     23  C   UNL     1      -2.334  10.818  17.005  0.00  0.00    +0.000 C 
ATOM     24  C   UNL     1      -3.837  10.634  16.888  0.00  0.00    +0.000 C 
ATOM     25  C   UNL     1      -4.650  11.281  18.006  0.00  0.00    +0.000 A 
ATOM     26  C   UNL     1      -6.040  11.162  17.922  0.00  0.00    +0.000 A 
ATOM     27  C   UNL     1      -6.845  11.755  18.884  0.00  0.00    +0.000 A 
ATOM     28  C   UNL     1      -6.247  12.464  19.928  0.00  0.00    +0.000 A 
ATOM     29  C   UNL     1      -4.836  12.583  20.039  0.00  0.00    +0.000 A 
ATOM     30  C   UNL     1      -4.005  11.997  19.072  0.00  0.00    +0.000 A 
ENDBRANCH  20  21
ENDBRANCH  19  20
ENDBRANCH   4  19
TORSDOF 6
ENDMDL
