MODEL 1
REMARK VINA RESULT:      -7.4      0.000      0.000
REMARK  Name = 
REMARK  15 active torsions:
REMARK  status: ('A' for Active; 'I' for Inactive)
REMARK    1  A    between atoms: C_1  and  O_2
REMARK    2  A    between atoms: O_2  and  C_3
REMARK    3  A    between atoms: C_8  and  O_9
REMARK    4  A    between atoms: O_9  and  C_10
REMARK    5  A    between atoms: C_11  and  C_12
REMARK    6  A    between atoms: C_12  and  C_13
REMARK    7  A    between atoms: C_13  and  C_14
REMARK    8  A    between atoms: C_14  and  C_15
REMARK    9  A    between atoms: C_15  and  C_16
REMARK   10  A    between atoms: C_16  and  O_17
REMARK   11  A    between atoms: O_17  and  C_18
REMARK   12  A    between atoms: N_20  and  C_21
REMARK   13  A    between atoms: C_21  and  C_22
REMARK   14  A    between atoms: C_22  and  C_23
REMARK   15  A    between atoms: N_30  and  C_31
REMARK                            x       y       z     vdW  Elec       q    Type
REMARK                         _______ _______ _______ _____ _____    ______ ____
ROOT
ATOM      1  C   UNL     1       1.648   9.760  18.010  0.00  0.00    +0.000 C 
ENDROOT
BRANCH   1   2
ATOM      2  C   UNL     1       0.463  10.053  18.945  0.00  0.00    +0.000 C 
BRANCH   2   9
ATOM      3  C   UNL     1      -4.137  11.562  17.373  0.00  0.00    +0.000 A 
ATOM      4  C   UNL     1      -3.873  11.869  18.714  0.00  0.00    +0.000 A 
ATOM      5  C   UNL     1      -2.565  11.880  19.216  0.00  0.00    +0.000 A 
ATOM      6  C   UNL     1      -1.484  11.623  18.357  0.00  0.00    +0.000 A 
ATOM      7  C   UNL     1      -1.760  11.420  16.989  0.00  0.00    +0.000 A 
ATOM      8  C   UNL     1      -3.069  11.340  16.492  0.00  0.00    +0.000 A 
ATOM      9  C   UNL     1      -0.045  11.535  18.885  0.00  0.00    +0.000 C 
ATOM     10  N   UNL     1       0.090  12.280  20.164  0.00  0.00    +0.000 NA
ATOM     11  C   UNL     1       1.424  12.259  20.749  0.00  0.00    +0.000 C 
ATOM     12  C   UNL     1      -0.929  11.883  21.141  0.00  0.00    +0.000 C 
ATOM     13  C   UNL     1      -2.319  12.281  20.647  0.00  0.00    +0.000 C 
BRANCH   3  15
ATOM     14  C   UNL     1      -6.293  12.430  17.865  0.00  0.00    +0.000 C 
ATOM     15  O   UNL     1      -5.474  11.589  17.063  0.00  0.00    +0.000 OA
ENDBRANCH   3  15
BRANCH   8  16
ATOM     16  O   UNL     1      -3.357  11.086  15.178  0.00  0.00    +0.000 OA
ATOM     17  C   UNL     1      -3.412   9.730  14.752  0.00  0.00    +0.000 C 
ENDBRANCH   8  16
ENDBRANCH   2   9
ENDBRANCH   1   2
BRANCH   1  18
ATOM     18  C   UNL     1       2.101   8.296  18.004  0.00  0.00    +0.000 C 
BRANCH  18  19
ATOM     19  C   UNL     1       2.000   7.719  19.420  0.00  0.00    +0.000 C 
BRANCH  19  20
ATOM     20  C   UNL     1       2.819   6.437  19.587  0.00  0.00    +0.000 C 
BRANCH  20  21
ATOM     21  O   UNL     1       1.996   5.278  19.367  0.00  0.00    +0.000 OA
BRANCH  21  22
ATOM     22  C   UNL     1       2.171   4.675  18.166  0.00  0.00    +0.000 C 
ATOM     23  O   UNL     1       1.277   4.336  17.407  0.00  0.00    +0.000 OA
ATOM     24  N   UNL     1       3.503   4.573  17.893  0.00  0.00    +0.000 N 
ATOM     25  H   UNL     1       4.138   4.915  18.601  0.00  0.00    +0.000 HD
BRANCH  24  26
ATOM     26  C   UNL     1       3.977   4.256  16.561  0.00  0.00    +0.000 C 
BRANCH  26  27
ATOM     27  C   UNL     1       5.473   3.916  16.559  0.00  0.00    +0.000 C 
BRANCH  27  28
ATOM     28  C   UNL     1       6.317   5.008  17.165  0.00  0.00    +0.000 A 
ATOM     29  C   UNL     1       7.120   4.740  18.285  0.00  0.00    +0.000 A 
ATOM     30  C   UNL     1       7.903   5.748  18.845  0.00  0.00    +0.000 A 
ATOM     31  C   UNL     1       7.884   7.021  18.288  0.00  0.00    +0.000 A 
ATOM     32  F   UNL     1       8.639   7.987  18.823  0.00  0.00    +0.000 F 
ATOM     33  C   UNL     1       7.091   7.306  17.183  0.00  0.00    +0.000 A 
ATOM     34  C   UNL     1       6.305   6.300  16.620  0.00  0.00    +0.000 A 
ENDBRANCH  27  28
ENDBRANCH  26  27
ENDBRANCH  24  26
ENDBRANCH  21  22
ENDBRANCH  20  21
ENDBRANCH  19  20
ENDBRANCH  18  19
ENDBRANCH   1  18
TORSDOF 12
ENDMDL
MODEL 2
REMARK VINA RESULT:      -7.4      0.903      1.212
REMARK  Name = 
REMARK  15 active torsions:
REMARK  status: ('A' for Active; 'I' for Inactive)
REMARK    1  A    between atoms: C_1  and  O_2
REMARK    2  A    between atoms: O_2  and  C_3
REMARK    3  A    between atoms: C_8  and  O_9
REMARK    4  A    between atoms: O_9  and  C_10
REMARK    5  A    between atoms: C_11  and  C_12
REMARK    6  A    between atoms: C_12  and  C_13
REMARK    7  A    between atoms: C_13  and  C_14
REMARK    8  A    between atoms: C_14  and  C_15
REMARK    9  A    between atoms: C_15  and  C_16
REMARK   10  A    between atoms: C_16  and  O_17
REMARK   11  A    between atoms: O_17  and  C_18
REMARK   12  A    between atoms: N_20  and  C_21
REMARK   13  A    between atoms: C_21  and  C_22
REMARK   14  A    between atoms: C_22  and  C_23
REMARK   15  A    between atoms: N_30  and  C_31
REMARK                            x       y       z     vdW  Elec       q    Type
REMARK                         _______ _______ _______ _____ _____    ______ ____
ROOT
ATOM      1  C   UNL     1       1.919   9.574  18.070  0.00  0.00    +0.000 C 
ENDROOT
BRANCH   1   2
ATOM      2  C   UNL     1       0.836  10.124  19.015  0.00  0.00    +0.000 C 
BRANCH   2   9
ATOM      3  C   UNL     1      -4.030  10.853  17.715  0.00  0.00    +0.000 A 
ATOM      4  C   UNL     1      -3.626  11.606  18.826  0.00  0.00    +0.000 A 
ATOM      5  C   UNL     1      -2.271  11.830  19.100  0.00  0.00    +0.000 A 
ATOM      6  C   UNL     1      -1.290  11.334  18.228  0.00  0.00    +0.000 A 
ATOM      7  C   UNL     1      -1.716  10.670  17.060  0.00  0.00    +0.000 A 
ATOM      8  C   UNL     1      -3.067  10.382  16.812  0.00  0.00    +0.000 A 
ATOM      9  C   UNL     1       0.207  11.480  18.541  0.00  0.00    +0.000 C 
ATOM     10  N   UNL     1       0.440  12.618  19.467  0.00  0.00    +0.000 NA
ATOM     11  C   UNL     1       1.834  12.842  19.826  0.00  0.00    +0.000 C 
ATOM     12  C   UNL     1      -0.413  12.542  20.658  0.00  0.00    +0.000 C 
ATOM     13  C   UNL     1      -1.882  12.702  20.266  0.00  0.00    +0.000 C 
BRANCH   3  15
ATOM     14  C   UNL     1      -6.158  11.190  18.716  0.00  0.00    +0.000 C 
ATOM     15  O   UNL     1      -5.393  10.728  17.610  0.00  0.00    +0.000 OA
ENDBRANCH   3  15
BRANCH   8  16
ATOM     16  O   UNL     1      -3.495   9.688  15.713  0.00  0.00    +0.000 OA
ATOM     17  C   UNL     1      -3.266  10.254  14.429  0.00  0.00    +0.000 C 
ENDBRANCH   8  16
ENDBRANCH   2   9
ENDBRANCH   1   2
BRANCH   1  18
ATOM     18  C   UNL     1       1.881   8.054  17.884  0.00  0.00    +0.000 C 
BRANCH  18  19
ATOM     19  C   UNL     1       2.705   7.377  18.985  0.00  0.00    +0.000 C 
BRANCH  19  20
ATOM     20  C   UNL     1       1.835   6.578  19.957  0.00  0.00    +0.000 C 
BRANCH  20  21
ATOM     21  O   UNL     1       2.440   5.305  20.248  0.00  0.00    +0.000 OA
BRANCH  21  22
ATOM     22  C   UNL     1       2.356   4.393  19.249  0.00  0.00    +0.000 C 
ATOM     23  O   UNL     1       1.334   4.079  18.660  0.00  0.00    +0.000 OA
ATOM     24  N   UNL     1       3.602   3.932  18.943  0.00  0.00    +0.000 N 
ATOM     25  H   UNL     1       4.367   4.293  19.496  0.00  0.00    +0.000 HD
BRANCH  24  26
ATOM     26  C   UNL     1       3.852   3.189  17.724  0.00  0.00    +0.000 C 
BRANCH  26  27
ATOM     27  C   UNL     1       4.436   4.086  16.625  0.00  0.00    +0.000 C 
BRANCH  27  28
ATOM     28  C   UNL     1       5.529   4.990  17.134  0.00  0.00    +0.000 A 
ATOM     29  C   UNL     1       5.391   6.385  17.042  0.00  0.00    +0.000 A 
ATOM     30  C   UNL     1       6.399   7.224  17.515  0.00  0.00    +0.000 A 
ATOM     31  C   UNL     1       7.543   6.670  18.078  0.00  0.00    +0.000 A 
ATOM     32  F   UNL     1       8.508   7.476  18.536  0.00  0.00    +0.000 F 
ATOM     33  C   UNL     1       7.700   5.293  18.172  0.00  0.00    +0.000 A 
ATOM     34  C   UNL     1       6.693   4.450  17.699  0.00  0.00    +0.000 A 
ENDBRANCH  27  28
ENDBRANCH  26  27
ENDBRANCH  24  26
ENDBRANCH  21  22
ENDBRANCH  20  21
ENDBRANCH  19  20
ENDBRANCH  18  19
ENDBRANCH   1  18
TORSDOF 12
ENDMDL
MODEL 3
REMARK VINA RESULT:      -7.3      2.579      3.705
REMARK  Name = 
REMARK  15 active torsions:
REMARK  status: ('A' for Active; 'I' for Inactive)
REMARK    1  A    between atoms: C_1  and  O_2
REMARK    2  A    between atoms: O_2  and  C_3
REMARK    3  A    between atoms: C_8  and  O_9
REMARK    4  A    between atoms: O_9  and  C_10
REMARK    5  A    between atoms: C_11  and  C_12
REMARK    6  A    between atoms: C_12  and  C_13
REMARK    7  A    between atoms: C_13  and  C_14
REMARK    8  A    between atoms: C_14  and  C_15
REMARK    9  A    between atoms: C_15  and  C_16
REMARK   10  A    between atoms: C_16  and  O_17
REMARK   11  A    between atoms: O_17  and  C_18
REMARK   12  A    between atoms: N_20  and  C_21
REMARK   13  A    between atoms: C_21  and  C_22
REMARK   14  A    between atoms: C_22  and  C_23
REMARK   15  A    between atoms: N_30  and  C_31
REMARK                            x       y       z     vdW  Elec       q    Type
REMARK                         _______ _______ _______ _____ _____    ______ ____
ROOT
ATOM      1  C   UNL     1       0.977   9.276  19.940  0.00  0.00    +0.000 C 
ENDROOT
BRANCH   1   2
ATOM      2  C   UNL     1      -0.242  10.064  20.451  0.00  0.00    +0.000 C 
BRANCH   2   9
ATOM      3  C   UNL     1      -4.359  11.167  17.669  0.00  0.00    +0.000 A 
ATOM      4  C   UNL     1      -4.187  12.008  18.777  0.00  0.00    +0.000 A 
ATOM      5  C   UNL     1      -2.952  12.111  19.430  0.00  0.00    +0.000 A 
ATOM      6  C   UNL     1      -1.845  11.395  18.947  0.00  0.00    +0.000 A 
ATOM      7  C   UNL     1      -2.008  10.636  17.771  0.00  0.00    +0.000 A 
ATOM      8  C   UNL     1      -3.256  10.475  17.150  0.00  0.00    +0.000 A 
ATOM      9  C   UNL     1      -0.499  11.408  19.687  0.00  0.00    +0.000 C 
ATOM     10  N   UNL     1      -0.377  12.624  20.532  0.00  0.00    +0.000 NA
ATOM     11  C   UNL     1       0.870  12.732  21.277  0.00  0.00    +0.000 C 
ATOM     12  C   UNL     1      -1.540  12.803  21.408  0.00  0.00    +0.000 C 
ATOM     13  C   UNL     1      -2.792  13.077  20.574  0.00  0.00    +0.000 C 
BRANCH   3  15
ATOM     14  C   UNL     1      -6.691  11.241  18.118  0.00  0.00    +0.000 C 
ATOM     15  O   UNL     1      -5.636  11.187  17.166  0.00  0.00    +0.000 OA
ENDBRANCH   3  15
BRANCH   8  16
ATOM     16  O   UNL     1      -3.446   9.696  16.041  0.00  0.00    +0.000 OA
ATOM     17  C   UNL     1      -3.011  10.198  14.784  0.00  0.00    +0.000 C 
ENDBRANCH   8  16
ENDBRANCH   2   9
ENDBRANCH   1   2
BRANCH   1  18
ATOM     18  C   UNL     1       1.088   9.207  18.414  0.00  0.00    +0.000 C 
BRANCH  18  19
ATOM     19  C   UNL     1       2.559   9.072  18.008  0.00  0.00    +0.000 C 
BRANCH  19  20
ATOM     20  C   UNL     1       2.958   7.621  17.733  0.00  0.00    +0.000 C 
BRANCH  20  21
ATOM     21  O   UNL     1       4.282   7.557  17.175  0.00  0.00    +0.000 OA
BRANCH  21  22
ATOM     22  C   UNL     1       4.656   6.331  16.733  0.00  0.00    +0.000 C 
ATOM     23  O   UNL     1       5.216   6.100  15.674  0.00  0.00    +0.000 OA
ATOM     24  N   UNL     1       4.383   5.397  17.688  0.00  0.00    +0.000 N 
ATOM     25  H   UNL     1       3.936   5.728  18.531  0.00  0.00    +0.000 HD
BRANCH  24  26
ATOM     26  C   UNL     1       4.947   4.064  17.621  0.00  0.00    +0.000 C 
BRANCH  26  27
ATOM     27  C   UNL     1       3.855   2.990  17.545  0.00  0.00    +0.000 C 
BRANCH  27  28
ATOM     28  C   UNL     1       3.038   2.903  18.809  0.00  0.00    +0.000 A 
ATOM     29  C   UNL     1       1.648   3.099  18.765  0.00  0.00    +0.000 A 
ATOM     30  C   UNL     1       0.890   3.016  19.932  0.00  0.00    +0.000 A 
ATOM     31  C   UNL     1       1.519   2.739  21.139  0.00  0.00    +0.000 A 
ATOM     32  F   UNL     1       0.790   2.656  22.259  0.00  0.00    +0.000 F 
ATOM     33  C   UNL     1       2.894   2.548  21.203  0.00  0.00    +0.000 A 
ATOM     34  C   UNL     1       3.656   2.630  20.037  0.00  0.00    +0.000 A 
ENDBRANCH  27  28
ENDBRANCH  26  27
ENDBRANCH  24  26
ENDBRANCH  21  22
ENDBRANCH  20  21
ENDBRANCH  19  20
ENDBRANCH  18  19
ENDBRANCH   1  18
TORSDOF 12
ENDMDL
MODEL 4
REMARK VINA RESULT:      -7.3      6.725      9.020
REMARK  Name = 
REMARK  15 active torsions:
REMARK  status: ('A' for Active; 'I' for Inactive)
REMARK    1  A    between atoms: C_1  and  O_2
REMARK    2  A    between atoms: O_2  and  C_3
REMARK    3  A    between atoms: C_8  and  O_9
REMARK    4  A    between atoms: O_9  and  C_10
REMARK    5  A    between atoms: C_11  and  C_12
REMARK    6  A    between atoms: C_12  and  C_13
REMARK    7  A    between atoms: C_13  and  C_14
REMARK    8  A    between atoms: C_14  and  C_15
REMARK    9  A    between atoms: C_15  and  C_16
REMARK   10  A    between atoms: C_16  and  O_17
REMARK   11  A    between atoms: O_17  and  C_18
REMARK   12  A    between atoms: N_20  and  C_21
REMARK   13  A    between atoms: C_21  and  C_22
REMARK   14  A    between atoms: C_22  and  C_23
REMARK   15  A    between atoms: N_30  and  C_31
REMARK                            x       y       z     vdW  Elec       q    Type
REMARK                         _______ _______ _______ _____ _____    ______ ____
ROOT
ATOM      1  C   UNL     1       8.483  11.057  18.379  0.00  0.00    +0.000 C 
ENDROOT
BRANCH   1   2
ATOM      2  C   UNL     1       9.599  11.938  17.791  0.00  0.00    +0.000 C 
BRANCH   2   9
ATOM      3  C   UNL     1       6.551  14.654  20.831  0.00  0.00    +0.000 A 
ATOM      4  C   UNL     1       7.530  13.928  21.521  0.00  0.00    +0.000 A 
ATOM      5  C   UNL     1       8.668  13.435  20.868  0.00  0.00    +0.000 A 
ATOM      6  C   UNL     1       8.864  13.706  19.505  0.00  0.00    +0.000 A 
ATOM      7  C   UNL     1       7.923  14.527  18.851  0.00  0.00    +0.000 A 
ATOM      8  C   UNL     1       6.748  14.968  19.479  0.00  0.00    +0.000 A 
ATOM      9  C   UNL     1      10.049  13.108  18.732  0.00  0.00    +0.000 C 
ATOM     10  N   UNL     1      11.155  12.755  19.660  0.00  0.00    +0.000 NA
ATOM     11  C   UNL     1      12.331  12.179  19.023  0.00  0.00    +0.000 C 
ATOM     12  C   UNL     1      10.691  11.924  20.776  0.00  0.00    +0.000 C 
ATOM     13  C   UNL     1       9.729  12.717  21.661  0.00  0.00    +0.000 C 
BRANCH   3  15
ATOM     14  C   UNL     1       5.714  16.209  22.420  0.00  0.00    +0.000 C 
ATOM     15  O   UNL     1       5.505  15.047  21.627  0.00  0.00    +0.000 OA
ENDBRANCH   3  15
BRANCH   8  16
ATOM     16  O   UNL     1       5.796  15.717  18.843  0.00  0.00    +0.000 OA
ATOM     17  C   UNL     1       5.932  17.132  18.859  0.00  0.00    +0.000 C 
ENDBRANCH   8  16
ENDBRANCH   2   9
ENDBRANCH   1   2
BRANCH   1  18
ATOM     18  C   UNL     1       8.769   9.553  18.319  0.00  0.00    +0.000 C 
BRANCH  18  19
ATOM     19  C   UNL     1       7.657   8.846  17.539  0.00  0.00    +0.000 C 
BRANCH  19  20
ATOM     20  C   UNL     1       7.668   7.330  17.750  0.00  0.00    +0.000 C 
BRANCH  20  21
ATOM     21  O   UNL     1       7.550   6.643  16.491  0.00  0.00    +0.000 OA
BRANCH  21  22
ATOM     22  C   UNL     1       6.307   6.180  16.210  0.00  0.00    +0.000 C 
ATOM     23  O   UNL     1       5.777   6.198  15.111  0.00  0.00    +0.000 OA
ATOM     24  N   UNL     1       5.763   5.618  17.326  0.00  0.00    +0.000 N 
ATOM     25  H   UNL     1       6.321   5.652  18.168  0.00  0.00    +0.000 HD
BRANCH  24  26
ATOM     26  C   UNL     1       4.585   4.778  17.249  0.00  0.00    +0.000 C 
BRANCH  26  27
ATOM     27  C   UNL     1       3.346   5.488  17.810  0.00  0.00    +0.000 C 
BRANCH  27  28
ATOM     28  C   UNL     1       2.656   4.688  18.884  0.00  0.00    +0.000 A 
ATOM     29  C   UNL     1       1.928   3.536  18.547  0.00  0.00    +0.000 A 
ATOM     30  C   UNL     1       1.291   2.792  19.540  0.00  0.00    +0.000 A 
ATOM     31  C   UNL     1       1.382   3.199  20.866  0.00  0.00    +0.000 A 
ATOM     32  F   UNL     1       0.774   2.482  21.819  0.00  0.00    +0.000 F 
ATOM     33  C   UNL     1       2.093   4.339  21.217  0.00  0.00    +0.000 A 
ATOM     34  C   UNL     1       2.732   5.087  20.226  0.00  0.00    +0.000 A 
ENDBRANCH  27  28
ENDBRANCH  26  27
ENDBRANCH  24  26
ENDBRANCH  21  22
ENDBRANCH  20  21
ENDBRANCH  19  20
ENDBRANCH  18  19
ENDBRANCH   1  18
TORSDOF 12
ENDMDL
MODEL 5
REMARK VINA RESULT:      -7.2      7.069      9.969
REMARK  Name = 
REMARK  15 active torsions:
REMARK  status: ('A' for Active; 'I' for Inactive)
REMARK    1  A    between atoms: C_1  and  O_2
REMARK    2  A    between atoms: O_2  and  C_3
REMARK    3  A    between atoms: C_8  and  O_9
REMARK    4  A    between atoms: O_9  and  C_10
REMARK    5  A    between atoms: C_11  and  C_12
REMARK    6  A    between atoms: C_12  and  C_13
REMARK    7  A    between atoms: C_13  and  C_14
REMARK    8  A    between atoms: C_14  and  C_15
REMARK    9  A    between atoms: C_15  and  C_16
REMARK   10  A    between atoms: C_16  and  O_17
REMARK   11  A    between atoms: O_17  and  C_18
REMARK   12  A    between atoms: N_20  and  C_21
REMARK   13  A    between atoms: C_21  and  C_22
REMARK   14  A    between atoms: C_22  and  C_23
REMARK   15  A    between atoms: N_30  and  C_31
REMARK                            x       y       z     vdW  Elec       q    Type
REMARK                         _______ _______ _______ _____ _____    ______ ____
ROOT
ATOM      1  C   UNL     1       9.841  11.447  19.345  0.00  0.00    +0.000 C 
ENDROOT
BRANCH   1   2
ATOM      2  C   UNL     1       9.411  12.139  18.040  0.00  0.00    +0.000 C 
BRANCH   2   9
ATOM      3  C   UNL     1       8.613  15.406  21.860  0.00  0.00    +0.000 A 
ATOM      4  C   UNL     1       9.959  15.294  21.488  0.00  0.00    +0.000 A 
ATOM      5  C   UNL     1      10.331  14.755  20.250  0.00  0.00    +0.000 A 
ATOM      6  C   UNL     1       9.343  14.357  19.336  0.00  0.00    +0.000 A 
ATOM      7  C   UNL     1       7.994  14.573  19.683  0.00  0.00    +0.000 A 
ATOM      8  C   UNL     1       7.611  15.049  20.946  0.00  0.00    +0.000 A 
ATOM      9  C   UNL     1       9.708  13.678  18.008  0.00  0.00    +0.000 C 
ATOM     10  N   UNL     1      11.097  14.024  17.607  0.00  0.00    +0.000 NA
ATOM     11  C   UNL     1      11.541  13.428  16.354  0.00  0.00    +0.000 C 
ATOM     12  C   UNL     1      12.058  13.777  18.687  0.00  0.00    +0.000 C 
ATOM     13  C   UNL     1      11.786  14.716  19.862  0.00  0.00    +0.000 C 
BRANCH   3  15
ATOM     14  C   UNL     1       8.454  15.035  24.201  0.00  0.00    +0.000 C 
ATOM     15  O   UNL     1       8.437  15.946  23.110  0.00  0.00    +0.000 OA
ENDBRANCH   3  15
BRANCH   8  16
ATOM     16  O   UNL     1       6.305  15.211  21.322  0.00  0.00    +0.000 OA
ATOM     17  C   UNL     1       5.623  16.382  20.893  0.00  0.00    +0.000 C 
ENDBRANCH   8  16
ENDBRANCH   2   9
ENDBRANCH   1   2
BRANCH   1  18
ATOM     18  C   UNL     1       9.225  10.060  19.556  0.00  0.00    +0.000 C 
BRANCH  18  19
ATOM     19  C   UNL     1       8.498   9.618  18.283  0.00  0.00    +0.000 C 
BRANCH  19  20
ATOM     20  C   UNL     1       8.259   8.107  18.242  0.00  0.00    +0.000 C 
BRANCH  20  21
ATOM     21  O   UNL     1       7.719   7.714  16.968  0.00  0.00    +0.000 OA
BRANCH  21  22
ATOM     22  C   UNL     1       6.631   6.909  17.034  0.00  0.00    +0.000 C 
ATOM     23  O   UNL     1       5.763   6.818  16.180  0.00  0.00    +0.000 OA
ATOM     24  N   UNL     1       6.688   6.152  18.167  0.00  0.00    +0.000 N 
ATOM     25  H   UNL     1       7.475   6.313  18.779  0.00  0.00    +0.000 HD
BRANCH  24  26
ATOM     26  C   UNL     1       5.832   4.998  18.345  0.00  0.00    +0.000 C 
BRANCH  26  27
ATOM     27  C   UNL     1       4.790   5.231  19.448  0.00  0.00    +0.000 C 
BRANCH  27  28
ATOM     28  C   UNL     1       3.536   4.421  19.241  0.00  0.00    +0.000 A 
ATOM     29  C   UNL     1       3.271   3.837  17.992  0.00  0.00    +0.000 A 
ATOM     30  C   UNL     1       2.114   3.085  17.799  0.00  0.00    +0.000 A 
ATOM     31  C   UNL     1       1.223   2.916  18.852  0.00  0.00    +0.000 A 
ATOM     32  F   UNL     1       0.114   2.190  18.668  0.00  0.00    +0.000 F 
ATOM     33  C   UNL     1       1.465   3.491  20.094  0.00  0.00    +0.000 A 
ATOM     34  C   UNL     1       2.623   4.245  20.290  0.00  0.00    +0.000 A 
ENDBRANCH  27  28
ENDBRANCH  26  27
ENDBRANCH  24  26
ENDBRANCH  21  22
ENDBRANCH  20  21
ENDBRANCH  19  20
ENDBRANCH  18  19
ENDBRANCH   1  18
TORSDOF 12
ENDMDL
MODEL 6
REMARK VINA RESULT:      -7.1      5.111      8.412
REMARK  Name = 
REMARK  15 active torsions:
REMARK  status: ('A' for Active; 'I' for Inactive)
REMARK    1  A    between atoms: C_1  and  O_2
REMARK    2  A    between atoms: O_2  and  C_3
REMARK    3  A    between atoms: C_8  and  O_9
REMARK    4  A    between atoms: O_9  and  C_10
REMARK    5  A    between atoms: C_11  and  C_12
REMARK    6  A    between atoms: C_12  and  C_13
REMARK    7  A    between atoms: C_13  and  C_14
REMARK    8  A    between atoms: C_14  and  C_15
REMARK    9  A    between atoms: C_15  and  C_16
REMARK   10  A    between atoms: C_16  and  O_17
REMARK   11  A    between atoms: O_17  and  C_18
REMARK   12  A    between atoms: N_20  and  C_21
REMARK   13  A    between atoms: C_21  and  C_22
REMARK   14  A    between atoms: C_22  and  C_23
REMARK   15  A    between atoms: N_30  and  C_31
REMARK                            x       y       z     vdW  Elec       q    Type
REMARK                         _______ _______ _______ _____ _____    ______ ____
ROOT
ATOM      1  C   UNL     1       5.134   7.058  16.686  0.00  0.00    +0.000 C 
ENDROOT
BRANCH   1   2
ATOM      2  C   UNL     1       4.398   7.379  17.999  0.00  0.00    +0.000 C 
BRANCH   2   9
ATOM      3  C   UNL     1       2.707   3.476  20.794  0.00  0.00    +0.000 A 
ATOM      4  C   UNL     1       2.121   4.704  21.130  0.00  0.00    +0.000 A 
ATOM      5  C   UNL     1       2.167   5.797  20.255  0.00  0.00    +0.000 A 
ATOM      6  C   UNL     1       2.770   5.659  18.995  0.00  0.00    +0.000 A 
ATOM      7  C   UNL     1       3.260   4.389  18.631  0.00  0.00    +0.000 A 
ATOM      8  C   UNL     1       3.279   3.308  19.525  0.00  0.00    +0.000 A 
ATOM      9  C   UNL     1       2.921   6.857  18.045  0.00  0.00    +0.000 C 
ATOM     10  N   UNL     1       1.913   7.903  18.356  0.00  0.00    +0.000 NA
ATOM     11  C   UNL     1       1.972   9.085  17.507  0.00  0.00    +0.000 C 
ATOM     12  C   UNL     1       1.917   8.266  19.778  0.00  0.00    +0.000 C 
ATOM     13  C   UNL     1       1.466   7.078  20.627  0.00  0.00    +0.000 C 
BRANCH   3  15
ATOM     14  C   UNL     1       1.249   2.235  22.200  0.00  0.00    +0.000 C 
ATOM     15  O   UNL     1       2.574   2.525  21.774  0.00  0.00    +0.000 OA
ENDBRANCH   3  15
BRANCH   8  16
ATOM     16  O   UNL     1       3.804   2.084  19.209  0.00  0.00    +0.000 OA
ATOM     17  C   UNL     1       3.536   1.551  17.918  0.00  0.00    +0.000 C 
ENDBRANCH   8  16
ENDBRANCH   2   9
ENDBRANCH   1   2
BRANCH   1  18
ATOM     18  C   UNL     1       6.375   6.177  16.858  0.00  0.00    +0.000 C 
BRANCH  18  19
ATOM     19  C   UNL     1       6.926   6.331  18.279  0.00  0.00    +0.000 C 
BRANCH  19  20
ATOM     20  C   UNL     1       8.077   7.337  18.353  0.00  0.00    +0.000 C 
BRANCH  20  21
ATOM     21  O   UNL     1       7.832   8.451  17.477  0.00  0.00    +0.000 OA
BRANCH  21  22
ATOM     22  C   UNL     1       8.283   9.645  17.934  0.00  0.00    +0.000 C 
ATOM     23  O   UNL     1       8.053  10.731  17.427  0.00  0.00    +0.000 OA
ATOM     24  N   UNL     1       8.974   9.460  19.096  0.00  0.00    +0.000 N 
ATOM     25  H   UNL     1       9.072   8.508  19.417  0.00  0.00    +0.000 HD
BRANCH  24  26
ATOM     26  C   UNL     1       9.302  10.574  19.962  0.00  0.00    +0.000 C 
BRANCH  26  27
ATOM     27  C   UNL     1      10.744  11.053  19.744  0.00  0.00    +0.000 C 
BRANCH  27  28
ATOM     28  C   UNL     1      10.825  12.260  18.845  0.00  0.00    +0.000 A 
ATOM     29  C   UNL     1      10.354  13.505  19.292  0.00  0.00    +0.000 A 
ATOM     30  C   UNL     1      10.430  14.623  18.463  0.00  0.00    +0.000 A 
ATOM     31  C   UNL     1      10.975  14.497  17.190  0.00  0.00    +0.000 A 
ATOM     32  F   UNL     1      11.052  15.572  16.396  0.00  0.00    +0.000 F 
ATOM     33  C   UNL     1      11.440  13.272  16.729  0.00  0.00    +0.000 A 
ATOM     34  C   UNL     1      11.365  12.150  17.556  0.00  0.00    +0.000 A 
ENDBRANCH  27  28
ENDBRANCH  26  27
ENDBRANCH  24  26
ENDBRANCH  21  22
ENDBRANCH  20  21
ENDBRANCH  19  20
ENDBRANCH  18  19
ENDBRANCH   1  18
TORSDOF 12
ENDMDL
MODEL 7
REMARK VINA RESULT:      -7.1      3.947      5.007
REMARK  Name = 
REMARK  15 active torsions:
REMARK  status: ('A' for Active; 'I' for Inactive)
REMARK    1  A    between atoms: C_1  and  O_2
REMARK    2  A    between atoms: O_2  and  C_3
REMARK    3  A    between atoms: C_8  and  O_9
REMARK    4  A    between atoms: O_9  and  C_10
REMARK    5  A    between atoms: C_11  and  C_12
REMARK    6  A    between atoms: C_12  and  C_13
REMARK    7  A    between atoms: C_13  and  C_14
REMARK    8  A    between atoms: C_14  and  C_15
REMARK    9  A    between atoms: C_15  and  C_16
REMARK   10  A    between atoms: C_16  and  O_17
REMARK   11  A    between atoms: O_17  and  C_18
REMARK   12  A    between atoms: N_20  and  C_21
REMARK   13  A    between atoms: C_21  and  C_22
REMARK   14  A    between atoms: C_22  and  C_23
REMARK   15  A    between atoms: N_30  and  C_31
REMARK                            x       y       z     vdW  Elec       q    Type
REMARK                         _______ _______ _______ _____ _____    ______ ____
ROOT
ATOM      1  C   UNL     1       1.320   8.904  20.022  0.00  0.00    +0.000 C 
ENDROOT
BRANCH   1   2
ATOM      2  C   UNL     1       0.147   9.741  20.561  0.00  0.00    +0.000 C 
BRANCH   2   9
ATOM      3  C   UNL     1      -0.188  14.776  19.895  0.00  0.00    +0.000 A 
ATOM      4  C   UNL     1      -0.974  14.295  20.950  0.00  0.00    +0.000 A 
ATOM      5  C   UNL     1      -0.737  13.038  21.522  0.00  0.00    +0.000 A 
ATOM      6  C   UNL     1       0.334  12.254  21.066  0.00  0.00    +0.000 A 
ATOM      7  C   UNL     1       1.178  12.797  20.077  0.00  0.00    +0.000 A 
ATOM      8  C   UNL     1       0.909  14.024  19.452  0.00  0.00    +0.000 A 
ATOM      9  C   UNL     1       0.571  10.835  21.603  0.00  0.00    +0.000 C 
ATOM     10  N   UNL     1      -0.045  10.671  22.945  0.00  0.00    +0.000 NA
ATOM     11  C   UNL     1       0.126   9.355  23.543  0.00  0.00    +0.000 C 
ATOM     12  C   UNL     1      -1.452  11.086  22.958  0.00  0.00    +0.000 C 
ATOM     13  C   UNL     1      -1.562  12.589  22.699  0.00  0.00    +0.000 C 
BRANCH   3  15
ATOM     14  C   UNL     1      -0.316  17.107  20.333  0.00  0.00    +0.000 C 
ATOM     15  O   UNL     1      -0.571  16.019  19.455  0.00  0.00    +0.000 OA
ENDBRANCH   3  15
BRANCH   8  16
ATOM     16  O   UNL     1       1.685  14.540  18.450  0.00  0.00    +0.000 OA
ATOM     17  C   UNL     1       2.909  13.885  18.142  0.00  0.00    +0.000 C 
ENDBRANCH   8  16
ENDBRANCH   2   9
ENDBRANCH   1   2
BRANCH   1  18
ATOM     18  C   UNL     1       1.352   7.460  20.535  0.00  0.00    +0.000 C 
BRANCH  18  19
ATOM     19  C   UNL     1       2.376   6.650  19.733  0.00  0.00    +0.000 C 
BRANCH  19  20
ATOM     20  C   UNL     1       2.592   7.212  18.326  0.00  0.00    +0.000 C 
BRANCH  20  21
ATOM     21  O   UNL     1       3.995   7.258  18.009  0.00  0.00    +0.000 OA
BRANCH  21  22
ATOM     22  C   UNL     1       4.617   6.054  18.002  0.00  0.00    +0.000 C 
ATOM     23  O   UNL     1       5.444   5.679  18.817  0.00  0.00    +0.000 OA
ATOM     24  N   UNL     1       4.123   5.289  16.987  0.00  0.00    +0.000 N 
ATOM     25  H   UNL     1       3.423   5.716  16.397  0.00  0.00    +0.000 HD
BRANCH  24  26
ATOM     26  C   UNL     1       4.376   3.864  16.927  0.00  0.00    +0.000 C 
BRANCH  26  27
ATOM     27  C   UNL     1       3.077   3.054  17.033  0.00  0.00    +0.000 C 
BRANCH  27  28
ATOM     28  C   UNL     1       2.555   2.977  18.444  0.00  0.00    +0.000 A 
ATOM     29  C   UNL     1       1.194   3.200  18.706  0.00  0.00    +0.000 A 
ATOM     30  C   UNL     1       0.708   3.126  20.011  0.00  0.00    +0.000 A 
ATOM     31  C   UNL     1       1.581   2.831  21.051  0.00  0.00    +0.000 A 
ATOM     32  F   UNL     1       1.113   2.757  22.303  0.00  0.00    +0.000 F 
ATOM     33  C   UNL     1       2.932   2.614  20.812  0.00  0.00    +0.000 A 
ATOM     34  C   UNL     1       3.422   2.687  19.508  0.00  0.00    +0.000 A 
ENDBRANCH  27  28
ENDBRANCH  26  27
ENDBRANCH  24  26
ENDBRANCH  21  22
ENDBRANCH  20  21
ENDBRANCH  19  20
ENDBRANCH  18  19
ENDBRANCH   1  18
TORSDOF 12
ENDMDL
MODEL 8
REMARK VINA RESULT:      -7.1      4.034     10.810
REMARK  Name = 
REMARK  15 active torsions:
REMARK  status: ('A' for Active; 'I' for Inactive)
REMARK    1  A    between atoms: C_1  and  O_2
REMARK    2  A    between atoms: O_2  and  C_3
REMARK    3  A    between atoms: C_8  and  O_9
REMARK    4  A    between atoms: O_9  and  C_10
REMARK    5  A    between atoms: C_11  and  C_12
REMARK    6  A    between atoms: C_12  and  C_13
REMARK    7  A    between atoms: C_13  and  C_14
REMARK    8  A    between atoms: C_14  and  C_15
REMARK    9  A    between atoms: C_15  and  C_16
REMARK   10  A    between atoms: C_16  and  O_17
REMARK   11  A    between atoms: O_17  and  C_18
REMARK   12  A    between atoms: N_20  and  C_21
REMARK   13  A    between atoms: C_21  and  C_22
REMARK   14  A    between atoms: C_22  and  C_23
REMARK   15  A    between atoms: N_30  and  C_31
REMARK                            x       y       z     vdW  Elec       q    Type
REMARK                         _______ _______ _______ _____ _____    ______ ____
ROOT
ATOM      1  C   UNL     1       1.842   5.534  18.655  0.00  0.00    +0.000 C 
ENDROOT
BRANCH   1   2
ATOM      2  C   UNL     1       1.601   4.437  17.604  0.00  0.00    +0.000 C 
BRANCH   2   9
ATOM      3  C   UNL     1       6.645   5.115  17.525  0.00  0.00    +0.000 A 
ATOM      4  C   UNL     1       6.182   4.474  18.682  0.00  0.00    +0.000 A 
ATOM      5  C   UNL     1       4.918   3.873  18.726  0.00  0.00    +0.000 A 
ATOM      6  C   UNL     1       4.106   3.866  17.580  0.00  0.00    +0.000 A 
ATOM      7  C   UNL     1       4.630   4.421  16.395  0.00  0.00    +0.000 A 
ATOM      8  C   UNL     1       5.866   5.085  16.360  0.00  0.00    +0.000 A 
ATOM      9  C   UNL     1       2.680   3.298  17.613  0.00  0.00    +0.000 C 
ATOM     10  N   UNL     1       2.529   2.323  18.723  0.00  0.00    +0.000 NA
ATOM     11  C   UNL     1       1.207   1.724  18.840  0.00  0.00    +0.000 C 
ATOM     12  C   UNL     1       2.980   2.875  20.005  0.00  0.00    +0.000 C 
ATOM     13  C   UNL     1       4.486   3.136  19.967  0.00  0.00    +0.000 C 
BRANCH   3  15
ATOM     14  C   UNL     1       7.969   6.936  18.280  0.00  0.00    +0.000 C 
ATOM     15  O   UNL     1       7.898   5.655  17.668  0.00  0.00    +0.000 OA
ENDBRANCH   3  15
BRANCH   8  16
ATOM     16  O   UNL     1       6.364   5.681  15.233  0.00  0.00    +0.000 OA
ATOM     17  C   UNL     1       6.954   4.852  14.239  0.00  0.00    +0.000 C 
ENDBRANCH   8  16
ENDBRANCH   2   9
ENDBRANCH   1   2
BRANCH   1  18
ATOM     18  C   UNL     1       2.642   6.735  18.141  0.00  0.00    +0.000 C 
BRANCH  18  19
ATOM     19  C   UNL     1       2.148   8.015  18.823  0.00  0.00    +0.000 C 
BRANCH  19  20
ATOM     20  C   UNL     1       1.805   9.116  17.818  0.00  0.00    +0.000 C 
BRANCH  20  21
ATOM     21  O   UNL     1       0.587   9.784  18.195  0.00  0.00    +0.000 OA
BRANCH  21  22
ATOM     22  C   UNL     1       0.734  10.750  19.133  0.00  0.00    +0.000 C 
ATOM     23  O   UNL     1       1.498  11.699  19.059  0.00  0.00    +0.000 OA
ATOM     24  N   UNL     1      -0.158  10.549  20.145  0.00  0.00    +0.000 N 
ATOM     25  H   UNL     1      -0.749   9.733  20.070  0.00  0.00    +0.000 HD
BRANCH  24  26
ATOM     26  C   UNL     1      -0.438  11.583  21.120  0.00  0.00    +0.000 C 
BRANCH  26  27
ATOM     27  C   UNL     1      -1.551  12.525  20.642  0.00  0.00    +0.000 C 
BRANCH  27  28
ATOM     28  C   UNL     1      -2.672  12.651  21.642  0.00  0.00    +0.000 A 
ATOM     29  C   UNL     1      -3.903  13.204  21.254  0.00  0.00    +0.000 A 
ATOM     30  C   UNL     1      -4.942  13.319  22.176  0.00  0.00    +0.000 A 
ATOM     31  C   UNL     1      -4.752  12.884  23.482  0.00  0.00    +0.000 A 
ATOM     32  F   UNL     1      -5.751  12.991  24.366  0.00  0.00    +0.000 F 
ATOM     33  C   UNL     1      -3.538  12.339  23.885  0.00  0.00    +0.000 A 
ATOM     34  C   UNL     1      -2.495  12.223  22.965  0.00  0.00    +0.000 A 
ENDBRANCH  27  28
ENDBRANCH  26  27
ENDBRANCH  24  26
ENDBRANCH  21  22
ENDBRANCH  20  21
ENDBRANCH  19  20
ENDBRANCH  18  19
ENDBRANCH   1  18
TORSDOF 12
ENDMDL
MODEL 9
REMARK VINA RESULT:      -7.0      3.740      6.777
REMARK  Name = 
REMARK  15 active torsions:
REMARK  status: ('A' for Active; 'I' for Inactive)
REMARK    1  A    between atoms: C_1  and  O_2
REMARK    2  A    between atoms: O_2  and  C_3
REMARK    3  A    between atoms: C_8  and  O_9
REMARK    4  A    between atoms: O_9  and  C_10
REMARK    5  A    between atoms: C_11  and  C_12
REMARK    6  A    between atoms: C_12  and  C_13
REMARK    7  A    between atoms: C_13  and  C_14
REMARK    8  A    between atoms: C_14  and  C_15
REMARK    9  A    between atoms: C_15  and  C_16
REMARK   10  A    between atoms: C_16  and  O_17
REMARK   11  A    between atoms: O_17  and  C_18
REMARK   12  A    between atoms: N_20  and  C_21
REMARK   13  A    between atoms: C_21  and  C_22
REMARK   14  A    between atoms: C_22  and  C_23
REMARK   15  A    between atoms: N_30  and  C_31
REMARK                            x       y       z     vdW  Elec       q    Type
REMARK                         _______ _______ _______ _____ _____    ______ ____
ROOT
ATOM      1  C   UNL     1       3.413   3.827  16.380  0.00  0.00    +0.000 C 
ENDROOT
BRANCH   1   2
ATOM      2  C   UNL     1       2.565   4.220  17.602  0.00  0.00    +0.000 C 
BRANCH   2   9
ATOM      3  C   UNL     1       1.321   8.757  19.545  0.00  0.00    +0.000 A 
ATOM      4  C   UNL     1       1.317   7.721  20.489  0.00  0.00    +0.000 A 
ATOM      5  C   UNL     1       1.979   6.510  20.245  0.00  0.00    +0.000 A 
ATOM      6  C   UNL     1       2.701   6.336  19.054  0.00  0.00    +0.000 A 
ATOM      7  C   UNL     1       2.781   7.425  18.163  0.00  0.00    +0.000 A 
ATOM      8  C   UNL     1       2.067   8.615  18.367  0.00  0.00    +0.000 A 
ATOM      9  C   UNL     1       3.363   4.994  18.708  0.00  0.00    +0.000 C 
ATOM     10  N   UNL     1       3.621   4.204  19.940  0.00  0.00    +0.000 NA
ATOM     11  C   UNL     1       4.250   2.910  19.720  0.00  0.00    +0.000 C 
ATOM     12  C   UNL     1       2.421   4.080  20.775  0.00  0.00    +0.000 C 
ATOM     13  C   UNL     1       2.008   5.449  21.314  0.00  0.00    +0.000 C 
BRANCH   3  15
ATOM     14  C   UNL     1      -0.741   9.936  19.525  0.00  0.00    +0.000 C 
ATOM     15  O   UNL     1       0.614   9.862  19.949  0.00  0.00    +0.000 OA
ENDBRANCH   3  15
BRANCH   8  16
ATOM     16  O   UNL     1       2.087   9.661  17.485  0.00  0.00    +0.000 OA
ATOM     17  C   UNL     1       2.496  10.937  17.963  0.00  0.00    +0.000 C 
ENDBRANCH   8  16
ENDBRANCH   2   9
ENDBRANCH   1   2
BRANCH   1  18
ATOM     18  C   UNL     1       4.922   4.007  16.574  0.00  0.00    +0.000 C 
BRANCH  18  19
ATOM     19  C   UNL     1       5.447   5.060  15.593  0.00  0.00    +0.000 C 
BRANCH  19  20
ATOM     20  C   UNL     1       6.970   5.201  15.650  0.00  0.00    +0.000 C 
BRANCH  20  21
ATOM     21  O   UNL     1       7.385   5.692  16.937  0.00  0.00    +0.000 OA
BRANCH  21  22
ATOM     22  C   UNL     1       6.955   6.943  17.235  0.00  0.00    +0.000 C 
ATOM     23  O   UNL     1       5.836   7.233  17.626  0.00  0.00    +0.000 OA
ATOM     24  N   UNL     1       7.987   7.825  17.107  0.00  0.00    +0.000 N 
ATOM     25  H   UNL     1       8.870   7.447  16.794  0.00  0.00    +0.000 HD
BRANCH  24  26
ATOM     26  C   UNL     1       7.903   9.165  17.650  0.00  0.00    +0.000 C 
BRANCH  26  27
ATOM     27  C   UNL     1       8.854   9.354  18.840  0.00  0.00    +0.000 C 
BRANCH  27  28
ATOM     28  C   UNL     1       9.436  10.743  18.903  0.00  0.00    +0.000 A 
ATOM     29  C   UNL     1      10.341  11.083  19.921  0.00  0.00    +0.000 A 
ATOM     30  C   UNL     1      10.883  12.366  19.980  0.00  0.00    +0.000 A 
ATOM     31  C   UNL     1      10.520  13.307  19.024  0.00  0.00    +0.000 A 
ATOM     32  F   UNL     1      11.044  14.538  19.078  0.00  0.00    +0.000 F 
ATOM     33  C   UNL     1       9.622  12.990  18.012  0.00  0.00    +0.000 A 
ATOM     34  C   UNL     1       9.077  11.707  17.950  0.00  0.00    +0.000 A 
ENDBRANCH  27  28
ENDBRANCH  26  27
ENDBRANCH  24  26
ENDBRANCH  21  22
ENDBRANCH  20  21
ENDBRANCH  19  20
ENDBRANCH  18  19
ENDBRANCH   1  18
TORSDOF 12
ENDMDL
