MODEL 1
REMARK VINA RESULT:      -9.3      0.000      0.000
REMARK  Name = 
REMARK  5 active torsions:
REMARK  status: ('A' for Active; 'I' for Inactive)
REMARK    1  A    between atoms: C_5  and  O_6
REMARK    2  A    between atoms: C_5  and  C_7
REMARK    3  A    between atoms: C_7  and  C_8
REMARK    4  A    between atoms: C_9  and  C_10
REMARK    5  A    between atoms: C_17  and  C_18
REMARK                            x       y       z     vdW  Elec       q    Type
REMARK                         _______ _______ _______ _____ _____    ______ ____
ROOT
ATOM      1  O   UNL     1       5.100   5.011  20.033  0.00  0.00    +0.000 OA
ATOM      2  C   UNL     1       5.932   5.371  19.220  0.00  0.00    +0.000 C 
ATOM      3  C   UNL     1       7.357   5.558  19.537  0.00  0.00    +0.000 C 
ATOM      4  C   UNL     1       7.930   6.132  18.476  0.00  0.00    +0.000 C 
ATOM      5  C   UNL     1       6.958   6.481  17.383  0.00  0.00    +0.000 C 
ATOM      6  C   UNL     1       5.723   5.731  17.790  0.00  0.00    +0.000 C 
ATOM      7  C   UNL     1       4.746   5.292  16.984  0.00  0.00    +0.000 C 
ENDROOT
BRANCH   7   8
ATOM      8  C   UNL     1       3.675   4.388  17.388  0.00  0.00    +0.000 A 
ATOM      9  C   UNL     1       3.888   3.008  17.382  0.00  0.00    +0.000 A 
ATOM     10  C   UNL     1       2.865   2.143  17.770  0.00  0.00    +0.000 A 
ATOM     11  C   UNL     1       1.629   2.654  18.164  0.00  0.00    +0.000 A 
ATOM     12  C   UNL     1       1.411   4.032  18.169  0.00  0.00    +0.000 A 
ATOM     13  C   UNL     1       2.434   4.898  17.780  0.00  0.00    +0.000 A 
ENDBRANCH   7   8
BRANCH   5  14
ATOM     14  O   UNL     1       7.433   5.936  16.152  0.00  0.00    +0.000 OA
ATOM     15  H   UNL     1       7.120   5.017  16.092  0.00  0.00    +0.000 HD
ENDBRANCH   5  14
BRANCH   5  16
ATOM     16  C   UNL     1       6.735   8.019  17.274  0.00  0.00    +0.000 C 
BRANCH  16  17
ATOM     17  C   UNL     1       7.939   8.708  17.776  0.00  0.00    +0.000 C 
ATOM     18  C   UNL     1       8.689   9.526  18.239  0.00  0.00    +0.000 C 
BRANCH  18  19
ATOM     19  C   UNL     1       9.310  10.678  18.810  0.00  0.00    +0.000 A 
ATOM     20  C   UNL     1       9.524  10.727  20.193  0.00  0.00    +0.000 A 
ATOM     21  C   UNL     1      10.195  11.807  20.763  0.00  0.00    +0.000 A 
ATOM     22  C   UNL     1      10.647  12.845  19.951  0.00  0.00    +0.000 A 
ATOM     23  C   UNL     1      10.444  12.793  18.570  0.00  0.00    +0.000 A 
ATOM     24  C   UNL     1       9.782  11.706  17.997  0.00  0.00    +0.000 A 
ENDBRANCH  18  19
ENDBRANCH  16  17
ENDBRANCH   5  16
TORSDOF 5
ENDMDL
MODEL 2
REMARK VINA RESULT:      -9.2      0.279      1.046
REMARK  Name = 
REMARK  5 active torsions:
REMARK  status: ('A' for Active; 'I' for Inactive)
REMARK    1  A    between atoms: C_5  and  O_6
REMARK    2  A    between atoms: C_5  and  C_7
REMARK    3  A    between atoms: C_7  and  C_8
REMARK    4  A    between atoms: C_9  and  C_10
REMARK    5  A    between atoms: C_17  and  C_18
REMARK                            x       y       z     vdW  Elec       q    Type
REMARK                         _______ _______ _______ _____ _____    ______ ____
ROOT
ATOM      1  O   UNL     1       5.182   4.964  20.039  0.00  0.00    +0.000 OA
ATOM      2  C   UNL     1       5.995   5.381  19.235  0.00  0.00    +0.000 C 
ATOM      3  C   UNL     1       7.421   5.577  19.541  0.00  0.00    +0.000 C 
ATOM      4  C   UNL     1       7.968   6.218  18.504  0.00  0.00    +0.000 C 
ATOM      5  C   UNL     1       6.974   6.607  17.445  0.00  0.00    +0.000 C 
ATOM      6  C   UNL     1       5.758   5.815  17.829  0.00  0.00    +0.000 C 
ATOM      7  C   UNL     1       4.777   5.401  17.015  0.00  0.00    +0.000 C 
ENDROOT
BRANCH   7   8
ATOM      8  C   UNL     1       3.728   4.457  17.385  0.00  0.00    +0.000 A 
ATOM      9  C   UNL     1       2.474   4.927  17.776  0.00  0.00    +0.000 A 
ATOM     10  C   UNL     1       1.469   4.025  18.128  0.00  0.00    +0.000 A 
ATOM     11  C   UNL     1       1.716   2.653  18.089  0.00  0.00    +0.000 A 
ATOM     12  C   UNL     1       2.970   2.179  17.702  0.00  0.00    +0.000 A 
ATOM     13  C   UNL     1       3.975   3.081  17.350  0.00  0.00    +0.000 A 
ENDBRANCH   7   8
BRANCH   5  14
ATOM     14  O   UNL     1       7.439   6.138  16.181  0.00  0.00    +0.000 OA
ATOM     15  H   UNL     1       8.073   5.418  16.343  0.00  0.00    +0.000 HD
ENDBRANCH   5  14
BRANCH   5  16
ATOM     16  C   UNL     1       6.722   8.145  17.423  0.00  0.00    +0.000 C 
BRANCH  16  17
ATOM     17  C   UNL     1       7.985   8.835  17.748  0.00  0.00    +0.000 C 
ATOM     18  C   UNL     1       8.796   9.603  18.194  0.00  0.00    +0.000 C 
BRANCH  18  19
ATOM     19  C   UNL     1       9.500  10.649  18.863  0.00  0.00    +0.000 A 
ATOM     20  C   UNL     1       9.341  10.807  20.245  0.00  0.00    +0.000 A 
ATOM     21  C   UNL     1      10.074  11.773  20.932  0.00  0.00    +0.000 A 
ATOM     22  C   UNL     1      10.961  12.590  20.235  0.00  0.00    +0.000 A 
ATOM     23  C   UNL     1      11.129  12.427  18.858  0.00  0.00    +0.000 A 
ATOM     24  C   UNL     1      10.403  11.452  18.171  0.00  0.00    +0.000 A 
ENDBRANCH  18  19
ENDBRANCH  16  17
ENDBRANCH   5  16
TORSDOF 5
ENDMDL
MODEL 3
REMARK VINA RESULT:      -9.2      0.105      1.012
REMARK  Name = 
REMARK  5 active torsions:
REMARK  status: ('A' for Active; 'I' for Inactive)
REMARK    1  A    between atoms: C_5  and  O_6
REMARK    2  A    between atoms: C_5  and  C_7
REMARK    3  A    between atoms: C_7  and  C_8
REMARK    4  A    between atoms: C_9  and  C_10
REMARK    5  A    between atoms: C_17  and  C_18
REMARK                            x       y       z     vdW  Elec       q    Type
REMARK                         _______ _______ _______ _____ _____    ______ ____
ROOT
ATOM      1  O   UNL     1       5.194   4.953  20.021  0.00  0.00    +0.000 OA
ATOM      2  C   UNL     1       6.013   5.339  19.208  0.00  0.00    +0.000 C 
ATOM      3  C   UNL     1       7.444   5.507  19.506  0.00  0.00    +0.000 C 
ATOM      4  C   UNL     1       8.001   6.118  18.457  0.00  0.00    +0.000 C 
ATOM      5  C   UNL     1       7.013   6.513  17.396  0.00  0.00    +0.000 C 
ATOM      6  C   UNL     1       5.781   5.754  17.796  0.00  0.00    +0.000 C 
ATOM      7  C   UNL     1       4.788   5.350  16.992  0.00  0.00    +0.000 C 
ENDROOT
BRANCH   7   8
ATOM      8  C   UNL     1       3.719   4.437  17.380  0.00  0.00    +0.000 A 
ATOM      9  C   UNL     1       3.939   3.059  17.361  0.00  0.00    +0.000 A 
ATOM     10  C   UNL     1       2.918   2.185  17.734  0.00  0.00    +0.000 A 
ATOM     11  C   UNL     1       1.677   2.685  18.126  0.00  0.00    +0.000 A 
ATOM     12  C   UNL     1       1.452   4.062  18.144  0.00  0.00    +0.000 A 
ATOM     13  C   UNL     1       2.472   4.937  17.770  0.00  0.00    +0.000 A 
ENDBRANCH   7   8
BRANCH   5  14
ATOM     14  O   UNL     1       7.463   6.013  16.137  0.00  0.00    +0.000 OA
ATOM     15  H   UNL     1       8.401   5.773  16.229  0.00  0.00    +0.000 HD
ENDBRANCH   5  14
BRANCH   5  16
ATOM     16  C   UNL     1       6.796   8.055  17.349  0.00  0.00    +0.000 C 
BRANCH  16  17
ATOM     17  C   UNL     1       8.010   8.719  17.862  0.00  0.00    +0.000 C 
ATOM     18  C   UNL     1       8.773   9.521  18.332  0.00  0.00    +0.000 C 
BRANCH  18  19
ATOM     19  C   UNL     1       9.413  10.660  18.907  0.00  0.00    +0.000 A 
ATOM     20  C   UNL     1       9.887  11.676  18.069  0.00  0.00    +0.000 A 
ATOM     21  C   UNL     1      10.448  12.831  18.610  0.00  0.00    +0.000 A 
ATOM     22  C   UNL     1      10.545  12.967  19.993  0.00  0.00    +0.000 A 
ATOM     23  C   UNL     1      10.064  11.960  20.831  0.00  0.00    +0.000 A 
ATOM     24  C   UNL     1       9.491  10.807  20.290  0.00  0.00    +0.000 A 
ENDBRANCH  18  19
ENDBRANCH  16  17
ENDBRANCH   5  16
TORSDOF 5
ENDMDL
MODEL 4
REMARK VINA RESULT:      -9.1      0.308      1.448
REMARK  Name = 
REMARK  5 active torsions:
REMARK  status: ('A' for Active; 'I' for Inactive)
REMARK    1  A    between atoms: C_5  and  O_6
REMARK    2  A    between atoms: C_5  and  C_7
REMARK    3  A    between atoms: C_7  and  C_8
REMARK    4  A    between atoms: C_9  and  C_10
REMARK    5  A    between atoms: C_17  and  C_18
REMARK                            x       y       z     vdW  Elec       q    Type
REMARK                         _______ _______ _______ _____ _____    ______ ____
ROOT
ATOM      1  O   UNL     1       5.259   5.069  19.987  0.00  0.00    +0.000 OA
ATOM      2  C   UNL     1       6.081   5.442  19.170  0.00  0.00    +0.000 C 
ATOM      3  C   UNL     1       7.521   5.553  19.451  0.00  0.00    +0.000 C 
ATOM      4  C   UNL     1       8.086   6.165  18.407  0.00  0.00    +0.000 C 
ATOM      5  C   UNL     1       7.098   6.617  17.368  0.00  0.00    +0.000 C 
ATOM      6  C   UNL     1       5.845   5.895  17.771  0.00  0.00    +0.000 C 
ATOM      7  C   UNL     1       4.827   5.544  16.973  0.00  0.00    +0.000 C 
ENDROOT
BRANCH   7   8
ATOM      8  C   UNL     1       3.732   4.662  17.357  0.00  0.00    +0.000 A 
ATOM      9  C   UNL     1       2.535   5.202  17.832  0.00  0.00    +0.000 A 
ATOM     10  C   UNL     1       1.486   4.358  18.198  0.00  0.00    +0.000 A 
ATOM     11  C   UNL     1       1.630   2.975  18.091  0.00  0.00    +0.000 A 
ATOM     12  C   UNL     1       2.825   2.431  17.620  0.00  0.00    +0.000 A 
ATOM     13  C   UNL     1       3.875   3.274  17.253  0.00  0.00    +0.000 A 
ENDBRANCH   7   8
BRANCH   5  14
ATOM     14  O   UNL     1       7.513   6.127  16.094  0.00  0.00    +0.000 OA
ATOM     15  H   UNL     1       7.631   5.165  16.167  0.00  0.00    +0.000 HD
ENDBRANCH   5  14
BRANCH   5  16
ATOM     16  C   UNL     1       6.937   8.167  17.356  0.00  0.00    +0.000 C 
BRANCH  16  17
ATOM     17  C   UNL     1       8.089   8.767  18.056  0.00  0.00    +0.000 C 
ATOM     18  C   UNL     1       8.873   9.552  18.520  0.00  0.00    +0.000 C 
BRANCH  18  19
ATOM     19  C   UNL     1       9.603  10.703  18.943  0.00  0.00    +0.000 A 
ATOM     20  C   UNL     1      10.174  11.544  17.980  0.00  0.00    +0.000 A 
ATOM     21  C   UNL     1      10.827  12.714  18.365  0.00  0.00    +0.000 A 
ATOM     22  C   UNL     1      10.918  13.040  19.716  0.00  0.00    +0.000 A 
ATOM     23  C   UNL     1      10.340  12.208  20.678  0.00  0.00    +0.000 A 
ATOM     24  C   UNL     1       9.676  11.042  20.292  0.00  0.00    +0.000 A 
ENDBRANCH  18  19
ENDBRANCH  16  17
ENDBRANCH   5  16
TORSDOF 5
ENDMDL
MODEL 5
REMARK VINA RESULT:      -8.8      0.833      1.333
REMARK  Name = 
REMARK  5 active torsions:
REMARK  status: ('A' for Active; 'I' for Inactive)
REMARK    1  A    between atoms: C_5  and  O_6
REMARK    2  A    between atoms: C_5  and  C_7
REMARK    3  A    between atoms: C_7  and  C_8
REMARK    4  A    between atoms: C_9  and  C_10
REMARK    5  A    between atoms: C_17  and  C_18
REMARK                            x       y       z     vdW  Elec       q    Type
REMARK                         _______ _______ _______ _____ _____    ______ ____
ROOT
ATOM      1  O   UNL     1       4.799   5.388  19.869  0.00  0.00    +0.000 OA
ATOM      2  C   UNL     1       5.806   5.311  19.190  0.00  0.00    +0.000 C 
ATOM      3  C   UNL     1       7.163   5.549  19.707  0.00  0.00    +0.000 C 
ATOM      4  C   UNL     1       7.992   5.567  18.660  0.00  0.00    +0.000 C 
ATOM      5  C   UNL     1       7.292   5.445  17.336  0.00  0.00    +0.000 C 
ATOM      6  C   UNL     1       5.910   5.014  17.733  0.00  0.00    +0.000 C 
ATOM      7  C   UNL     1       5.042   4.312  16.992  0.00  0.00    +0.000 C 
ENDROOT
BRANCH   7   8
ATOM      8  C   UNL     1       3.799   3.732  17.488  0.00  0.00    +0.000 A 
ATOM      9  C   UNL     1       3.783   2.422  17.967  0.00  0.00    +0.000 A 
ATOM     10  C   UNL     1       2.595   1.867  18.444  0.00  0.00    +0.000 A 
ATOM     11  C   UNL     1       1.421   2.620  18.442  0.00  0.00    +0.000 A 
ATOM     12  C   UNL     1       1.432   3.930  17.961  0.00  0.00    +0.000 A 
ATOM     13  C   UNL     1       2.620   4.486  17.484  0.00  0.00    +0.000 A 
ENDBRANCH   7   8
BRANCH   5  14
ATOM     14  O   UNL     1       7.898   4.391  16.589  0.00  0.00    +0.000 OA
ATOM     15  H   UNL     1       8.677   4.083  17.084  0.00  0.00    +0.000 HD
ENDBRANCH   5  14
BRANCH   5  16
ATOM     16  C   UNL     1       7.311   6.787  16.543  0.00  0.00    +0.000 C 
BRANCH  16  17
ATOM     17  C   UNL     1       7.574   7.889  17.488  0.00  0.00    +0.000 C 
ATOM     18  C   UNL     1       8.016   8.880  18.008  0.00  0.00    +0.000 C 
BRANCH  18  19
ATOM     19  C   UNL     1       8.719  10.072  18.356  0.00  0.00    +0.000 A 
ATOM     20  C   UNL     1       8.488  11.242  17.622  0.00  0.00    +0.000 A 
ATOM     21  C   UNL     1       9.106  12.437  17.989  0.00  0.00    +0.000 A 
ATOM     22  C   UNL     1       9.964  12.460  19.086  0.00  0.00    +0.000 A 
ATOM     23  C   UNL     1      10.187  11.297  19.826  0.00  0.00    +0.000 A 
ATOM     24  C   UNL     1       9.559  10.103  19.466  0.00  0.00    +0.000 A 
ENDBRANCH  18  19
ENDBRANCH  16  17
ENDBRANCH   5  16
TORSDOF 5
ENDMDL
MODEL 6
REMARK VINA RESULT:      -8.6      4.257      5.149
REMARK  Name = 
REMARK  5 active torsions:
REMARK  status: ('A' for Active; 'I' for Inactive)
REMARK    1  A    between atoms: C_5  and  O_6
REMARK    2  A    between atoms: C_5  and  C_7
REMARK    3  A    between atoms: C_7  and  C_8
REMARK    4  A    between atoms: C_9  and  C_10
REMARK    5  A    between atoms: C_17  and  C_18
REMARK                            x       y       z     vdW  Elec       q    Type
REMARK                         _______ _______ _______ _____ _____    ______ ____
ROOT
ATOM      1  O   UNL     1       5.357   5.293  19.963  0.00  0.00    +0.000 OA
ATOM      2  C   UNL     1       5.741   4.916  18.871  0.00  0.00    +0.000 C 
ATOM      3  C   UNL     1       7.136   5.017  18.415  0.00  0.00    +0.000 C 
ATOM      4  C   UNL     1       7.157   4.691  17.120  0.00  0.00    +0.000 C 
ATOM      5  C   UNL     1       5.794   4.434  16.541  0.00  0.00    +0.000 C 
ATOM      6  C   UNL     1       4.932   4.328  17.766  0.00  0.00    +0.000 C 
ATOM      7  C   UNL     1       3.780   3.653  17.884  0.00  0.00    +0.000 C 
ENDROOT
BRANCH   7   8
ATOM      8  C   UNL     1       3.086   3.400  19.141  0.00  0.00    +0.000 A 
ATOM      9  C   UNL     1       1.849   3.996  19.387  0.00  0.00    +0.000 A 
ATOM     10  C   UNL     1       1.183   3.752  20.588  0.00  0.00    +0.000 A 
ATOM     11  C   UNL     1       1.752   2.914  21.546  0.00  0.00    +0.000 A 
ATOM     12  C   UNL     1       2.991   2.318  21.306  0.00  0.00    +0.000 A 
ATOM     13  C   UNL     1       3.658   2.561  20.104  0.00  0.00    +0.000 A 
ENDBRANCH   7   8
BRANCH   5  14
ATOM     14  O   UNL     1       5.803   3.167  15.884  0.00  0.00    +0.000 OA
ATOM     15  H   UNL     1       5.176   2.585  16.347  0.00  0.00    +0.000 HD
ENDBRANCH   5  14
BRANCH   5  16
ATOM     16  C   UNL     1       5.349   5.572  15.575  0.00  0.00    +0.000 C 
BRANCH  16  17
ATOM     17  C   UNL     1       4.764   6.667  16.373  0.00  0.00    +0.000 C 
ATOM     18  C   UNL     1       4.046   7.314  17.089  0.00  0.00    +0.000 C 
BRANCH  18  19
ATOM     19  C   UNL     1       3.021   7.807  17.952  0.00  0.00    +0.000 A 
ATOM     20  C   UNL     1       2.808   7.184  19.187  0.00  0.00    +0.000 A 
ATOM     21  C   UNL     1       1.865   7.693  20.078  0.00  0.00    +0.000 A 
ATOM     22  C   UNL     1       1.126   8.822  19.731  0.00  0.00    +0.000 A 
ATOM     23  C   UNL     1       1.345   9.451  18.503  0.00  0.00    +0.000 A 
ATOM     24  C   UNL     1       2.298   8.949  17.615  0.00  0.00    +0.000 A 
ENDBRANCH  18  19
ENDBRANCH  16  17
ENDBRANCH   5  16
TORSDOF 5
ENDMDL
MODEL 7
REMARK VINA RESULT:      -8.6      4.227      5.043
REMARK  Name = 
REMARK  5 active torsions:
REMARK  status: ('A' for Active; 'I' for Inactive)
REMARK    1  A    between atoms: C_5  and  O_6
REMARK    2  A    between atoms: C_5  and  C_7
REMARK    3  A    between atoms: C_7  and  C_8
REMARK    4  A    between atoms: C_9  and  C_10
REMARK    5  A    between atoms: C_17  and  C_18
REMARK                            x       y       z     vdW  Elec       q    Type
REMARK                         _______ _______ _______ _____ _____    ______ ____
ROOT
ATOM      1  O   UNL     1       5.416   5.296  19.926  0.00  0.00    +0.000 OA
ATOM      2  C   UNL     1       5.807   4.927  18.834  0.00  0.00    +0.000 C 
ATOM      3  C   UNL     1       7.203   5.041  18.384  0.00  0.00    +0.000 C 
ATOM      4  C   UNL     1       7.232   4.722  17.087  0.00  0.00    +0.000 C 
ATOM      5  C   UNL     1       5.873   4.458  16.502  0.00  0.00    +0.000 C 
ATOM      6  C   UNL     1       5.007   4.340  17.723  0.00  0.00    +0.000 C 
ATOM      7  C   UNL     1       3.860   3.656  17.833  0.00  0.00    +0.000 C 
ENDROOT
BRANCH   7   8
ATOM      8  C   UNL     1       3.163   3.391  19.086  0.00  0.00    +0.000 A 
ATOM      9  C   UNL     1       3.761   2.590  20.061  0.00  0.00    +0.000 A 
ATOM     10  C   UNL     1       3.096   2.338  21.260  0.00  0.00    +0.000 A 
ATOM     11  C   UNL     1       1.833   2.885  21.489  0.00  0.00    +0.000 A 
ATOM     12  C   UNL     1       1.231   3.683  20.517  0.00  0.00    +0.000 A 
ATOM     13  C   UNL     1       1.895   3.936  19.315  0.00  0.00    +0.000 A 
ENDBRANCH   7   8
BRANCH   5  14
ATOM     14  O   UNL     1       5.893   3.195  15.838  0.00  0.00    +0.000 OA
ATOM     15  H   UNL     1       6.727   2.750  16.066  0.00  0.00    +0.000 HD
ENDBRANCH   5  14
BRANCH   5  16
ATOM     16  C   UNL     1       5.423   5.599  15.540  0.00  0.00    +0.000 C 
BRANCH  16  17
ATOM     17  C   UNL     1       4.817   6.680  16.340  0.00  0.00    +0.000 C 
ATOM     18  C   UNL     1       4.090   7.309  17.062  0.00  0.00    +0.000 C 
BRANCH  18  19
ATOM     19  C   UNL     1       3.063   7.777  17.936  0.00  0.00    +0.000 A 
ATOM     20  C   UNL     1       2.861   7.133  19.163  0.00  0.00    +0.000 A 
ATOM     21  C   UNL     1       1.915   7.617  20.065  0.00  0.00    +0.000 A 
ATOM     22  C   UNL     1       1.162   8.743  19.737  0.00  0.00    +0.000 A 
ATOM     23  C   UNL     1       1.369   9.392  18.518  0.00  0.00    +0.000 A 
ATOM     24  C   UNL     1       2.325   8.915  17.619  0.00  0.00    +0.000 A 
ENDBRANCH  18  19
ENDBRANCH  16  17
ENDBRANCH   5  16
TORSDOF 5
ENDMDL
MODEL 8
REMARK VINA RESULT:      -8.5      1.850      2.670
REMARK  Name = 
REMARK  5 active torsions:
REMARK  status: ('A' for Active; 'I' for Inactive)
REMARK    1  A    between atoms: C_5  and  O_6
REMARK    2  A    between atoms: C_5  and  C_7
REMARK    3  A    between atoms: C_7  and  C_8
REMARK    4  A    between atoms: C_9  and  C_10
REMARK    5  A    between atoms: C_17  and  C_18
REMARK                            x       y       z     vdW  Elec       q    Type
REMARK                         _______ _______ _______ _____ _____    ______ ____
ROOT
ATOM      1  O   UNL     1       4.326   2.886  17.561  0.00  0.00    +0.000 OA
ATOM      2  C   UNL     1       4.687   4.005  17.249  0.00  0.00    +0.000 C 
ATOM      3  C   UNL     1       5.162   4.367  15.904  0.00  0.00    +0.000 C 
ATOM      4  C   UNL     1       5.649   5.609  15.973  0.00  0.00    +0.000 C 
ATOM      5  C   UNL     1       5.649   6.179  17.364  0.00  0.00    +0.000 C 
ATOM      6  C   UNL     1       4.775   5.216  18.114  0.00  0.00    +0.000 C 
ATOM      7  C   UNL     1       4.054   5.473  19.213  0.00  0.00    +0.000 C 
ENDROOT
BRANCH   7   8
ATOM      8  C   UNL     1       3.057   4.575  19.786  0.00  0.00    +0.000 A 
ATOM      9  C   UNL     1       1.762   4.548  19.265  0.00  0.00    +0.000 A 
ATOM     10  C   UNL     1       0.809   3.688  19.811  0.00  0.00    +0.000 A 
ATOM     11  C   UNL     1       1.146   2.855  20.876  0.00  0.00    +0.000 A 
ATOM     12  C   UNL     1       2.439   2.881  21.402  0.00  0.00    +0.000 A 
ATOM     13  C   UNL     1       3.393   3.741  20.857  0.00  0.00    +0.000 A 
ENDBRANCH   7   8
BRANCH   5  14
ATOM     14  O   UNL     1       5.004   7.451  17.341  0.00  0.00    +0.000 OA
ATOM     15  H   UNL     1       5.271   7.937  18.141  0.00  0.00    +0.000 HD
ENDBRANCH   5  14
BRANCH   5  16
ATOM     16  C   UNL     1       7.090   6.283  17.948  0.00  0.00    +0.000 C 
BRANCH  16  17
ATOM     17  C   UNL     1       7.607   7.641  17.693  0.00  0.00    +0.000 C 
ATOM     18  C   UNL     1       8.074   8.741  17.831  0.00  0.00    +0.000 C 
BRANCH  18  19
ATOM     19  C   UNL     1       8.641   9.961  18.308  0.00  0.00    +0.000 A 
ATOM     20  C   UNL     1       8.394  11.150  17.611  0.00  0.00    +0.000 A 
ATOM     21  C   UNL     1       8.875  12.364  18.098  0.00  0.00    +0.000 A 
ATOM     22  C   UNL     1       9.612  12.389  19.280  0.00  0.00    +0.000 A 
ATOM     23  C   UNL     1       9.850  11.206  19.983  0.00  0.00    +0.000 A 
ATOM     24  C   UNL     1       9.359   9.991  19.501  0.00  0.00    +0.000 A 
ENDBRANCH  18  19
ENDBRANCH  16  17
ENDBRANCH   5  16
TORSDOF 5
ENDMDL
MODEL 9
REMARK VINA RESULT:      -8.5      4.313      5.213
REMARK  Name = 
REMARK  5 active torsions:
REMARK  status: ('A' for Active; 'I' for Inactive)
REMARK    1  A    between atoms: C_5  and  O_6
REMARK    2  A    between atoms: C_5  and  C_7
REMARK    3  A    between atoms: C_7  and  C_8
REMARK    4  A    between atoms: C_9  and  C_10
REMARK    5  A    between atoms: C_17  and  C_18
REMARK                            x       y       z     vdW  Elec       q    Type
REMARK                         _______ _______ _______ _____ _____    ______ ____
ROOT
ATOM      1  O   UNL     1       5.466   5.192  19.852  0.00  0.00    +0.000 OA
ATOM      2  C   UNL     1       5.832   4.804  18.758  0.00  0.00    +0.000 C 
ATOM      3  C   UNL     1       7.224   4.886  18.286  0.00  0.00    +0.000 C 
ATOM      4  C   UNL     1       7.226   4.552  16.993  0.00  0.00    +0.000 C 
ATOM      5  C   UNL     1       5.854   4.308  16.431  0.00  0.00    +0.000 C 
ATOM      6  C   UNL     1       5.005   4.219  17.666  0.00  0.00    +0.000 C 
ATOM      7  C   UNL     1       3.847   3.558  17.801  0.00  0.00    +0.000 C 
ENDROOT
BRANCH   7   8
ATOM      8  C   UNL     1       3.164   3.321  19.068  0.00  0.00    +0.000 A 
ATOM      9  C   UNL     1       1.907   3.881  19.298  0.00  0.00    +0.000 A 
ATOM     10  C   UNL     1       1.253   3.652  20.509  0.00  0.00    +0.000 A 
ATOM     11  C   UNL     1       1.852   2.864  21.490  0.00  0.00    +0.000 A 
ATOM     12  C   UNL     1       3.110   2.305  21.266  0.00  0.00    +0.000 A 
ATOM     13  C   UNL     1       3.766   2.533  20.055  0.00  0.00    +0.000 A 
ENDBRANCH   7   8
BRANCH   5  14
ATOM     14  O   UNL     1       5.841   3.038  15.781  0.00  0.00    +0.000 OA
ATOM     15  H   UNL     1       5.540   2.374  16.426  0.00  0.00    +0.000 HD
ENDBRANCH   5  14
BRANCH   5  16
ATOM     16  C   UNL     1       5.411   5.446  15.463  0.00  0.00    +0.000 C 
BRANCH  16  17
ATOM     17  C   UNL     1       4.866   6.560  16.262  0.00  0.00    +0.000 C 
ATOM     18  C   UNL     1       4.188   7.224  17.001  0.00  0.00    +0.000 C 
BRANCH  18  19
ATOM     19  C   UNL     1       3.215   7.736  17.910  0.00  0.00    +0.000 A 
ATOM     20  C   UNL     1       2.451   8.850  17.541  0.00  0.00    +0.000 A 
ATOM     21  C   UNL     1       1.444   9.323  18.380  0.00  0.00    +0.000 A 
ATOM     22  C   UNL     1       1.204   8.686  19.596  0.00  0.00    +0.000 A 
ATOM     23  C   UNL     1       1.957   7.568  19.961  0.00  0.00    +0.000 A 
ATOM     24  C   UNL     1       2.959   7.087  19.116  0.00  0.00    +0.000 A 
ENDBRANCH  18  19
ENDBRANCH  16  17
ENDBRANCH   5  16
TORSDOF 5
ENDMDL
