MODEL 1
REMARK VINA RESULT:      -6.7      0.000      0.000
REMARK  Name = 
REMARK  11 active torsions:
REMARK  status: ('A' for Active; 'I' for Inactive)
REMARK    1  A    between atoms: C_1  and  C_2
REMARK    2  A    between atoms: C_2  and  N_3
REMARK    3  A    between atoms: C_4  and  N_5
REMARK    4  A    between atoms: C_6  and  C_7
REMARK    5  A    between atoms: N_9  and  C_10
REMARK    6  A    between atoms: C_16  and  C_17
REMARK    7  A    between atoms: C_18  and  C_19
REMARK    8  A    between atoms: C_19  and  C_20
REMARK    9  A    between atoms: C_19  and  O_21
REMARK   10  A    between atoms: C_19  and  C_22
REMARK   11  A    between atoms: C_22  and  O_23
REMARK                            x       y       z     vdW  Elec       q    Type
REMARK                         _______ _______ _______ _____ _____    ______ ____
ROOT
ATOM      1  N   UNL     1      -0.791  11.000  19.375  0.00  0.00    +0.000 N 
ATOM      2  C   UNL     1      -1.666  11.884  20.047  0.00  0.00    +0.000 A 
ATOM      3  C   UNL     1      -1.707  11.968  21.418  0.00  0.00    +0.000 A 
ATOM      4  C   UNL     1      -0.779  11.094  22.180  0.00  0.00    +0.000 A 
ATOM      5  O   UNL     1      -0.667  11.180  23.401  0.00  0.00    +0.000 OA
ATOM      6  C   UNL     1       0.015  10.088  21.469  0.00  0.00    +0.000 A 
ATOM      7  C   UNL     1       0.764   9.162  22.194  0.00  0.00    +0.000 A 
ATOM      8  C   UNL     1       1.522   8.219  21.513  0.00  0.00    +0.000 A 
ATOM      9  C   UNL     1       1.514   8.256  20.135  0.00  0.00    +0.000 A 
ATOM     10  N   UNL     1       0.780   9.146  19.409  0.00  0.00    +0.000 NA
ATOM     11  C   UNL     1       0.016  10.059  20.077  0.00  0.00    +0.000 A 
ENDROOT
BRANCH   3  12
ATOM     12  C   UNL     1      -2.654  12.887  22.172  0.00  0.00    +0.000 C 
ATOM     13  O   UNL     1      -2.670  14.103  21.984  0.00  0.00    +0.000 OA
ATOM     14  N   UNL     1      -3.546  12.282  23.039  0.00  0.00    +0.000 N 
ATOM     15  C   UNL     1      -4.518  13.015  23.818  0.00  0.00    +0.000 C 
ATOM     16  H   UNL     1      -3.595  11.258  23.047  0.00  0.00    +0.000 HD
ENDBRANCH   3  12
BRANCH   2  17
ATOM     17  N   UNL     1      -2.482  12.702  19.284  0.00  0.00    +0.000 N 
ATOM     18  H   UNL     1      -3.264  12.247  18.845  0.00  0.00    +0.000 HD
ATOM     19  H   UNL     1      -2.801  13.515  19.816  0.00  0.00    +0.000 HD
ENDBRANCH   2  17
BRANCH   1  21
ATOM     20  C   UNL     1      -2.023   9.918  17.516  0.00  0.00    +0.000 C 
ATOM     21  C   UNL     1      -0.811  10.754  17.917  0.00  0.00    +0.000 C 
ENDBRANCH   1  21
BRANCH   9  22
ATOM     22  C   UNL     1       2.365   7.366  19.389  0.00  0.00    +0.000 C 
ATOM     23  C   UNL     1       3.067   6.565  18.842  0.00  0.00    +0.000 C 
BRANCH  23  24
ATOM     24  C   UNL     1       3.922   5.565  18.174  0.00  0.00    +0.000 C 
ATOM     25  C   UNL     1       3.064   4.397  17.673  0.00  0.00    +0.000 C 
BRANCH  24  26
ATOM     26  O   UNL     1       4.541   6.172  17.032  0.00  0.00    +0.000 OA
ATOM     27  H   UNL     1       4.266   5.649  16.255  0.00  0.00    +0.000 HD
ENDBRANCH  24  26
BRANCH  24  28
ATOM     28  C   UNL     1       5.033   5.056  19.124  0.00  0.00    +0.000 C 
BRANCH  28  29
ATOM     29  O   UNL     1       5.689   3.874  18.646  0.00  0.00    +0.000 OA
ATOM     30  H   UNL     1       6.513   4.169  18.219  0.00  0.00    +0.000 HD
ENDBRANCH  28  29
ENDBRANCH  24  28
ENDBRANCH  23  24
ENDBRANCH   9  22
TORSDOF 8
ENDMDL
MODEL 2
REMARK VINA RESULT:      -6.6      3.933      8.977
REMARK  Name = 
REMARK  11 active torsions:
REMARK  status: ('A' for Active; 'I' for Inactive)
REMARK    1  A    between atoms: C_1  and  C_2
REMARK    2  A    between atoms: C_2  and  N_3
REMARK    3  A    between atoms: C_4  and  N_5
REMARK    4  A    between atoms: C_6  and  C_7
REMARK    5  A    between atoms: N_9  and  C_10
REMARK    6  A    between atoms: C_16  and  C_17
REMARK    7  A    between atoms: C_18  and  C_19
REMARK    8  A    between atoms: C_19  and  C_20
REMARK    9  A    between atoms: C_19  and  O_21
REMARK   10  A    between atoms: C_19  and  C_22
REMARK   11  A    between atoms: C_22  and  O_23
REMARK                            x       y       z     vdW  Elec       q    Type
REMARK                         _______ _______ _______ _____ _____    ______ ____
ROOT
ATOM      1  N   UNL     1       3.787   5.482  17.868  0.00  0.00    +0.000 N 
ATOM      2  C   UNL     1       4.219   4.152  18.079  0.00  0.00    +0.000 A 
ATOM      3  C   UNL     1       3.753   3.391  19.123  0.00  0.00    +0.000 A 
ATOM      4  C   UNL     1       2.757   4.018  20.029  0.00  0.00    +0.000 A 
ATOM      5  O   UNL     1       2.203   3.379  20.922  0.00  0.00    +0.000 OA
ATOM      6  C   UNL     1       2.432   5.439  19.875  0.00  0.00    +0.000 A 
ATOM      7  C   UNL     1       1.622   6.068  20.820  0.00  0.00    +0.000 A 
ATOM      8  C   UNL     1       1.310   7.411  20.660  0.00  0.00    +0.000 A 
ATOM      9  C   UNL     1       1.805   8.063  19.551  0.00  0.00    +0.000 A 
ATOM     10  N   UNL     1       2.607   7.468  18.623  0.00  0.00    +0.000 NA
ATOM     11  C   UNL     1       2.934   6.153  18.790  0.00  0.00    +0.000 A 
ENDROOT
BRANCH   3  12
ATOM     12  C   UNL     1       4.216   1.969  19.394  0.00  0.00    +0.000 C 
ATOM     13  O   UNL     1       3.956   1.042  18.630  0.00  0.00    +0.000 OA
ATOM     14  N   UNL     1       5.002   1.777  20.517  0.00  0.00    +0.000 N 
ATOM     15  C   UNL     1       5.532   0.489  20.904  0.00  0.00    +0.000 C 
ATOM     16  H   UNL     1       5.317   2.603  21.036  0.00  0.00    +0.000 HD
ENDBRANCH   3  12
BRANCH   2  17
ATOM     17  N   UNL     1       5.121   3.607  17.180  0.00  0.00    +0.000 N 
ATOM     18  H   UNL     1       6.046   3.448  17.538  0.00  0.00    +0.000 HD
ATOM     19  H   UNL     1       4.755   2.752  16.755  0.00  0.00    +0.000 HD
ENDBRANCH   2  17
BRANCH   1  21
ATOM     20  C   UNL     1       5.773   6.833  17.256  0.00  0.00    +0.000 C 
ATOM     21  C   UNL     1       4.365   6.397  16.860  0.00  0.00    +0.000 C 
ENDBRANCH   1  21
BRANCH   9  22
ATOM     22  C   UNL     1       1.423   9.426  19.290  0.00  0.00    +0.000 C 
ATOM     23  C   UNL     1       1.187  10.587  19.115  0.00  0.00    +0.000 C 
BRANCH  23  24
ATOM     24  C   UNL     1       0.912  12.020  18.896  0.00  0.00    +0.000 C 
ATOM     25  C   UNL     1       1.440  12.838  20.081  0.00  0.00    +0.000 C 
BRANCH  24  26
ATOM     26  O   UNL     1       1.611  12.453  17.722  0.00  0.00    +0.000 OA
ATOM     27  H   UNL     1       0.999  13.034  17.231  0.00  0.00    +0.000 HD
ENDBRANCH  24  26
BRANCH  24  28
ATOM     28  C   UNL     1      -0.601  12.274  18.691  0.00  0.00    +0.000 C 
BRANCH  28  29
ATOM     29  O   UNL     1      -0.892  13.044  17.518  0.00  0.00    +0.000 OA
ATOM     30  H   UNL     1      -0.567  13.945  17.691  0.00  0.00    +0.000 HD
ENDBRANCH  28  29
ENDBRANCH  24  28
ENDBRANCH  23  24
ENDBRANCH   9  22
TORSDOF 8
ENDMDL
MODEL 3
REMARK VINA RESULT:      -6.5      0.845      1.069
REMARK  Name = 
REMARK  11 active torsions:
REMARK  status: ('A' for Active; 'I' for Inactive)
REMARK    1  A    between atoms: C_1  and  C_2
REMARK    2  A    between atoms: C_2  and  N_3
REMARK    3  A    between atoms: C_4  and  N_5
REMARK    4  A    between atoms: C_6  and  C_7
REMARK    5  A    between atoms: N_9  and  C_10
REMARK    6  A    between atoms: C_16  and  C_17
REMARK    7  A    between atoms: C_18  and  C_19
REMARK    8  A    between atoms: C_19  and  C_20
REMARK    9  A    between atoms: C_19  and  O_21
REMARK   10  A    between atoms: C_19  and  C_22
REMARK   11  A    between atoms: C_22  and  O_23
REMARK                            x       y       z     vdW  Elec       q    Type
REMARK                         _______ _______ _______ _____ _____    ______ ____
ROOT
ATOM      1  N   UNL     1      -0.843  11.087  19.453  0.00  0.00    +0.000 N 
ATOM      2  C   UNL     1      -1.714  11.930  20.180  0.00  0.00    +0.000 A 
ATOM      3  C   UNL     1      -1.737  11.945  21.553  0.00  0.00    +0.000 A 
ATOM      4  C   UNL     1      -0.795  11.039  22.259  0.00  0.00    +0.000 A 
ATOM      5  O   UNL     1      -0.667  11.064  23.481  0.00  0.00    +0.000 OA
ATOM      6  C   UNL     1      -0.004  10.075  21.488  0.00  0.00    +0.000 A 
ATOM      7  C   UNL     1       0.759   9.118  22.155  0.00  0.00    +0.000 A 
ATOM      8  C   UNL     1       1.513   8.216  21.418  0.00  0.00    +0.000 A 
ATOM      9  C   UNL     1       1.488   8.323  20.044  0.00  0.00    +0.000 A 
ATOM     10  N   UNL     1       0.739   9.243  19.373  0.00  0.00    +0.000 NA
ATOM     11  C   UNL     1      -0.021  10.117  20.096  0.00  0.00    +0.000 A 
ENDROOT
BRANCH   3  12
ATOM     12  C   UNL     1      -2.679  12.819  22.365  0.00  0.00    +0.000 C 
ATOM     13  O   UNL     1      -2.781  14.028  22.166  0.00  0.00    +0.000 OA
ATOM     14  N   UNL     1      -3.468  12.176  23.303  0.00  0.00    +0.000 N 
ATOM     15  C   UNL     1      -4.422  12.863  24.144  0.00  0.00    +0.000 C 
ATOM     16  H   UNL     1      -3.456  11.151  23.326  0.00  0.00    +0.000 HD
ENDBRANCH   3  12
BRANCH   2  17
ATOM     17  N   UNL     1      -2.545  12.781  19.470  0.00  0.00    +0.000 N 
ATOM     18  H   UNL     1      -3.444  12.404  19.225  0.00  0.00    +0.000 HD
ATOM     19  H   UNL     1      -2.656  13.680  19.945  0.00  0.00    +0.000 HD
ENDBRANCH   2  17
BRANCH   1  21
ATOM     20  C   UNL     1      -2.038  10.013  17.566  0.00  0.00    +0.000 C 
ATOM     21  C   UNL     1      -0.880  10.915  17.984  0.00  0.00    +0.000 C 
ENDBRANCH   1  21
BRANCH   9  22
ATOM     22  C   UNL     1       2.333   7.477  19.243  0.00  0.00    +0.000 C 
ATOM     23  C   UNL     1       3.101   6.778  18.647  0.00  0.00    +0.000 C 
BRANCH  23  24
ATOM     24  C   UNL     1       4.053   5.909  17.927  0.00  0.00    +0.000 C 
ATOM     25  C   UNL     1       4.630   6.658  16.719  0.00  0.00    +0.000 C 
BRANCH  24  26
ATOM     26  O   UNL     1       5.142   5.588  18.802  0.00  0.00    +0.000 OA
ATOM     27  H   UNL     1       5.757   5.030  18.288  0.00  0.00    +0.000 HD
ENDBRANCH  24  26
BRANCH  24  28
ATOM     28  C   UNL     1       3.376   4.591  17.477  0.00  0.00    +0.000 C 
BRANCH  28  29
ATOM     29  O   UNL     1       2.573   3.990  18.500  0.00  0.00    +0.000 OA
ATOM     30  H   UNL     1       1.938   4.670  18.788  0.00  0.00    +0.000 HD
ENDBRANCH  28  29
ENDBRANCH  24  28
ENDBRANCH  23  24
ENDBRANCH   9  22
TORSDOF 8
ENDMDL
MODEL 4
REMARK VINA RESULT:      -6.5      2.760      8.955
REMARK  Name = 
REMARK  11 active torsions:
REMARK  status: ('A' for Active; 'I' for Inactive)
REMARK    1  A    between atoms: C_1  and  C_2
REMARK    2  A    between atoms: C_2  and  N_3
REMARK    3  A    between atoms: C_4  and  N_5
REMARK    4  A    between atoms: C_6  and  C_7
REMARK    5  A    between atoms: N_9  and  C_10
REMARK    6  A    between atoms: C_16  and  C_17
REMARK    7  A    between atoms: C_18  and  C_19
REMARK    8  A    between atoms: C_19  and  C_20
REMARK    9  A    between atoms: C_19  and  O_21
REMARK   10  A    between atoms: C_19  and  C_22
REMARK   11  A    between atoms: C_22  and  O_23
REMARK                            x       y       z     vdW  Elec       q    Type
REMARK                         _______ _______ _______ _____ _____    ______ ____
ROOT
ATOM      1  N   UNL     1       2.822   5.875  19.699  0.00  0.00    +0.000 N 
ATOM      2  C   UNL     1       3.633   4.987  18.956  0.00  0.00    +0.000 A 
ATOM      3  C   UNL     1       4.216   5.353  17.767  0.00  0.00    +0.000 A 
ATOM      4  C   UNL     1       3.969   6.737  17.287  0.00  0.00    +0.000 A 
ATOM      5  O   UNL     1       4.536   7.188  16.294  0.00  0.00    +0.000 OA
ATOM      6  C   UNL     1       3.013   7.590  17.999  0.00  0.00    +0.000 A 
ATOM      7  C   UNL     1       2.658   8.827  17.463  0.00  0.00    +0.000 A 
ATOM      8  C   UNL     1       1.761   9.633  18.149  0.00  0.00    +0.000 A 
ATOM      9  C   UNL     1       1.271   9.176  19.354  0.00  0.00    +0.000 A 
ATOM     10  N   UNL     1       1.596   7.965  19.889  0.00  0.00    +0.000 NA
ATOM     11  C   UNL     1       2.461   7.161  19.204  0.00  0.00    +0.000 A 
ENDROOT
BRANCH   3  12
ATOM     12  C   UNL     1       5.071   4.416  16.931  0.00  0.00    +0.000 C 
ATOM     13  O   UNL     1       4.758   3.242  16.742  0.00  0.00    +0.000 OA
ATOM     14  N   UNL     1       6.193   4.966  16.336  0.00  0.00    +0.000 N 
ATOM     15  C   UNL     1       7.100   4.211  15.501  0.00  0.00    +0.000 C 
ATOM     16  H   UNL     1       6.328   5.980  16.399  0.00  0.00    +0.000 HD
ENDBRANCH   3  12
BRANCH   2  17
ATOM     17  N   UNL     1       3.859   3.721  19.471  0.00  0.00    +0.000 N 
ATOM     18  H   UNL     1       4.823   3.476  19.611  0.00  0.00    +0.000 HD
ATOM     19  H   UNL     1       3.327   3.566  20.330  0.00  0.00    +0.000 HD
ENDBRANCH   2  17
BRANCH   1  21
ATOM     20  C   UNL     1       0.956   4.482  20.550  0.00  0.00    +0.000 C 
ATOM     21  C   UNL     1       2.046   5.491  20.899  0.00  0.00    +0.000 C 
ENDBRANCH   1  21
BRANCH   9  22
ATOM     22  C   UNL     1       0.419  10.021  20.149  0.00  0.00    +0.000 C 
ATOM     23  C   UNL     1      -0.218  10.729  20.875  0.00  0.00    +0.000 C 
BRANCH  23  24
ATOM     24  C   UNL     1      -0.990  11.609  21.773  0.00  0.00    +0.000 C 
ATOM     25  C   UNL     1      -0.240  12.931  21.977  0.00  0.00    +0.000 C 
BRANCH  24  26
ATOM     26  O   UNL     1      -2.249  11.912  21.157  0.00  0.00    +0.000 OA
ATOM     27  H   UNL     1      -2.064  12.078  20.213  0.00  0.00    +0.000 HD
ENDBRANCH  24  26
BRANCH  24  28
ATOM     28  C   UNL     1      -1.261  10.921  23.133  0.00  0.00    +0.000 C 
BRANCH  28  29
ATOM     29  O   UNL     1      -0.149  10.153  23.610  0.00  0.00    +0.000 OA
ATOM     30  H   UNL     1       0.397  10.758  24.143  0.00  0.00    +0.000 HD
ENDBRANCH  28  29
ENDBRANCH  24  28
ENDBRANCH  23  24
ENDBRANCH   9  22
TORSDOF 8
ENDMDL
MODEL 5
REMARK VINA RESULT:      -6.5      3.773      8.900
REMARK  Name = 
REMARK  11 active torsions:
REMARK  status: ('A' for Active; 'I' for Inactive)
REMARK    1  A    between atoms: C_1  and  C_2
REMARK    2  A    between atoms: C_2  and  N_3
REMARK    3  A    between atoms: C_4  and  N_5
REMARK    4  A    between atoms: C_6  and  C_7
REMARK    5  A    between atoms: N_9  and  C_10
REMARK    6  A    between atoms: C_16  and  C_17
REMARK    7  A    between atoms: C_18  and  C_19
REMARK    8  A    between atoms: C_19  and  C_20
REMARK    9  A    between atoms: C_19  and  O_21
REMARK   10  A    between atoms: C_19  and  C_22
REMARK   11  A    between atoms: C_22  and  O_23
REMARK                            x       y       z     vdW  Elec       q    Type
REMARK                         _______ _______ _______ _____ _____    ______ ____
ROOT
ATOM      1  N   UNL     1       3.844   5.520  17.773  0.00  0.00    +0.000 N 
ATOM      2  C   UNL     1       4.243   4.184  18.005  0.00  0.00    +0.000 A 
ATOM      3  C   UNL     1       3.754   3.450  19.058  0.00  0.00    +0.000 A 
ATOM      4  C   UNL     1       2.769   4.113  19.950  0.00  0.00    +0.000 A 
ATOM      5  O   UNL     1       2.195   3.501  20.849  0.00  0.00    +0.000 OA
ATOM      6  C   UNL     1       2.478   5.539  19.774  0.00  0.00    +0.000 A 
ATOM      7  C   UNL     1       1.679   6.201  20.704  0.00  0.00    +0.000 A 
ATOM      8  C   UNL     1       1.400   7.549  20.524  0.00  0.00    +0.000 A 
ATOM      9  C   UNL     1       1.917   8.172  19.408  0.00  0.00    +0.000 A 
ATOM     10  N   UNL     1       2.709   7.545  18.493  0.00  0.00    +0.000 NA
ATOM     11  C   UNL     1       3.003   6.225  18.681  0.00  0.00    +0.000 A 
ENDROOT
BRANCH   3  12
ATOM     12  C   UNL     1       4.181   2.021  19.352  0.00  0.00    +0.000 C 
ATOM     13  O   UNL     1       3.882   1.085  18.613  0.00  0.00    +0.000 OA
ATOM     14  N   UNL     1       4.981   1.830  20.465  0.00  0.00    +0.000 N 
ATOM     15  C   UNL     1       5.482   0.536  20.872  0.00  0.00    +0.000 C 
ATOM     16  H   UNL     1       5.328   2.658  20.961  0.00  0.00    +0.000 HD
ENDBRANCH   3  12
BRANCH   2  17
ATOM     17  N   UNL     1       5.136   3.605  17.120  0.00  0.00    +0.000 N 
ATOM     18  H   UNL     1       5.981   4.123  16.954  0.00  0.00    +0.000 HD
ATOM     19  H   UNL     1       5.359   2.643  17.388  0.00  0.00    +0.000 HD
ENDBRANCH   2  17
BRANCH   1  21
ATOM     20  C   UNL     1       5.836   6.874  17.187  0.00  0.00    +0.000 C 
ATOM     21  C   UNL     1       4.449   6.407  16.755  0.00  0.00    +0.000 C 
ENDBRANCH   1  21
BRANCH   9  22
ATOM     22  C   UNL     1       1.569   9.540  19.125  0.00  0.00    +0.000 C 
ATOM     23  C   UNL     1       1.279  10.694  18.985  0.00  0.00    +0.000 C 
BRANCH  23  24
ATOM     24  C   UNL     1       0.933  12.119  18.824  0.00  0.00    +0.000 C 
ATOM     25  C   UNL     1       2.121  12.879  18.222  0.00  0.00    +0.000 C 
BRANCH  24  26
ATOM     26  O   UNL     1      -0.164  12.229  17.908  0.00  0.00    +0.000 OA
ATOM     27  H   UNL     1      -0.837  11.585  18.199  0.00  0.00    +0.000 HD
ENDBRANCH  24  26
BRANCH  24  28
ATOM     28  C   UNL     1       0.512  12.748  20.175  0.00  0.00    +0.000 C 
BRANCH  28  29
ATOM     29  O   UNL     1       1.398  12.418  21.252  0.00  0.00    +0.000 OA
ATOM     30  H   UNL     1       0.931  12.652  22.075  0.00  0.00    +0.000 HD
ENDBRANCH  28  29
ENDBRANCH  24  28
ENDBRANCH  23  24
ENDBRANCH   9  22
TORSDOF 8
ENDMDL
MODEL 6
REMARK VINA RESULT:      -6.4      3.758      8.811
REMARK  Name = 
REMARK  11 active torsions:
REMARK  status: ('A' for Active; 'I' for Inactive)
REMARK    1  A    between atoms: C_1  and  C_2
REMARK    2  A    between atoms: C_2  and  N_3
REMARK    3  A    between atoms: C_4  and  N_5
REMARK    4  A    between atoms: C_6  and  C_7
REMARK    5  A    between atoms: N_9  and  C_10
REMARK    6  A    between atoms: C_16  and  C_17
REMARK    7  A    between atoms: C_18  and  C_19
REMARK    8  A    between atoms: C_19  and  C_20
REMARK    9  A    between atoms: C_19  and  O_21
REMARK   10  A    between atoms: C_19  and  C_22
REMARK   11  A    between atoms: C_22  and  O_23
REMARK                            x       y       z     vdW  Elec       q    Type
REMARK                         _______ _______ _______ _____ _____    ______ ____
ROOT
ATOM      1  N   UNL     1       3.734   5.611  17.877  0.00  0.00    +0.000 N 
ATOM      2  C   UNL     1       4.154   4.274  18.066  0.00  0.00    +0.000 A 
ATOM      3  C   UNL     1       3.686   3.502  19.101  0.00  0.00    +0.000 A 
ATOM      4  C   UNL     1       2.703   4.125  20.023  0.00  0.00    +0.000 A 
ATOM      5  O   UNL     1       2.148   3.479  20.910  0.00  0.00    +0.000 OA
ATOM      6  C   UNL     1       2.391   5.552  19.892  0.00  0.00    +0.000 A 
ATOM      7  C   UNL     1       1.594   6.175  20.851  0.00  0.00    +0.000 A 
ATOM      8  C   UNL     1       1.294   7.524  20.714  0.00  0.00    +0.000 A 
ATOM      9  C   UNL     1       1.789   8.187  19.611  0.00  0.00    +0.000 A 
ATOM     10  N   UNL     1       2.579   7.598  18.669  0.00  0.00    +0.000 NA
ATOM     11  C   UNL     1       2.894   6.277  18.815  0.00  0.00    +0.000 A 
ENDROOT
BRANCH   3  12
ATOM     12  C   UNL     1       4.137   2.072  19.348  0.00  0.00    +0.000 C 
ATOM     13  O   UNL     1       3.841   1.154  18.585  0.00  0.00    +0.000 OA
ATOM     14  N   UNL     1       4.953   1.860  20.446  0.00  0.00    +0.000 N 
ATOM     15  C   UNL     1       5.476   0.562  20.808  0.00  0.00    +0.000 C 
ATOM     16  H   UNL     1       5.294   2.678  20.962  0.00  0.00    +0.000 HD
ENDBRANCH   3  12
BRANCH   2  17
ATOM     17  N   UNL     1       5.044   3.734  17.153  0.00  0.00    +0.000 N 
ATOM     18  H   UNL     1       5.627   4.396  16.672  0.00  0.00    +0.000 HD
ATOM     19  H   UNL     1       5.619   3.002  17.579  0.00  0.00    +0.000 HD
ENDBRANCH   2  17
BRANCH   1  21
ATOM     20  C   UNL     1       5.738   6.933  17.260  0.00  0.00    +0.000 C 
ATOM     21  C   UNL     1       4.315   6.536  16.879  0.00  0.00    +0.000 C 
ENDBRANCH   1  21
BRANCH   9  22
ATOM     22  C   UNL     1       1.419   9.557  19.373  0.00  0.00    +0.000 C 
ATOM     23  C   UNL     1       1.150  10.718  19.260  0.00  0.00    +0.000 C 
BRANCH  23  24
ATOM     24  C   UNL     1       0.831  12.153  19.129  0.00  0.00    +0.000 C 
ATOM     25  C   UNL     1      -0.526  12.324  18.435  0.00  0.00    +0.000 C 
BRANCH  24  26
ATOM     26  O   UNL     1       0.727  12.727  20.438  0.00  0.00    +0.000 OA
ATOM     27  H   UNL     1       0.209  12.100  20.977  0.00  0.00    +0.000 HD
ENDBRANCH  24  26
BRANCH  24  28
ATOM     28  C   UNL     1       1.939  12.903  18.349  0.00  0.00    +0.000 C 
BRANCH  28  29
ATOM     29  O   UNL     1       2.593  12.086  17.370  0.00  0.00    +0.000 OA
ATOM     30  H   UNL     1       2.755  12.656  16.598  0.00  0.00    +0.000 HD
ENDBRANCH  28  29
ENDBRANCH  24  28
ENDBRANCH  23  24
ENDBRANCH   9  22
TORSDOF 8
ENDMDL
MODEL 7
REMARK VINA RESULT:      -6.4      0.773      1.071
REMARK  Name = 
REMARK  11 active torsions:
REMARK  status: ('A' for Active; 'I' for Inactive)
REMARK    1  A    between atoms: C_1  and  C_2
REMARK    2  A    between atoms: C_2  and  N_3
REMARK    3  A    between atoms: C_4  and  N_5
REMARK    4  A    between atoms: C_6  and  C_7
REMARK    5  A    between atoms: N_9  and  C_10
REMARK    6  A    between atoms: C_16  and  C_17
REMARK    7  A    between atoms: C_18  and  C_19
REMARK    8  A    between atoms: C_19  and  C_20
REMARK    9  A    between atoms: C_19  and  O_21
REMARK   10  A    between atoms: C_19  and  C_22
REMARK   11  A    between atoms: C_22  and  O_23
REMARK                            x       y       z     vdW  Elec       q    Type
REMARK                         _______ _______ _______ _____ _____    ______ ____
ROOT
ATOM      1  N   UNL     1      -0.936  11.107  19.457  0.00  0.00    +0.000 N 
ATOM      2  C   UNL     1      -1.829  11.955  20.152  0.00  0.00    +0.000 A 
ATOM      3  C   UNL     1      -1.861  12.013  21.524  0.00  0.00    +0.000 A 
ATOM      4  C   UNL     1      -0.905  11.150  22.263  0.00  0.00    +0.000 A 
ATOM      5  O   UNL     1      -0.786  11.216  23.485  0.00  0.00    +0.000 OA
ATOM      6  C   UNL     1      -0.090  10.178  21.529  0.00  0.00    +0.000 A 
ATOM      7  C   UNL     1       0.688   9.259  22.230  0.00  0.00    +0.000 A 
ATOM      8  C   UNL     1       1.465   8.349  21.527  0.00  0.00    +0.000 A 
ATOM      9  C   UNL     1       1.446   8.411  20.150  0.00  0.00    +0.000 A 
ATOM     10  N   UNL     1       0.683   9.294  19.446  0.00  0.00    +0.000 NA
ATOM     11  C   UNL     1      -0.099  10.175  20.135  0.00  0.00    +0.000 A 
ENDROOT
BRANCH   3  12
ATOM     12  C   UNL     1      -2.826  12.893  22.301  0.00  0.00    +0.000 C 
ATOM     13  O   UNL     1      -2.937  14.096  22.076  0.00  0.00    +0.000 OA
ATOM     14  N   UNL     1      -3.624  12.260  23.239  0.00  0.00    +0.000 N 
ATOM     15  C   UNL     1      -4.599  12.954  24.049  0.00  0.00    +0.000 C 
ATOM     16  H   UNL     1      -3.601  11.236  23.283  0.00  0.00    +0.000 HD
ENDBRANCH   3  12
BRANCH   2  17
ATOM     17  N   UNL     1      -2.672  12.765  19.409  0.00  0.00    +0.000 N 
ATOM     18  H   UNL     1      -3.373  12.284  18.873  0.00  0.00    +0.000 HD
ATOM     19  H   UNL     1      -3.105  13.486  19.991  0.00  0.00    +0.000 HD
ENDBRANCH   2  17
BRANCH   1  21
ATOM     20  C   UNL     1      -2.133   9.997  17.592  0.00  0.00    +0.000 C 
ATOM     21  C   UNL     1      -0.960  10.887  17.995  0.00  0.00    +0.000 C 
ENDBRANCH   1  21
BRANCH   9  22
ATOM     22  C   UNL     1       2.314   7.557  19.382  0.00  0.00    +0.000 C 
ATOM     23  C   UNL     1       2.998   6.773  18.790  0.00  0.00    +0.000 C 
BRANCH  23  24
ATOM     24  C   UNL     1       3.829   5.796  18.060  0.00  0.00    +0.000 C 
ATOM     25  C   UNL     1       4.811   5.122  19.027  0.00  0.00    +0.000 C 
BRANCH  24  26
ATOM     26  O   UNL     1       2.979   4.775  17.520  0.00  0.00    +0.000 OA
ATOM     27  H   UNL     1       2.093   5.172  17.425  0.00  0.00    +0.000 HD
ENDBRANCH  24  26
BRANCH  24  28
ATOM     28  C   UNL     1       4.591   6.471  16.893  0.00  0.00    +0.000 C 
BRANCH  28  29
ATOM     29  O   UNL     1       5.070   5.538  15.916  0.00  0.00    +0.000 OA
ATOM     30  H   UNL     1       5.777   5.026  16.346  0.00  0.00    +0.000 HD
ENDBRANCH  28  29
ENDBRANCH  24  28
ENDBRANCH  23  24
ENDBRANCH   9  22
TORSDOF 8
ENDMDL
MODEL 8
REMARK VINA RESULT:      -6.3      3.554      9.452
REMARK  Name = 
REMARK  11 active torsions:
REMARK  status: ('A' for Active; 'I' for Inactive)
REMARK    1  A    between atoms: C_1  and  C_2
REMARK    2  A    between atoms: C_2  and  N_3
REMARK    3  A    between atoms: C_4  and  N_5
REMARK    4  A    between atoms: C_6  and  C_7
REMARK    5  A    between atoms: N_9  and  C_10
REMARK    6  A    between atoms: C_16  and  C_17
REMARK    7  A    between atoms: C_18  and  C_19
REMARK    8  A    between atoms: C_19  and  C_20
REMARK    9  A    between atoms: C_19  and  O_21
REMARK   10  A    between atoms: C_19  and  C_22
REMARK   11  A    between atoms: C_22  and  O_23
REMARK                            x       y       z     vdW  Elec       q    Type
REMARK                         _______ _______ _______ _____ _____    ______ ____
ROOT
ATOM      1  N   UNL     1       3.620   4.624  18.536  0.00  0.00    +0.000 N 
ATOM      2  C   UNL     1       4.355   3.994  17.507  0.00  0.00    +0.000 A 
ATOM      3  C   UNL     1       4.891   4.699  16.456  0.00  0.00    +0.000 A 
ATOM      4  C   UNL     1       4.676   6.169  16.445  0.00  0.00    +0.000 A 
ATOM      5  O   UNL     1       5.210   6.894  15.607  0.00  0.00    +0.000 OA
ATOM      6  C   UNL     1       3.793   6.779  17.443  0.00  0.00    +0.000 A 
ATOM      7  C   UNL     1       3.463   8.130  17.339  0.00  0.00    +0.000 A 
ATOM      8  C   UNL     1       2.635   8.702  18.295  0.00  0.00    +0.000 A 
ATOM      9  C   UNL     1       2.189   7.903  19.326  0.00  0.00    +0.000 A 
ATOM     10  N   UNL     1       2.491   6.579  19.439  0.00  0.00    +0.000 NA
ATOM     11  C   UNL     1       3.287   6.008  18.487  0.00  0.00    +0.000 A 
ENDROOT
BRANCH   3  12
ATOM     12  C   UNL     1       5.663   4.050  15.320  0.00  0.00    +0.000 C 
ATOM     13  O   UNL     1       6.659   3.357  15.521  0.00  0.00    +0.000 OA
ATOM     14  N   UNL     1       5.154   4.225  14.045  0.00  0.00    +0.000 N 
ATOM     15  C   UNL     1       5.764   3.661  12.862  0.00  0.00    +0.000 C 
ATOM     16  H   UNL     1       4.241   4.681  13.945  0.00  0.00    +0.000 HD
ENDBRANCH   3  12
BRANCH   2  17
ATOM     17  N   UNL     1       4.555   2.626  17.589  0.00  0.00    +0.000 N 
ATOM     18  H   UNL     1       5.278   2.331  18.221  0.00  0.00    +0.000 HD
ATOM     19  H   UNL     1       3.683   2.132  17.793  0.00  0.00    +0.000 HD
ENDBRANCH   2  17
BRANCH   1  21
ATOM     20  C   UNL     1       1.561   3.360  19.091  0.00  0.00    +0.000 C 
ATOM     21  C   UNL     1       2.891   3.904  19.603  0.00  0.00    +0.000 C 
ENDBRANCH   1  21
BRANCH   9  22
ATOM     22  C   UNL     1       1.415   8.478  20.394  0.00  0.00    +0.000 C 
ATOM     23  C   UNL     1       0.833   9.028  21.285  0.00  0.00    +0.000 C 
BRANCH  23  24
ATOM     24  C   UNL     1       0.120   9.720  22.376  0.00  0.00    +0.000 C 
ATOM     25  C   UNL     1      -1.136   8.929  22.761  0.00  0.00    +0.000 C 
BRANCH  24  26
ATOM     26  O   UNL     1       0.972   9.773  23.528  0.00  0.00    +0.000 OA
ATOM     27  H   UNL     1       1.133   8.849  23.797  0.00  0.00    +0.000 HD
ENDBRANCH  24  26
BRANCH  24  28
ATOM     28  C   UNL     1      -0.251  11.168  21.971  0.00  0.00    +0.000 C 
BRANCH  28  29
ATOM     29  O   UNL     1       0.877  11.944  21.548  0.00  0.00    +0.000 OA
ATOM     30  H   UNL     1       1.634  11.648  22.085  0.00  0.00    +0.000 HD
ENDBRANCH  28  29
ENDBRANCH  24  28
ENDBRANCH  23  24
ENDBRANCH   9  22
TORSDOF 8
ENDMDL
MODEL 9
REMARK VINA RESULT:      -6.3      1.364      1.564
REMARK  Name = 
REMARK  11 active torsions:
REMARK  status: ('A' for Active; 'I' for Inactive)
REMARK    1  A    between atoms: C_1  and  C_2
REMARK    2  A    between atoms: C_2  and  N_3
REMARK    3  A    between atoms: C_4  and  N_5
REMARK    4  A    between atoms: C_6  and  C_7
REMARK    5  A    between atoms: N_9  and  C_10
REMARK    6  A    between atoms: C_16  and  C_17
REMARK    7  A    between atoms: C_18  and  C_19
REMARK    8  A    between atoms: C_19  and  C_20
REMARK    9  A    between atoms: C_19  and  O_21
REMARK   10  A    between atoms: C_19  and  C_22
REMARK   11  A    between atoms: C_22  and  O_23
REMARK                            x       y       z     vdW  Elec       q    Type
REMARK                         _______ _______ _______ _____ _____    ______ ____
ROOT
ATOM      1  N   UNL     1       0.676  11.243  19.855  0.00  0.00    +0.000 N 
ATOM      2  C   UNL     1      -0.145  12.072  20.651  0.00  0.00    +0.000 A 
ATOM      3  C   UNL     1      -0.606  11.676  21.883  0.00  0.00    +0.000 A 
ATOM      4  C   UNL     1      -0.197  10.331  22.362  0.00  0.00    +0.000 A 
ATOM      5  O   UNL     1      -0.469   9.937  23.494  0.00  0.00    +0.000 OA
ATOM      6  C   UNL     1       0.535   9.435  21.462  0.00  0.00    +0.000 A 
ATOM      7  C   UNL     1       0.781   8.118  21.848  0.00  0.00    +0.000 A 
ATOM      8  C   UNL     1       1.484   7.279  20.995  0.00  0.00    +0.000 A 
ATOM      9  C   UNL     1       1.930   7.801  19.799  0.00  0.00    +0.000 A 
ATOM     10  N   UNL     1       1.691   9.081  19.399  0.00  0.00    +0.000 NA
ATOM     11  C   UNL     1       0.979   9.901  20.227  0.00  0.00    +0.000 A 
ENDROOT
BRANCH   3  12
ATOM     12  C   UNL     1      -1.512  12.532  22.753  0.00  0.00    +0.000 C 
ATOM     13  O   UNL     1      -1.229  13.693  23.046  0.00  0.00    +0.000 OA
ATOM     14  N   UNL     1      -2.709  11.963  23.150  0.00  0.00    +0.000 N 
ATOM     15  C   UNL     1      -3.684  12.650  23.966  0.00  0.00    +0.000 C 
ATOM     16  H   UNL     1      -2.968  11.052  22.756  0.00  0.00    +0.000 HD
ENDBRANCH   3  12
BRANCH   2  17
ATOM     17  N   UNL     1      -0.465  13.331  20.171  0.00  0.00    +0.000 N 
ATOM     18  H   UNL     1       0.041  13.625  19.354  0.00  0.00    +0.000 HD
ATOM     19  H   UNL     1      -1.471  13.429  20.017  0.00  0.00    +0.000 HD
ENDBRANCH   2  17
BRANCH   1  21
ATOM     20  C   UNL     1       2.330  12.413  18.427  0.00  0.00    +0.000 C 
ATOM     21  C   UNL     1       1.073  11.549  18.464  0.00  0.00    +0.000 C 
ENDBRANCH   1  21
BRANCH   9  22
ATOM     22  C   UNL     1       2.752   7.000  18.930  0.00  0.00    +0.000 C 
ATOM     23  C   UNL     1       3.459   6.281  18.284  0.00  0.00    +0.000 C 
BRANCH  23  24
ATOM     24  C   UNL     1       4.325   5.382  17.497  0.00  0.00    +0.000 C 
ATOM     25  C   UNL     1       3.558   4.103  17.138  0.00  0.00    +0.000 C 
BRANCH  24  26
ATOM     26  O   UNL     1       4.680   6.036  16.271  0.00  0.00    +0.000 OA
ATOM     27  H   UNL     1       3.844   6.221  15.802  0.00  0.00    +0.000 HD
ENDBRANCH  24  26
BRANCH  24  28
ATOM     28  C   UNL     1       5.624   5.040  18.267  0.00  0.00    +0.000 C 
BRANCH  28  29
ATOM     29  O   UNL     1       5.672   3.681  18.719  0.00  0.00    +0.000 OA
ATOM     30  H   UNL     1       6.270   3.667  19.488  0.00  0.00    +0.000 HD
ENDBRANCH  28  29
ENDBRANCH  24  28
ENDBRANCH  23  24
ENDBRANCH   9  22
TORSDOF 8
ENDMDL
