MODEL 1
REMARK VINA RESULT:      -8.5      0.000      0.000
REMARK  Name = 
REMARK  2 active torsions:
REMARK  status: ('A' for Active; 'I' for Inactive)
REMARK    1  A    between atoms: N_4  and  C_5
REMARK    2  A    between atoms: C_13  and  C_14
REMARK                            x       y       z     vdW  Elec       q    Type
REMARK                         _______ _______ _______ _____ _____    ______ ____
ROOT
ATOM      1  C   UNL     1       3.999   2.124  19.350  0.00  0.00    +0.000 A 
ATOM      2  N   UNL     1       4.978   3.028  19.191  0.00  0.00    +0.000 NA
ATOM      3  C   UNL     1       4.656   4.307  19.442  0.00  0.00    +0.000 A 
ATOM      4  N   UNL     1       5.648   5.295  19.361  0.00  0.00    +0.000 N 
ATOM      5  C   UNL     1       3.343   4.685  19.805  0.00  0.00    +0.000 A 
ATOM      6  C   UNL     1       2.916   6.024  20.010  0.00  0.00    +0.000 A 
ATOM      7  C   UNL     1       1.598   6.354  20.369  0.00  0.00    +0.000 A 
ATOM      8  C   UNL     1       0.702   5.289  20.516  0.00  0.00    +0.000 A 
ATOM      9  C   UNL     1       1.112   3.966  20.296  0.00  0.00    +0.000 A 
ATOM     10  C   UNL     1       2.416   3.645  19.937  0.00  0.00    +0.000 A 
ATOM     11  N   UNL     1       2.736   2.369  19.722  0.00  0.00    +0.000 NA
ATOM     12  H   UNL     1       5.853   5.683  20.279  0.00  0.00    +0.000 HD
ENDROOT
BRANCH   7  13
ATOM     13  C   UNL     1       1.193   7.752  20.629  0.00  0.00    +0.000 A 
ATOM     14  C   UNL     1       1.422   8.786  19.682  0.00  0.00    +0.000 A 
ATOM     15  C   UNL     1       0.987  10.102  19.904  0.00  0.00    +0.000 A 
ATOM     16  C   UNL     1       0.329  10.370  21.082  0.00  0.00    +0.000 A 
ATOM     17  C   UNL     1       0.117   9.392  22.021  0.00  0.00    +0.000 A 
ATOM     18  C   UNL     1       0.536   8.092  21.827  0.00  0.00    +0.000 A 
ATOM     19  O   UNL     1      -0.548   9.852  23.113  0.00  0.00    +0.000 OA
ATOM     20  C   UNL     1      -0.766  11.227  22.735  0.00  0.00    +0.000 C 
ATOM     21  O   UNL     1      -0.185  11.570  21.459  0.00  0.00    +0.000 OA
ENDBRANCH   7  13
BRANCH   4  22
ATOM     22  C   UNL     1       6.808   5.110  18.484  0.00  0.00    +0.000 C 
ATOM     23  C   UNL     1       8.004   6.005  18.813  0.00  0.00    +0.000 C 
ATOM     24  C   UNL     1       7.914   7.437  18.275  0.00  0.00    +0.000 C 
ATOM     25  N   UNL     1       7.448   7.543  16.893  0.00  0.00    +0.000 NA
ATOM     26  C   UNL     1       6.202   6.810  16.687  0.00  0.00    +0.000 C 
ATOM     27  C   UNL     1       6.348   5.332  17.035  0.00  0.00    +0.000 C 
ATOM     28  H   UNL     1       8.162   7.198  16.252  0.00  0.00    +0.000 HD
ENDBRANCH   4  22
TORSDOF 2
ENDMDL
MODEL 2
REMARK VINA RESULT:      -8.5      0.844      1.560
REMARK  Name = 
REMARK  2 active torsions:
REMARK  status: ('A' for Active; 'I' for Inactive)
REMARK    1  A    between atoms: N_4  and  C_5
REMARK    2  A    between atoms: C_13  and  C_14
REMARK                            x       y       z     vdW  Elec       q    Type
REMARK                         _______ _______ _______ _____ _____    ______ ____
ROOT
ATOM      1  C   UNL     1       3.967   2.129  19.478  0.00  0.00    +0.000 A 
ATOM      2  N   UNL     1       4.981   2.990  19.305  0.00  0.00    +0.000 NA
ATOM      3  C   UNL     1       4.702   4.288  19.501  0.00  0.00    +0.000 A 
ATOM      4  N   UNL     1       5.731   5.236  19.403  0.00  0.00    +0.000 N 
ATOM      5  C   UNL     1       3.398   4.727  19.825  0.00  0.00    +0.000 A 
ATOM      6  C   UNL     1       3.017   6.087  19.971  0.00  0.00    +0.000 A 
ATOM      7  C   UNL     1       1.705   6.478  20.292  0.00  0.00    +0.000 A 
ATOM      8  C   UNL     1       0.768   5.452  20.461  0.00  0.00    +0.000 A 
ATOM      9  C   UNL     1       1.133   4.108  20.298  0.00  0.00    +0.000 A 
ATOM     10  C   UNL     1       2.431   3.727  19.977  0.00  0.00    +0.000 A 
ATOM     11  N   UNL     1       2.707   2.433  19.815  0.00  0.00    +0.000 NA
ATOM     12  H   UNL     1       5.934   5.650  20.310  0.00  0.00    +0.000 HD
ENDROOT
BRANCH   7  13
ATOM     13  C   UNL     1       1.348   7.899  20.492  0.00  0.00    +0.000 A 
ATOM     14  C   UNL     1       1.001   8.412  21.770  0.00  0.00    +0.000 A 
ATOM     15  C   UNL     1       0.717   9.772  21.969  0.00  0.00    +0.000 A 
ATOM     16  C   UNL     1       0.777  10.606  20.877  0.00  0.00    +0.000 A 
ATOM     17  C   UNL     1       1.087  10.128  19.629  0.00  0.00    +0.000 A 
ATOM     18  C   UNL     1       1.369   8.797  19.407  0.00  0.00    +0.000 A 
ATOM     19  O   UNL     1       1.096  11.105  18.683  0.00  0.00    +0.000 OA
ATOM     20  C   UNL     1       0.794  12.262  19.490  0.00  0.00    +0.000 C 
ATOM     21  O   UNL     1       0.561  11.948  20.879  0.00  0.00    +0.000 OA
ENDBRANCH   7  13
BRANCH   4  22
ATOM     22  C   UNL     1       6.899   4.976  18.557  0.00  0.00    +0.000 C 
ATOM     23  C   UNL     1       8.088   5.905  18.810  0.00  0.00    +0.000 C 
ATOM     24  C   UNL     1       7.996   7.279  18.139  0.00  0.00    +0.000 C 
ATOM     25  N   UNL     1       7.541   7.253  16.749  0.00  0.00    +0.000 NA
ATOM     26  C   UNL     1       6.300   6.497  16.603  0.00  0.00    +0.000 C 
ATOM     27  C   UNL     1       6.451   5.059  17.090  0.00  0.00    +0.000 C 
ATOM     28  H   UNL     1       8.262   6.853  16.149  0.00  0.00    +0.000 HD
ENDBRANCH   4  22
TORSDOF 2
ENDMDL
MODEL 3
REMARK VINA RESULT:      -8.2      1.598      1.874
REMARK  Name = 
REMARK  2 active torsions:
REMARK  status: ('A' for Active; 'I' for Inactive)
REMARK    1  A    between atoms: N_4  and  C_5
REMARK    2  A    between atoms: C_13  and  C_14
REMARK                            x       y       z     vdW  Elec       q    Type
REMARK                         _______ _______ _______ _____ _____    ______ ____
ROOT
ATOM      1  C   UNL     1       4.050   2.210  20.290  0.00  0.00    +0.000 A 
ATOM      2  N   UNL     1       4.888   2.785  19.415  0.00  0.00    +0.000 NA
ATOM      3  C   UNL     1       4.645   4.070  19.112  0.00  0.00    +0.000 A 
ATOM      4  N   UNL     1       5.521   4.753  18.256  0.00  0.00    +0.000 N 
ATOM      5  C   UNL     1       3.538   4.764  19.651  0.00  0.00    +0.000 A 
ATOM      6  C   UNL     1       3.180   6.097  19.316  0.00  0.00    +0.000 A 
ATOM      7  C   UNL     1       2.067   6.747  19.877  0.00  0.00    +0.000 A 
ATOM      8  C   UNL     1       1.306   6.012  20.793  0.00  0.00    +0.000 A 
ATOM      9  C   UNL     1       1.642   4.689  21.113  0.00  0.00    +0.000 A 
ATOM     10  C   UNL     1       2.742   4.049  20.553  0.00  0.00    +0.000 A 
ATOM     11  N   UNL     1       2.994   2.783  20.883  0.00  0.00    +0.000 NA
ATOM     12  H   UNL     1       6.029   5.479  18.755  0.00  0.00    +0.000 HD
ENDROOT
BRANCH   7  13
ATOM     13  C   UNL     1       1.747   8.154  19.551  0.00  0.00    +0.000 A 
ATOM     14  C   UNL     1       2.087   8.729  18.299  0.00  0.00    +0.000 A 
ATOM     15  C   UNL     1       1.734  10.046  17.968  0.00  0.00    +0.000 A 
ATOM     16  C   UNL     1       1.044  10.779  18.906  0.00  0.00    +0.000 A 
ATOM     17  C   UNL     1       0.725  10.252  20.132  0.00  0.00    +0.000 A 
ATOM     18  C   UNL     1       1.062   8.961  20.480  0.00  0.00    +0.000 A 
ATOM     19  O   UNL     1       0.045  11.129  20.917  0.00  0.00    +0.000 OA
ATOM     20  C   UNL     1      -0.062  12.259  20.026  0.00  0.00    +0.000 C 
ATOM     21  O   UNL     1       0.597  12.054  18.759  0.00  0.00    +0.000 OA
ENDBRANCH   7  13
BRANCH   4  22
ATOM     22  C   UNL     1       6.300   4.019  17.255  0.00  0.00    +0.000 C 
ATOM     23  C   UNL     1       7.616   4.689  16.854  0.00  0.00    +0.000 C 
ATOM     24  C   UNL     1       7.486   5.817  15.825  0.00  0.00    +0.000 C 
ATOM     25  N   UNL     1       6.599   5.520  14.701  0.00  0.00    +0.000 NA
ATOM     26  C   UNL     1       5.293   5.052  15.156  0.00  0.00    +0.000 C 
ATOM     27  C   UNL     1       5.407   3.803  16.023  0.00  0.00    +0.000 C 
ATOM     28  H   UNL     1       7.023   4.823  14.091  0.00  0.00    +0.000 HD
ENDBRANCH   4  22
TORSDOF 2
ENDMDL
MODEL 4
REMARK VINA RESULT:      -7.6      4.986      8.045
REMARK  Name = 
REMARK  2 active torsions:
REMARK  status: ('A' for Active; 'I' for Inactive)
REMARK    1  A    between atoms: N_4  and  C_5
REMARK    2  A    between atoms: C_13  and  C_14
REMARK                            x       y       z     vdW  Elec       q    Type
REMARK                         _______ _______ _______ _____ _____    ______ ____
ROOT
ATOM      1  C   UNL     1      -1.290  12.590  23.077  0.00  0.00    +0.000 A 
ATOM      2  N   UNL     1      -0.660  13.264  22.103  0.00  0.00    +0.000 NA
ATOM      3  C   UNL     1       0.039  12.529  21.225  0.00  0.00    +0.000 A 
ATOM      4  N   UNL     1       0.667  13.162  20.142  0.00  0.00    +0.000 N 
ATOM      5  C   UNL     1       0.144  11.124  21.348  0.00  0.00    +0.000 A 
ATOM      6  C   UNL     1       0.926  10.295  20.501  0.00  0.00    +0.000 A 
ATOM      7  C   UNL     1       1.002   8.901  20.663  0.00  0.00    +0.000 A 
ATOM      8  C   UNL     1       0.265   8.350  21.717  0.00  0.00    +0.000 A 
ATOM      9  C   UNL     1      -0.494   9.165  22.570  0.00  0.00    +0.000 A 
ATOM     10  C   UNL     1      -0.563  10.544  22.408  0.00  0.00    +0.000 A 
ATOM     11  N   UNL     1      -1.285  11.264  23.266  0.00  0.00    +0.000 NA
ATOM     12  H   UNL     1       0.229  12.902  19.262  0.00  0.00    +0.000 HD
ENDROOT
BRANCH   7  13
ATOM     13  C   UNL     1       1.782   8.055  19.733  0.00  0.00    +0.000 A 
ATOM     14  C   UNL     1       2.193   8.526  18.459  0.00  0.00    +0.000 A 
ATOM     15  C   UNL     1       2.981   7.744  17.600  0.00  0.00    +0.000 A 
ATOM     16  C   UNL     1       3.344   6.488  18.029  0.00  0.00    +0.000 A 
ATOM     17  C   UNL     1       2.939   6.004  19.247  0.00  0.00    +0.000 A 
ATOM     18  C   UNL     1       2.163   6.752  20.108  0.00  0.00    +0.000 A 
ATOM     19  O   UNL     1       3.398   4.748  19.489  0.00  0.00    +0.000 OA
ATOM     20  C   UNL     1       4.175   4.512  18.297  0.00  0.00    +0.000 C 
ATOM     21  O   UNL     1       4.120   5.602  17.352  0.00  0.00    +0.000 OA
ENDBRANCH   7  13
BRANCH   4  22
ATOM     22  C   UNL     1       1.083  14.563  20.245  0.00  0.00    +0.000 C 
ATOM     23  C   UNL     1       1.473  15.212  18.915  0.00  0.00    +0.000 C 
ATOM     24  C   UNL     1       2.891  14.898  18.428  0.00  0.00    +0.000 C 
ATOM     25  N   UNL     1       3.925  14.980  19.459  0.00  0.00    +0.000 NA
ATOM     26  C   UNL     1       3.573  14.193  20.637  0.00  0.00    +0.000 C 
ATOM     27  C   UNL     1       2.247  14.640  21.245  0.00  0.00    +0.000 C 
ATOM     28  H   UNL     1       4.081  15.951  19.726  0.00  0.00    +0.000 HD
ENDBRANCH   4  22
TORSDOF 2
ENDMDL
MODEL 5
REMARK VINA RESULT:      -7.3      5.242      8.561
REMARK  Name = 
REMARK  2 active torsions:
REMARK  status: ('A' for Active; 'I' for Inactive)
REMARK    1  A    between atoms: N_4  and  C_5
REMARK    2  A    between atoms: C_13  and  C_14
REMARK                            x       y       z     vdW  Elec       q    Type
REMARK                         _______ _______ _______ _____ _____    ______ ____
ROOT
ATOM      1  C   UNL     1      -1.480  12.018  22.321  0.00  0.00    +0.000 A 
ATOM      2  N   UNL     1      -1.917  11.910  21.058  0.00  0.00    +0.000 NA
ATOM      3  C   UNL     1      -1.356  10.946  20.312  0.00  0.00    +0.000 A 
ATOM      4  N   UNL     1      -1.813  10.733  19.003  0.00  0.00    +0.000 N 
ATOM      5  C   UNL     1      -0.324  10.121  20.817  0.00  0.00    +0.000 A 
ATOM      6  C   UNL     1       0.365   9.135  20.062  0.00  0.00    +0.000 A 
ATOM      7  C   UNL     1       1.386   8.339  20.607  0.00  0.00    +0.000 A 
ATOM      8  C   UNL     1       1.710   8.563  21.950  0.00  0.00    +0.000 A 
ATOM      9  C   UNL     1       1.047   9.549  22.696  0.00  0.00    +0.000 A 
ATOM     10  C   UNL     1       0.040  10.337  22.152  0.00  0.00    +0.000 A 
ATOM     11  N   UNL     1      -0.535  11.271  22.909  0.00  0.00    +0.000 NA
ATOM     12  H   UNL     1      -2.286   9.836  18.923  0.00  0.00    +0.000 HD
ENDROOT
BRANCH   7  13
ATOM     13  C   UNL     1       2.051   7.282  19.813  0.00  0.00    +0.000 A 
ATOM     14  C   UNL     1       2.667   7.560  18.564  0.00  0.00    +0.000 A 
ATOM     15  C   UNL     1       3.346   6.570  17.837  0.00  0.00    +0.000 A 
ATOM     16  C   UNL     1       3.395   5.303  18.372  0.00  0.00    +0.000 A 
ATOM     17  C   UNL     1       2.788   5.007  19.566  0.00  0.00    +0.000 A 
ATOM     18  C   UNL     1       2.113   5.961  20.297  0.00  0.00    +0.000 A 
ATOM     19  O   UNL     1       2.948   3.705  19.925  0.00  0.00    +0.000 OA
ATOM     20  C   UNL     1       3.762   3.225  18.835  0.00  0.00    +0.000 C 
ATOM     21  O   UNL     1       4.025   4.227  17.830  0.00  0.00    +0.000 OA
ENDBRANCH   7  13
BRANCH   4  22
ATOM     22  C   UNL     1      -2.416  11.831  18.243  0.00  0.00    +0.000 C 
ATOM     23  C   UNL     1      -3.924  11.993  18.446  0.00  0.00    +0.000 C 
ATOM     24  C   UNL     1      -4.799  11.038  17.627  0.00  0.00    +0.000 C 
ATOM     25  N   UNL     1      -4.396  10.884  16.230  0.00  0.00    +0.000 NA
ATOM     26  C   UNL     1      -2.979  10.553  16.112  0.00  0.00    +0.000 C 
ATOM     27  C   UNL     1      -2.092  11.613  16.757  0.00  0.00    +0.000 C 
ATOM     28  H   UNL     1      -4.596  11.737  15.709  0.00  0.00    +0.000 HD
ENDBRANCH   4  22
TORSDOF 2
ENDMDL
MODEL 6
REMARK VINA RESULT:      -7.3      2.157      4.380
REMARK  Name = 
REMARK  2 active torsions:
REMARK  status: ('A' for Active; 'I' for Inactive)
REMARK    1  A    between atoms: N_4  and  C_5
REMARK    2  A    between atoms: C_13  and  C_14
REMARK                            x       y       z     vdW  Elec       q    Type
REMARK                         _______ _______ _______ _____ _____    ______ ____
ROOT
ATOM      1  C   UNL     1       5.048   3.879  16.534  0.00  0.00    +0.000 A 
ATOM      2  N   UNL     1       4.028   3.307  17.190  0.00  0.00    +0.000 NA
ATOM      3  C   UNL     1       3.126   4.140  17.733  0.00  0.00    +0.000 A 
ATOM      4  N   UNL     1       1.998   3.609  18.376  0.00  0.00    +0.000 N 
ATOM      5  C   UNL     1       3.272   5.544  17.659  0.00  0.00    +0.000 A 
ATOM      6  C   UNL     1       2.398   6.480  18.274  0.00  0.00    +0.000 A 
ATOM      7  C   UNL     1       2.584   7.869  18.175  0.00  0.00    +0.000 A 
ATOM      8  C   UNL     1       3.688   8.304  17.434  0.00  0.00    +0.000 A 
ATOM      9  C   UNL     1       4.566   7.385  16.841  0.00  0.00    +0.000 A 
ATOM     10  C   UNL     1       4.381   6.012  16.945  0.00  0.00    +0.000 A 
ATOM     11  N   UNL     1       5.263   5.192  16.375  0.00  0.00    +0.000 NA
ATOM     12  H   UNL     1       1.149   3.819  17.857  0.00  0.00    +0.000 HD
ENDROOT
BRANCH   7  13
ATOM     13  C   UNL     1       1.629   8.823  18.781  0.00  0.00    +0.000 A 
ATOM     14  C   UNL     1       0.809   9.667  17.987  0.00  0.00    +0.000 A 
ATOM     15  C   UNL     1      -0.137  10.532  18.560  0.00  0.00    +0.000 A 
ATOM     16  C   UNL     1      -0.246  10.544  19.932  0.00  0.00    +0.000 A 
ATOM     17  C   UNL     1       0.552   9.753  20.719  0.00  0.00    +0.000 A 
ATOM     18  C   UNL     1       1.489   8.898  20.181  0.00  0.00    +0.000 A 
ATOM     19  O   UNL     1       0.295   9.908  22.045  0.00  0.00    +0.000 OA
ATOM     20  C   UNL     1      -0.789  10.859  21.999  0.00  0.00    +0.000 C 
ATOM     21  O   UNL     1      -1.117  11.290  20.661  0.00  0.00    +0.000 OA
ENDBRANCH   7  13
BRANCH   4  22
ATOM     22  C   UNL     1       2.050   2.274  18.979  0.00  0.00    +0.000 C 
ATOM     23  C   UNL     1       1.024   2.037  20.090  0.00  0.00    +0.000 C 
ATOM     24  C   UNL     1       1.410   2.596  21.463  0.00  0.00    +0.000 C 
ATOM     25  N   UNL     1       2.794   2.342  21.861  0.00  0.00    +0.000 NA
ATOM     26  C   UNL     1       3.737   2.756  20.826  0.00  0.00    +0.000 C 
ATOM     27  C   UNL     1       3.476   2.044  19.502  0.00  0.00    +0.000 C 
ATOM     28  H   UNL     1       2.925   1.353  22.072  0.00  0.00    +0.000 HD
ENDBRANCH   4  22
TORSDOF 2
ENDMDL
MODEL 7
REMARK VINA RESULT:      -7.3      2.272      4.606
REMARK  Name = 
REMARK  2 active torsions:
REMARK  status: ('A' for Active; 'I' for Inactive)
REMARK    1  A    between atoms: N_4  and  C_5
REMARK    2  A    between atoms: C_13  and  C_14
REMARK                            x       y       z     vdW  Elec       q    Type
REMARK                         _______ _______ _______ _____ _____    ______ ____
ROOT
ATOM      1  C   UNL     1       5.068   4.057  16.529  0.00  0.00    +0.000 A 
ATOM      2  N   UNL     1       4.067   3.434  17.170  0.00  0.00    +0.000 NA
ATOM      3  C   UNL     1       3.137   4.221  17.733  0.00  0.00    +0.000 A 
ATOM      4  N   UNL     1       2.028   3.636  18.360  0.00  0.00    +0.000 N 
ATOM      5  C   UNL     1       3.235   5.631  17.694  0.00  0.00    +0.000 A 
ATOM      6  C   UNL     1       2.330   6.521  18.332  0.00  0.00    +0.000 A 
ATOM      7  C   UNL     1       2.467   7.918  18.268  0.00  0.00    +0.000 A 
ATOM      8  C   UNL     1       3.557   8.409  17.540  0.00  0.00    +0.000 A 
ATOM      9  C   UNL     1       4.465   7.536  16.924  0.00  0.00    +0.000 A 
ATOM     10  C   UNL     1       4.327   6.155  16.994  0.00  0.00    +0.000 A 
ATOM     11  N   UNL     1       5.238   5.380  16.404  0.00  0.00    +0.000 NA
ATOM     12  H   UNL     1       1.172   3.830  17.845  0.00  0.00    +0.000 HD
ENDROOT
BRANCH   7  13
ATOM     13  C   UNL     1       1.480   8.823  18.897  0.00  0.00    +0.000 A 
ATOM     14  C   UNL     1       1.281   8.852  20.302  0.00  0.00    +0.000 A 
ATOM     15  C   UNL     1       0.385   9.750  20.904  0.00  0.00    +0.000 A 
ATOM     16  C   UNL     1      -0.309  10.609  20.084  0.00  0.00    +0.000 A 
ATOM     17  C   UNL     1      -0.149  10.583  18.721  0.00  0.00    +0.000 A 
ATOM     18  C   UNL     1       0.723   9.709  18.107  0.00  0.00    +0.000 A 
ATOM     19  O   UNL     1      -0.920  11.505  18.087  0.00  0.00    +0.000 OA
ATOM     20  C   UNL     1      -1.555  12.144  19.213  0.00  0.00    +0.000 C 
ATOM     21  O   UNL     1      -1.194  11.560  20.483  0.00  0.00    +0.000 OA
ENDBRANCH   7  13
BRANCH   4  22
ATOM     22  C   UNL     1       2.125   2.289  18.930  0.00  0.00    +0.000 C 
ATOM     23  C   UNL     1       1.096   1.982  20.019  0.00  0.00    +0.000 C 
ATOM     24  C   UNL     1       1.441   2.520  21.412  0.00  0.00    +0.000 C 
ATOM     25  N   UNL     1       2.828   2.311  21.823  0.00  0.00    +0.000 NA
ATOM     26  C   UNL     1       3.767   2.789  20.812  0.00  0.00    +0.000 C 
ATOM     27  C   UNL     1       3.552   2.102  19.467  0.00  0.00    +0.000 C 
ATOM     28  H   UNL     1       2.996   1.323  22.009  0.00  0.00    +0.000 HD
ENDBRANCH   4  22
TORSDOF 2
ENDMDL
MODEL 8
REMARK VINA RESULT:      -7.2      2.347      4.840
REMARK  Name = 
REMARK  2 active torsions:
REMARK  status: ('A' for Active; 'I' for Inactive)
REMARK    1  A    between atoms: N_4  and  C_5
REMARK    2  A    between atoms: C_13  and  C_14
REMARK                            x       y       z     vdW  Elec       q    Type
REMARK                         _______ _______ _______ _____ _____    ______ ____
ROOT
ATOM      1  C   UNL     1       3.856   6.815  17.239  0.00  0.00    +0.000 A 
ATOM      2  N   UNL     1       3.517   5.989  18.240  0.00  0.00    +0.000 NA
ATOM      3  C   UNL     1       2.657   6.474  19.149  0.00  0.00    +0.000 A 
ATOM      4  N   UNL     1       2.208   5.641  20.186  0.00  0.00    +0.000 N 
ATOM      5  C   UNL     1       2.173   7.800  19.081  0.00  0.00    +0.000 A 
ATOM      6  C   UNL     1       1.323   8.400  20.048  0.00  0.00    +0.000 A 
ATOM      7  C   UNL     1       0.867   9.725  19.940  0.00  0.00    +0.000 A 
ATOM      8  C   UNL     1       1.296  10.448  18.821  0.00  0.00    +0.000 A 
ATOM      9  C   UNL     1       2.151   9.868  17.872  0.00  0.00    +0.000 A 
ATOM     10  C   UNL     1       2.603   8.558  17.986  0.00  0.00    +0.000 A 
ATOM     11  N   UNL     1       3.431   8.074  17.061  0.00  0.00    +0.000 NA
ATOM     12  H   UNL     1       1.218   5.433  20.084  0.00  0.00    +0.000 HD
ENDROOT
BRANCH   7  13
ATOM     13  C   UNL     1      -0.061  10.309  20.933  0.00  0.00    +0.000 A 
ATOM     14  C   UNL     1      -0.145   9.811  22.260  0.00  0.00    +0.000 A 
ATOM     15  C   UNL     1      -0.984  10.401  23.219  0.00  0.00    +0.000 A 
ATOM     16  C   UNL     1      -1.737  11.485  22.832  0.00  0.00    +0.000 A 
ATOM     17  C   UNL     1      -1.689  11.968  21.549  0.00  0.00    +0.000 A 
ATOM     18  C   UNL     1      -0.874  11.405  20.589  0.00  0.00    +0.000 A 
ATOM     19  O   UNL     1      -2.503  13.040  21.363  0.00  0.00    +0.000 OA
ATOM     20  C   UNL     1      -3.041  13.202  22.692  0.00  0.00    +0.000 C 
ATOM     21  O   UNL     1      -2.582  12.198  23.622  0.00  0.00    +0.000 OA
ENDBRANCH   7  13
BRANCH   4  22
ATOM     22  C   UNL     1       3.039   4.527  20.652  0.00  0.00    +0.000 C 
ATOM     23  C   UNL     1       3.547   3.604  19.542  0.00  0.00    +0.000 C 
ATOM     24  C   UNL     1       2.540   2.558  19.053  0.00  0.00    +0.000 C 
ATOM     25  N   UNL     1       1.806   1.871  20.115  0.00  0.00    +0.000 NA
ATOM     26  C   UNL     1       1.193   2.816  21.044  0.00  0.00    +0.000 C 
ATOM     27  C   UNL     1       2.229   3.733  21.687  0.00  0.00    +0.000 C 
ATOM     28  H   UNL     1       2.426   1.241  20.622  0.00  0.00    +0.000 HD
ENDBRANCH   4  22
TORSDOF 2
ENDMDL
MODEL 9
REMARK VINA RESULT:      -7.1      5.234      8.612
REMARK  Name = 
REMARK  2 active torsions:
REMARK  status: ('A' for Active; 'I' for Inactive)
REMARK    1  A    between atoms: N_4  and  C_5
REMARK    2  A    between atoms: C_13  and  C_14
REMARK                            x       y       z     vdW  Elec       q    Type
REMARK                         _______ _______ _______ _____ _____    ______ ____
ROOT
ATOM      1  C   UNL     1      -1.395  12.275  22.060  0.00  0.00    +0.000 A 
ATOM      2  N   UNL     1      -1.830  12.048  20.812  0.00  0.00    +0.000 NA
ATOM      3  C   UNL     1      -1.318  10.975  20.188  0.00  0.00    +0.000 A 
ATOM      4  N   UNL     1      -1.779  10.639  18.906  0.00  0.00    +0.000 N 
ATOM      5  C   UNL     1      -0.338  10.158  20.797  0.00  0.00    +0.000 A 
ATOM      6  C   UNL     1       0.299   9.056  20.168  0.00  0.00    +0.000 A 
ATOM      7  C   UNL     1       1.271   8.272  20.812  0.00  0.00    +0.000 A 
ATOM      8  C   UNL     1       1.597   8.630  22.125  0.00  0.00    +0.000 A 
ATOM      9  C   UNL     1       0.986   9.729  22.746  0.00  0.00    +0.000 A 
ATOM     10  C   UNL     1       0.028  10.504  22.103  0.00  0.00    +0.000 A 
ATOM     11  N   UNL     1      -0.498  11.549  22.741  0.00  0.00    +0.000 NA
ATOM     12  H   UNL     1      -2.301   9.766  18.923  0.00  0.00    +0.000 HD
ENDROOT
BRANCH   7  13
ATOM     13  C   UNL     1       1.880   7.096  20.152  0.00  0.00    +0.000 A 
ATOM     14  C   UNL     1       1.654   5.775  20.620  0.00  0.00    +0.000 A 
ATOM     15  C   UNL     1       2.186   4.655  19.961  0.00  0.00    +0.000 A 
ATOM     16  C   UNL     1       2.947   4.876  18.837  0.00  0.00    +0.000 A 
ATOM     17  C   UNL     1       3.197   6.145  18.380  0.00  0.00    +0.000 A 
ATOM     18  C   UNL     1       2.688   7.260  19.011  0.00  0.00    +0.000 A 
ATOM     19  O   UNL     1       3.967   6.155  17.260  0.00  0.00    +0.000 OA
ATOM     20  C   UNL     1       4.140   4.740  17.040  0.00  0.00    +0.000 C 
ATOM     21  O   UNL     1       3.520   3.922  18.056  0.00  0.00    +0.000 OA
ENDBRANCH   7  13
BRANCH   4  22
ATOM     22  C   UNL     1      -2.314  11.674  18.018  0.00  0.00    +0.000 C 
ATOM     23  C   UNL     1      -3.790  12.009  18.247  0.00  0.00    +0.000 C 
ATOM     24  C   UNL     1      -4.786  11.039  17.603  0.00  0.00    +0.000 C 
ATOM     25  N   UNL     1      -4.465  10.654  16.229  0.00  0.00    +0.000 NA
ATOM     26  C   UNL     1      -3.091  10.175  16.111  0.00  0.00    +0.000 C 
ATOM     27  C   UNL     1      -2.081  11.223  16.568  0.00  0.00    +0.000 C 
ATOM     28  H   UNL     1      -4.610  11.443  15.599  0.00  0.00    +0.000 HD
ENDBRANCH   4  22
TORSDOF 2
ENDMDL
