MODEL 1
REMARK VINA RESULT:      -7.6      0.000      0.000
REMARK  Name = 
REMARK  7 active torsions:
REMARK  status: ('A' for Active; 'I' for Inactive)
REMARK    1  A    between atoms: C_1  and  C_2
REMARK    2  A    between atoms: C_7  and  C_8
REMARK    3  A    between atoms: C_8  and  C_9
REMARK    4  A    between atoms: C_8  and  N_17
REMARK    5  A    between atoms: C_9  and  C_10
REMARK    6  A    between atoms: C_15  and  O_16
REMARK    7  A    between atoms: N_20  and  C_21
REMARK                            x       y       z     vdW  Elec       q    Type
REMARK                         _______ _______ _______ _____ _____    ______ ____
ROOT
ATOM      1  C   UNL     1       0.023  11.309  19.463  0.00  0.00    +0.000 C 
ENDROOT
BRANCH   1   8
ATOM      2  C   UNL     1       0.749   8.750  21.713  0.00  0.00    +0.000 C 
ATOM      3  C   UNL     1       1.163   8.903  20.270  0.00  0.00    +0.000 A 
ATOM      4  C   UNL     1       1.949   7.801  19.831  0.00  0.00    +0.000 A 
ATOM      5  C   UNL     1       2.469   7.729  18.552  0.00  0.00    +0.000 A 
ATOM      6  C   UNL     1       2.257   8.766  17.674  0.00  0.00    +0.000 A 
ATOM      7  C   UNL     1       1.501   9.861  18.059  0.00  0.00    +0.000 A 
ATOM      8  C   UNL     1       0.881   9.988  19.342  0.00  0.00    +0.000 A 
ENDBRANCH   1   8
BRANCH   1   9
ATOM      9  N   UNL     1       0.369  12.313  20.533  0.00  0.00    +0.000 NA
ATOM     10  C   UNL     1       1.762  12.825  20.517  0.00  0.00    +0.000 C 
ATOM     11  C   UNL     1       2.062  13.787  19.357  0.00  0.00    +0.000 C 
ATOM     12  N   UNL     1       1.059  14.869  19.194  0.00  0.00    +0.000 NA
ATOM     13  C   UNL     1      -0.326  14.373  19.324  0.00  0.00    +0.000 C 
ATOM     14  C   UNL     1      -0.507  13.516  20.572  0.00  0.00    +0.000 C 
BRANCH  12  15
ATOM     15  C   UNL     1       1.418  16.230  19.700  0.00  0.00    +0.000 C 
ATOM     16  C   UNL     1       2.745  16.701  19.034  0.00  0.00    +0.000 C 
ATOM     17  C   UNL     1       2.583  16.769  17.502  0.00  0.00    +0.000 C 
ATOM     18  C   UNL     1       1.469  17.756  17.120  0.00  0.00    +0.000 C 
ATOM     19  C   UNL     1       0.154  17.402  17.815  0.00  0.00    +0.000 C 
ATOM     20  C   UNL     1       0.361  17.316  19.346  0.00  0.00    +0.000 C 
ENDBRANCH  12  15
ENDBRANCH   1   9
BRANCH   1  21
ATOM     21  C   UNL     1      -1.536  10.954  19.437  0.00  0.00    +0.000 C 
BRANCH  21  22
ATOM     22  C   UNL     1      -2.379  10.888  18.162  0.00  0.00    +0.000 A 
ATOM     23  C   UNL     1      -1.861  10.064  17.143  0.00  0.00    +0.000 A 
ATOM     24  C   UNL     1      -2.511   9.934  15.914  0.00  0.00    +0.000 A 
ATOM     25  C   UNL     1      -3.680  10.648  15.667  0.00  0.00    +0.000 A 
ATOM     26  C   UNL     1      -4.209  11.489  16.645  0.00  0.00    +0.000 A 
ATOM     27  C   UNL     1      -3.578  11.606  17.896  0.00  0.00    +0.000 A 
BRANCH  27  28
ATOM     28  O   UNL     1      -4.120  12.429  18.814  0.00  0.00    +0.000 OA
ATOM     29  H   UNL     1      -5.057  12.400  19.052  0.00  0.00    +0.000 HD
ENDBRANCH  27  28
ENDBRANCH  21  22
ENDBRANCH   1  21
TORSDOF 6
ENDMDL
MODEL 2
REMARK VINA RESULT:      -7.3      0.930      1.349
REMARK  Name = 
REMARK  7 active torsions:
REMARK  status: ('A' for Active; 'I' for Inactive)
REMARK    1  A    between atoms: C_1  and  C_2
REMARK    2  A    between atoms: C_7  and  C_8
REMARK    3  A    between atoms: C_8  and  C_9
REMARK    4  A    between atoms: C_8  and  N_17
REMARK    5  A    between atoms: C_9  and  C_10
REMARK    6  A    between atoms: C_15  and  O_16
REMARK    7  A    between atoms: N_20  and  C_21
REMARK                            x       y       z     vdW  Elec       q    Type
REMARK                         _______ _______ _______ _____ _____    ______ ____
ROOT
ATOM      1  C   UNL     1      -0.242  10.988  19.231  0.00  0.00    +0.000 C 
ENDROOT
BRANCH   1   8
ATOM      2  C   UNL     1       0.640   8.770  21.769  0.00  0.00    +0.000 C 
ATOM      3  C   UNL     1       1.079   8.797  20.326  0.00  0.00    +0.000 A 
ATOM      4  C   UNL     1       1.969   7.727  20.028  0.00  0.00    +0.000 A 
ATOM      5  C   UNL     1       2.528   7.559  18.776  0.00  0.00    +0.000 A 
ATOM      6  C   UNL     1       2.252   8.469  17.782  0.00  0.00    +0.000 A 
ATOM      7  C   UNL     1       1.394   9.529  18.026  0.00  0.00    +0.000 A 
ATOM      8  C   UNL     1       0.730   9.742  19.275  0.00  0.00    +0.000 A 
ENDBRANCH   1   8
BRANCH   1   9
ATOM      9  N   UNL     1      -0.084  12.078  20.260  0.00  0.00    +0.000 NA
ATOM     10  C   UNL     1       1.294  12.302  20.763  0.00  0.00    +0.000 C 
ATOM     11  C   UNL     1       2.230  12.971  19.745  0.00  0.00    +0.000 C 
ATOM     12  N   UNL     1       1.658  14.180  19.100  0.00  0.00    +0.000 NA
ATOM     13  C   UNL     1       0.249  13.989  18.703  0.00  0.00    +0.000 C 
ATOM     14  C   UNL     1      -0.589  13.414  19.840  0.00  0.00    +0.000 C 
BRANCH  12  15
ATOM     15  C   UNL     1       2.125  15.514  19.590  0.00  0.00    +0.000 C 
ATOM     16  C   UNL     1       3.562  15.381  20.176  0.00  0.00    +0.000 C 
ATOM     17  C   UNL     1       4.540  14.882  19.092  0.00  0.00    +0.000 C 
ATOM     18  C   UNL     1       4.584  15.864  17.911  0.00  0.00    +0.000 C 
ATOM     19  C   UNL     1       3.185  16.109  17.344  0.00  0.00    +0.000 C 
ATOM     20  C   UNL     1       2.226  16.581  18.462  0.00  0.00    +0.000 C 
ENDBRANCH  12  15
ENDBRANCH   1   9
BRANCH   1  21
ATOM     21  C   UNL     1      -1.756  10.495  19.085  0.00  0.00    +0.000 C 
BRANCH  21  22
ATOM     22  C   UNL     1      -2.566  10.587  17.790  0.00  0.00    +0.000 A 
ATOM     23  C   UNL     1      -2.117   9.759  16.742  0.00  0.00    +0.000 A 
ATOM     24  C   UNL     1      -2.744   9.764  15.495  0.00  0.00    +0.000 A 
ATOM     25  C   UNL     1      -3.818  10.617  15.259  0.00  0.00    +0.000 A 
ATOM     26  C   UNL     1      -4.275  11.464  16.268  0.00  0.00    +0.000 A 
ATOM     27  C   UNL     1      -3.669  11.448  17.536  0.00  0.00    +0.000 A 
BRANCH  27  28
ATOM     28  O   UNL     1      -4.140  12.283  18.483  0.00  0.00    +0.000 OA
ATOM     29  H   UNL     1      -4.631  13.088  18.271  0.00  0.00    +0.000 HD
ENDBRANCH  27  28
ENDBRANCH  21  22
ENDBRANCH   1  21
TORSDOF 6
ENDMDL
MODEL 3
REMARK VINA RESULT:      -6.9      1.753      2.643
REMARK  Name = 
REMARK  7 active torsions:
REMARK  status: ('A' for Active; 'I' for Inactive)
REMARK    1  A    between atoms: C_1  and  C_2
REMARK    2  A    between atoms: C_7  and  C_8
REMARK    3  A    between atoms: C_8  and  C_9
REMARK    4  A    between atoms: C_8  and  N_17
REMARK    5  A    between atoms: C_9  and  C_10
REMARK    6  A    between atoms: C_15  and  O_16
REMARK    7  A    between atoms: N_20  and  C_21
REMARK                            x       y       z     vdW  Elec       q    Type
REMARK                         _______ _______ _______ _____ _____    ______ ____
ROOT
ATOM      1  C   UNL     1      -1.009  12.423  20.212  0.00  0.00    +0.000 C 
ENDROOT
BRANCH   1   8
ATOM      2  C   UNL     1      -2.049  11.643  23.444  0.00  0.00    +0.000 C 
ATOM      3  C   UNL     1      -1.017  10.961  22.580  0.00  0.00    +0.000 A 
ATOM      4  C   UNL     1      -0.439   9.840  23.239  0.00  0.00    +0.000 A 
ATOM      5  C   UNL     1       0.553   9.073  22.657  0.00  0.00    +0.000 A 
ATOM      6  C   UNL     1       1.030   9.412  21.412  0.00  0.00    +0.000 A 
ATOM      7  C   UNL     1       0.499  10.497  20.734  0.00  0.00    +0.000 A 
ATOM      8  C   UNL     1      -0.566  11.307  21.240  0.00  0.00    +0.000 A 
ENDBRANCH   1   8
BRANCH   1   9
ATOM      9  N   UNL     1      -0.835  13.873  20.583  0.00  0.00    +0.000 NA
ATOM     10  C   UNL     1       0.315  14.183  21.470  0.00  0.00    +0.000 C 
ATOM     11  C   UNL     1       1.683  14.077  20.780  0.00  0.00    +0.000 C 
ATOM     12  N   UNL     1       1.762  14.790  19.480  0.00  0.00    +0.000 NA
ATOM     13  C   UNL     1       0.563  14.569  18.647  0.00  0.00    +0.000 C 
ATOM     14  C   UNL     1      -0.724  14.807  19.429  0.00  0.00    +0.000 C 
BRANCH  12  15
ATOM     15  C   UNL     1       2.459  16.113  19.455  0.00  0.00    +0.000 C 
ATOM     16  C   UNL     1       3.820  16.000  20.202  0.00  0.00    +0.000 C 
ATOM     17  C   UNL     1       4.723  14.952  19.520  0.00  0.00    +0.000 C 
ATOM     18  C   UNL     1       5.000  15.346  18.061  0.00  0.00    +0.000 C 
ATOM     19  C   UNL     1       3.697  15.562  17.290  0.00  0.00    +0.000 C 
ATOM     20  C   UNL     1       2.806  16.597  18.017  0.00  0.00    +0.000 C 
ENDBRANCH  12  15
ENDBRANCH   1   9
BRANCH   1  21
ATOM     21  C   UNL     1      -2.474  12.103  19.656  0.00  0.00    +0.000 C 
BRANCH  21  22
ATOM     22  C   UNL     1      -2.751  11.389  18.332  0.00  0.00    +0.000 A 
ATOM     23  C   UNL     1      -1.754  10.484  17.919  0.00  0.00    +0.000 A 
ATOM     24  C   UNL     1      -1.862   9.785  16.715  0.00  0.00    +0.000 A 
ATOM     25  C   UNL     1      -2.958   9.998  15.883  0.00  0.00    +0.000 A 
ATOM     26  C   UNL     1      -3.953  10.902  16.252  0.00  0.00    +0.000 A 
ATOM     27  C   UNL     1      -3.868  11.590  17.474  0.00  0.00    +0.000 A 
BRANCH  27  28
ATOM     28  O   UNL     1      -4.849  12.456  17.793  0.00  0.00    +0.000 OA
ATOM     29  H   UNL     1      -4.882  12.917  18.643  0.00  0.00    +0.000 HD
ENDBRANCH  27  28
ENDBRANCH  21  22
ENDBRANCH   1  21
TORSDOF 6
ENDMDL
MODEL 4
REMARK VINA RESULT:      -6.9      0.629      1.517
REMARK  Name = 
REMARK  7 active torsions:
REMARK  status: ('A' for Active; 'I' for Inactive)
REMARK    1  A    between atoms: C_1  and  C_2
REMARK    2  A    between atoms: C_7  and  C_8
REMARK    3  A    between atoms: C_8  and  C_9
REMARK    4  A    between atoms: C_8  and  N_17
REMARK    5  A    between atoms: C_9  and  C_10
REMARK    6  A    between atoms: C_15  and  O_16
REMARK    7  A    between atoms: N_20  and  C_21
REMARK                            x       y       z     vdW  Elec       q    Type
REMARK                         _______ _______ _______ _____ _____    ______ ____
ROOT
ATOM      1  C   UNL     1      -0.294  11.816  19.860  0.00  0.00    +0.000 C 
ENDROOT
BRANCH   1   8
ATOM      2  C   UNL     1       1.900   9.953  17.898  0.00  0.00    +0.000 C 
ATOM      3  C   UNL     1       1.286   9.613  19.234  0.00  0.00    +0.000 A 
ATOM      4  C   UNL     1       1.721   8.342  19.702  0.00  0.00    +0.000 A 
ATOM      5  C   UNL     1       1.271   7.801  20.892  0.00  0.00    +0.000 A 
ATOM      6  C   UNL     1       0.346   8.487  21.643  0.00  0.00    +0.000 A 
ATOM      7  C   UNL     1      -0.109   9.728  21.224  0.00  0.00    +0.000 A 
ATOM      8  C   UNL     1       0.347  10.382  20.037  0.00  0.00    +0.000 A 
ENDBRANCH   1   8
BRANCH   1   9
ATOM      9  N   UNL     1       0.093  12.915  20.815  0.00  0.00    +0.000 NA
ATOM     10  C   UNL     1       1.531  13.283  20.834  0.00  0.00    +0.000 C 
ATOM     11  C   UNL     1       1.997  14.047  19.585  0.00  0.00    +0.000 C 
ATOM     12  N   UNL     1       1.125  15.190  19.214  0.00  0.00    +0.000 NA
ATOM     13  C   UNL     1      -0.310  14.852  19.307  0.00  0.00    +0.000 C 
ATOM     14  C   UNL     1      -0.653  14.191  20.637  0.00  0.00    +0.000 C 
BRANCH  12  15
ATOM     15  C   UNL     1       1.595  16.566  19.567  0.00  0.00    +0.000 C 
ATOM     16  C   UNL     1       2.940  16.860  18.839  0.00  0.00    +0.000 C 
ATOM     17  C   UNL     1       2.753  16.778  17.310  0.00  0.00    +0.000 C 
ATOM     18  C   UNL     1       1.709  17.801  16.838  0.00  0.00    +0.000 C 
ATOM     19  C   UNL     1       0.385  17.625  17.583  0.00  0.00    +0.000 C 
ATOM     20  C   UNL     1       0.615  17.685  19.111  0.00  0.00    +0.000 C 
ENDBRANCH  12  15
ENDBRANCH   1   9
BRANCH   1  21
ATOM     21  C   UNL     1      -1.878  11.688  19.680  0.00  0.00    +0.000 C 
BRANCH  21  22
ATOM     22  C   UNL     1      -2.561  11.268  18.377  0.00  0.00    +0.000 A 
ATOM     23  C   UNL     1      -1.811  10.401  17.558  0.00  0.00    +0.000 A 
ATOM     24  C   UNL     1      -2.299   9.962  16.327  0.00  0.00    +0.000 A 
ATOM     25  C   UNL     1      -3.540  10.402  15.874  0.00  0.00    +0.000 A 
ATOM     26  C   UNL     1      -4.300  11.276  16.649  0.00  0.00    +0.000 A 
ATOM     27  C   UNL     1      -3.831  11.703  17.903  0.00  0.00    +0.000 A 
BRANCH  27  28
ATOM     28  O   UNL     1      -4.594  12.548  18.622  0.00  0.00    +0.000 OA
ATOM     29  H   UNL     1      -5.046  12.281  19.433  0.00  0.00    +0.000 HD
ENDBRANCH  27  28
ENDBRANCH  21  22
ENDBRANCH   1  21
TORSDOF 6
ENDMDL
MODEL 5
REMARK VINA RESULT:      -6.9      1.491      2.686
REMARK  Name = 
REMARK  7 active torsions:
REMARK  status: ('A' for Active; 'I' for Inactive)
REMARK    1  A    between atoms: C_1  and  C_2
REMARK    2  A    between atoms: C_7  and  C_8
REMARK    3  A    between atoms: C_8  and  C_9
REMARK    4  A    between atoms: C_8  and  N_17
REMARK    5  A    between atoms: C_9  and  C_10
REMARK    6  A    between atoms: C_15  and  O_16
REMARK    7  A    between atoms: N_20  and  C_21
REMARK                            x       y       z     vdW  Elec       q    Type
REMARK                         _______ _______ _______ _____ _____    ______ ____
ROOT
ATOM      1  C   UNL     1      -1.013  12.421  20.178  0.00  0.00    +0.000 C 
ENDROOT
BRANCH   1   8
ATOM      2  C   UNL     1       1.058   9.703  19.502  0.00  0.00    +0.000 C 
ATOM      3  C   UNL     1       0.330  10.059  20.775  0.00  0.00    +0.000 A 
ATOM      4  C   UNL     1       0.584   9.111  21.805  0.00  0.00    +0.000 A 
ATOM      5  C   UNL     1       0.004   9.210  23.056  0.00  0.00    +0.000 A 
ATOM      6  C   UNL     1      -0.876  10.233  23.318  0.00  0.00    +0.000 A 
ATOM      7  C   UNL     1      -1.156  11.178  22.343  0.00  0.00    +0.000 A 
ATOM      8  C   UNL     1      -0.557  11.181  21.044  0.00  0.00    +0.000 A 
ENDBRANCH   1   8
BRANCH   1   9
ATOM      9  N   UNL     1      -0.757  13.813  20.698  0.00  0.00    +0.000 NA
ATOM     10  C   UNL     1       0.490  13.994  21.483  0.00  0.00    +0.000 C 
ATOM     11  C   UNL     1       1.773  13.950  20.639  0.00  0.00    +0.000 C 
ATOM     12  N   UNL     1       1.733  14.814  19.432  0.00  0.00    +0.000 NA
ATOM     13  C   UNL     1       0.445  14.715  18.715  0.00  0.00    +0.000 C 
ATOM     14  C   UNL     1      -0.743  14.878  19.657  0.00  0.00    +0.000 C 
BRANCH  12  15
ATOM     15  C   UNL     1       2.462  16.118  19.488  0.00  0.00    +0.000 C 
ATOM     16  C   UNL     1       3.846  15.913  20.172  0.00  0.00    +0.000 C 
ATOM     17  C   UNL     1       4.697  14.905  19.372  0.00  0.00    +0.000 C 
ATOM     18  C   UNL     1       4.930  15.412  17.941  0.00  0.00    +0.000 C 
ATOM     19  C   UNL     1       3.606  15.719  17.240  0.00  0.00    +0.000 C 
ATOM     20  C   UNL     1       2.770  16.711  18.082  0.00  0.00    +0.000 C 
ENDBRANCH  12  15
ENDBRANCH   1   9
BRANCH   1  21
ATOM     21  C   UNL     1      -2.520  12.219  19.683  0.00  0.00    +0.000 C 
BRANCH  21  22
ATOM     22  C   UNL     1      -2.906  11.527  18.374  0.00  0.00    +0.000 A 
ATOM     23  C   UNL     1      -1.935  10.652  17.849  0.00  0.00    +0.000 A 
ATOM     24  C   UNL     1      -2.142   9.977  16.645  0.00  0.00    +0.000 A 
ATOM     25  C   UNL     1      -3.315  10.183  15.924  0.00  0.00    +0.000 A 
ATOM     26  C   UNL     1      -4.289  11.058  16.405  0.00  0.00    +0.000 A 
ATOM     27  C   UNL     1      -4.103  11.722  17.630  0.00  0.00    +0.000 A 
BRANCH  27  28
ATOM     28  O   UNL     1      -5.066  12.559  18.059  0.00  0.00    +0.000 OA
ATOM     29  H   UNL     1      -5.595  13.099  17.455  0.00  0.00    +0.000 HD
ENDBRANCH  27  28
ENDBRANCH  21  22
ENDBRANCH   1  21
TORSDOF 6
ENDMDL
MODEL 6
REMARK VINA RESULT:      -6.8      1.032      2.032
REMARK  Name = 
REMARK  7 active torsions:
REMARK  status: ('A' for Active; 'I' for Inactive)
REMARK    1  A    between atoms: C_1  and  C_2
REMARK    2  A    between atoms: C_7  and  C_8
REMARK    3  A    between atoms: C_8  and  C_9
REMARK    4  A    between atoms: C_8  and  N_17
REMARK    5  A    between atoms: C_9  and  C_10
REMARK    6  A    between atoms: C_15  and  O_16
REMARK    7  A    between atoms: N_20  and  C_21
REMARK                            x       y       z     vdW  Elec       q    Type
REMARK                         _______ _______ _______ _____ _____    ______ ____
ROOT
ATOM      1  C   UNL     1      -0.504  11.457  19.600  0.00  0.00    +0.000 C 
ENDROOT
BRANCH   1   8
ATOM      2  C   UNL     1       1.923   9.630  17.896  0.00  0.00    +0.000 C 
ATOM      3  C   UNL     1       1.274   9.350  19.229  0.00  0.00    +0.000 A 
ATOM      4  C   UNL     1       1.785   8.162  19.821  0.00  0.00    +0.000 A 
ATOM      5  C   UNL     1       1.323   7.684  21.033  0.00  0.00    +0.000 A 
ATOM      6  C   UNL     1       0.311   8.350  21.684  0.00  0.00    +0.000 A 
ATOM      7  C   UNL     1      -0.220   9.510  21.143  0.00  0.00    +0.000 A 
ATOM      8  C   UNL     1       0.239  10.101  19.924  0.00  0.00    +0.000 A 
ENDBRANCH   1   8
BRANCH   1   9
ATOM      9  N   UNL     1      -0.248  12.661  20.470  0.00  0.00    +0.000 NA
ATOM     10  C   UNL     1       1.155  12.854  20.915  0.00  0.00    +0.000 C 
ATOM     11  C   UNL     1       2.107  13.314  19.801  0.00  0.00    +0.000 C 
ATOM     12  N   UNL     1       1.601  14.464  19.009  0.00  0.00    +0.000 NA
ATOM     13  C   UNL     1       0.173  14.320  18.665  0.00  0.00    +0.000 C 
ATOM     14  C   UNL     1      -0.672  13.961  19.882  0.00  0.00    +0.000 C 
BRANCH  12  15
ATOM     15  C   UNL     1       2.169  15.815  19.308  0.00  0.00    +0.000 C 
ATOM     16  C   UNL     1       3.516  15.658  20.073  0.00  0.00    +0.000 C 
ATOM     17  C   UNL     1       4.532  14.872  19.219  0.00  0.00    +0.000 C 
ATOM     18  C   UNL     1       4.805  15.605  17.897  0.00  0.00    +0.000 C 
ATOM     19  C   UNL     1       3.508  15.872  17.133  0.00  0.00    +0.000 C 
ATOM     20  C   UNL     1       2.504  16.636  18.029  0.00  0.00    +0.000 C 
ENDBRANCH  12  15
ENDBRANCH   1   9
BRANCH   1  21
ATOM     21  C   UNL     1      -2.063  11.186  19.371  0.00  0.00    +0.000 C 
BRANCH  21  22
ATOM     22  C   UNL     1      -2.703  10.964  18.000  0.00  0.00    +0.000 A 
ATOM     23  C   UNL     1      -1.989  10.112  17.135  0.00  0.00    +0.000 A 
ATOM     24  C   UNL     1      -2.441   9.845  15.842  0.00  0.00    +0.000 A 
ATOM     25  C   UNL     1      -3.605  10.448  15.374  0.00  0.00    +0.000 A 
ATOM     26  C   UNL     1      -4.326  11.314  16.196  0.00  0.00    +0.000 A 
ATOM     27  C   UNL     1      -3.895  11.568  17.509  0.00  0.00    +0.000 A 
BRANCH  27  28
ATOM     28  O   UNL     1      -4.618  12.410  18.271  0.00  0.00    +0.000 OA
ATOM     29  H   UNL     1      -5.492  12.731  18.008  0.00  0.00    +0.000 HD
ENDBRANCH  27  28
ENDBRANCH  21  22
ENDBRANCH   1  21
TORSDOF 6
ENDMDL
MODEL 7
REMARK VINA RESULT:      -6.7      2.151      3.446
REMARK  Name = 
REMARK  7 active torsions:
REMARK  status: ('A' for Active; 'I' for Inactive)
REMARK    1  A    between atoms: C_1  and  C_2
REMARK    2  A    between atoms: C_7  and  C_8
REMARK    3  A    between atoms: C_8  and  C_9
REMARK    4  A    between atoms: C_8  and  N_17
REMARK    5  A    between atoms: C_9  and  C_10
REMARK    6  A    between atoms: C_15  and  O_16
REMARK    7  A    between atoms: N_20  and  C_21
REMARK                            x       y       z     vdW  Elec       q    Type
REMARK                         _______ _______ _______ _____ _____    ______ ____
ROOT
ATOM      1  C   UNL     1       0.770  12.002  19.893  0.00  0.00    +0.000 C 
ENDROOT
BRANCH   1   8
ATOM      2  C   UNL     1      -1.379  12.648  22.557  0.00  0.00    +0.000 C 
ATOM      3  C   UNL     1      -0.633  11.382  22.214  0.00  0.00    +0.000 A 
ATOM      4  C   UNL     1      -0.906  10.344  23.148  0.00  0.00    +0.000 A 
ATOM      5  C   UNL     1      -0.315   9.098  23.058  0.00  0.00    +0.000 A 
ATOM      6  C   UNL     1       0.595   8.848  22.058  0.00  0.00    +0.000 A 
ATOM      7  C   UNL     1       0.894   9.831  21.127  0.00  0.00    +0.000 A 
ATOM      8  C   UNL     1       0.286  11.125  21.116  0.00  0.00    +0.000 A 
ENDBRANCH   1   8
BRANCH   1   9
ATOM      9  N   UNL     1       0.752  13.504  20.015  0.00  0.00    +0.000 NA
ATOM     10  C   UNL     1       1.499  14.072  21.165  0.00  0.00    +0.000 C 
ATOM     11  C   UNL     1       3.026  13.989  21.021  0.00  0.00    +0.000 C 
ATOM     12  N   UNL     1       3.538  14.477  19.715  0.00  0.00    +0.000 NA
ATOM     13  C   UNL     1       2.723  14.001  18.580  0.00  0.00    +0.000 C 
ATOM     14  C   UNL     1       1.234  14.237  18.812  0.00  0.00    +0.000 C 
BRANCH  12  15
ATOM     15  C   UNL     1       4.153  15.841  19.677  0.00  0.00    +0.000 C 
ATOM     16  C   UNL     1       5.202  15.972  20.820  0.00  0.00    +0.000 C 
ATOM     17  C   UNL     1       6.318  14.921  20.649  0.00  0.00    +0.000 C 
ATOM     18  C   UNL     1       7.036  15.111  19.304  0.00  0.00    +0.000 C 
ATOM     19  C   UNL     1       6.046  15.081  18.139  0.00  0.00    +0.000 C 
ATOM     20  C   UNL     1       4.928  16.127  18.358  0.00  0.00    +0.000 C 
ENDBRANCH  12  15
ENDBRANCH   1   9
BRANCH   1  21
ATOM     21  C   UNL     1       0.084  11.487  18.544  0.00  0.00    +0.000 C 
BRANCH  21  22
ATOM     22  C   UNL     1      -1.416  11.228  18.390  0.00  0.00    +0.000 A 
ATOM     23  C   UNL     1      -1.753  10.024  17.742  0.00  0.00    +0.000 A 
ATOM     24  C   UNL     1      -3.084   9.674  17.507  0.00  0.00    +0.000 A 
ATOM     25  C   UNL     1      -4.107  10.535  17.891  0.00  0.00    +0.000 A 
ATOM     26  C   UNL     1      -3.808  11.745  18.517  0.00  0.00    +0.000 A 
ATOM     27  C   UNL     1      -2.474  12.094  18.783  0.00  0.00    +0.000 A 
BRANCH  27  28
ATOM     28  O   UNL     1      -2.227  13.272  19.388  0.00  0.00    +0.000 OA
ATOM     29  H   UNL     1      -2.820  14.032  19.312  0.00  0.00    +0.000 HD
ENDBRANCH  27  28
ENDBRANCH  21  22
ENDBRANCH   1  21
TORSDOF 6
ENDMDL
MODEL 8
REMARK VINA RESULT:      -6.6      2.132      3.418
REMARK  Name = 
REMARK  7 active torsions:
REMARK  status: ('A' for Active; 'I' for Inactive)
REMARK    1  A    between atoms: C_1  and  C_2
REMARK    2  A    between atoms: C_7  and  C_8
REMARK    3  A    between atoms: C_8  and  C_9
REMARK    4  A    between atoms: C_8  and  N_17
REMARK    5  A    between atoms: C_9  and  C_10
REMARK    6  A    between atoms: C_15  and  O_16
REMARK    7  A    between atoms: N_20  and  C_21
REMARK                            x       y       z     vdW  Elec       q    Type
REMARK                         _______ _______ _______ _____ _____    ______ ____
ROOT
ATOM      1  C   UNL     1       0.857  11.934  19.778  0.00  0.00    +0.000 C 
ENDROOT
BRANCH   1   8
ATOM      2  C   UNL     1       1.423   8.553  20.399  0.00  0.00    +0.000 C 
ATOM      3  C   UNL     1       0.641   9.558  21.210  0.00  0.00    +0.000 A 
ATOM      4  C   UNL     1       0.099   8.973  22.388  0.00  0.00    +0.000 A 
ATOM      5  C   UNL     1      -0.681   9.690  23.276  0.00  0.00    +0.000 A 
ATOM      6  C   UNL     1      -0.979  11.005  23.008  0.00  0.00    +0.000 A 
ATOM      7  C   UNL     1      -0.475  11.616  21.871  0.00  0.00    +0.000 A 
ATOM      8  C   UNL     1       0.383  10.963  20.932  0.00  0.00    +0.000 A 
ENDBRANCH   1   8
BRANCH   1   9
ATOM      9  N   UNL     1       0.826  13.422  20.013  0.00  0.00    +0.000 NA
ATOM     10  C   UNL     1       1.608  13.912  21.175  0.00  0.00    +0.000 C 
ATOM     11  C   UNL     1       3.130  13.861  20.972  0.00  0.00    +0.000 C 
ATOM     12  N   UNL     1       3.589  14.452  19.690  0.00  0.00    +0.000 NA
ATOM     13  C   UNL     1       2.738  14.051  18.551  0.00  0.00    +0.000 C 
ATOM     14  C   UNL     1       1.257  14.249  18.852  0.00  0.00    +0.000 C 
BRANCH  12  15
ATOM     15  C   UNL     1       4.187  15.823  19.732  0.00  0.00    +0.000 C 
ATOM     16  C   UNL     1       5.231  15.901  20.885  0.00  0.00    +0.000 C 
ATOM     17  C   UNL     1       6.361  14.875  20.657  0.00  0.00    +0.000 C 
ATOM     18  C   UNL     1       7.080  15.151  19.328  0.00  0.00    +0.000 C 
ATOM     19  C   UNL     1       6.094  15.177  18.160  0.00  0.00    +0.000 C 
ATOM     20  C   UNL     1       4.962  16.195  18.435  0.00  0.00    +0.000 C 
ENDBRANCH  12  15
ENDBRANCH   1   9
BRANCH   1  21
ATOM     21  C   UNL     1       0.170  11.516  18.395  0.00  0.00    +0.000 C 
BRANCH  21  22
ATOM     22  C   UNL     1      -1.321  11.214  18.236  0.00  0.00    +0.000 A 
ATOM     23  C   UNL     1      -1.621  10.026  17.541  0.00  0.00    +0.000 A 
ATOM     24  C   UNL     1      -2.941   9.643  17.296  0.00  0.00    +0.000 A 
ATOM     25  C   UNL     1      -3.991  10.455  17.717  0.00  0.00    +0.000 A 
ATOM     26  C   UNL     1      -3.729  11.648  18.389  0.00  0.00    +0.000 A 
ATOM     27  C   UNL     1      -2.405  12.030  18.666  0.00  0.00    +0.000 A 
BRANCH  27  28
ATOM     28  O   UNL     1      -2.194  13.190  19.316  0.00  0.00    +0.000 OA
ATOM     29  H   UNL     1      -2.185  14.046  18.866  0.00  0.00    +0.000 HD
ENDBRANCH  27  28
ENDBRANCH  21  22
ENDBRANCH   1  21
TORSDOF 6
ENDMDL
MODEL 9
REMARK VINA RESULT:      -6.5      1.403      2.372
REMARK  Name = 
REMARK  7 active torsions:
REMARK  status: ('A' for Active; 'I' for Inactive)
REMARK    1  A    between atoms: C_1  and  C_2
REMARK    2  A    between atoms: C_7  and  C_8
REMARK    3  A    between atoms: C_8  and  C_9
REMARK    4  A    between atoms: C_8  and  N_17
REMARK    5  A    between atoms: C_9  and  C_10
REMARK    6  A    between atoms: C_15  and  O_16
REMARK    7  A    between atoms: N_20  and  C_21
REMARK                            x       y       z     vdW  Elec       q    Type
REMARK                         _______ _______ _______ _____ _____    ______ ____
ROOT
ATOM      1  C   UNL     1      -1.008  12.733  20.526  0.00  0.00    +0.000 C 
ENDROOT
BRANCH   1   8
ATOM      2  C   UNL     1       0.910  10.156  19.179  0.00  0.00    +0.000 C 
ATOM      3  C   UNL     1       0.302  10.278  20.554  0.00  0.00    +0.000 A 
ATOM      4  C   UNL     1       0.609   9.150  21.365  0.00  0.00    +0.000 A 
ATOM      5  C   UNL     1       0.138   9.022  22.658  0.00  0.00    +0.000 A 
ATOM      6  C   UNL     1      -0.683   9.992  23.181  0.00  0.00    +0.000 A 
ATOM      7  C   UNL     1      -1.012  11.108  22.427  0.00  0.00    +0.000 A 
ATOM      8  C   UNL     1      -0.522  11.344  21.104  0.00  0.00    +0.000 A 
ENDBRANCH   1   8
BRANCH   1   9
ATOM      9  N   UNL     1      -0.648  13.999  21.260  0.00  0.00    +0.000 NA
ATOM     10  C   UNL     1       0.795  14.197  21.544  0.00  0.00    +0.000 C 
ATOM     11  C   UNL     1       1.635  14.541  20.306  0.00  0.00    +0.000 C 
ATOM     12  N   UNL     1       1.067  15.632  19.473  0.00  0.00    +0.000 NA
ATOM     13  C   UNL     1      -0.391  15.491  19.286  0.00  0.00    +0.000 C 
ATOM     14  C   UNL     1      -1.112  15.254  20.608  0.00  0.00    +0.000 C 
BRANCH  12  15
ATOM     15  C   UNL     1       1.680  16.991  19.597  0.00  0.00    +0.000 C 
ATOM     16  C   UNL     1       3.167  16.935  19.138  0.00  0.00    +0.000 C 
ATOM     17  C   UNL     1       3.260  16.482  17.666  0.00  0.00    +0.000 C 
ATOM     18  C   UNL     1       2.504  17.459  16.752  0.00  0.00    +0.000 C 
ATOM     19  C   UNL     1       1.053  17.628  17.204  0.00  0.00    +0.000 C 
ATOM     20  C   UNL     1       0.999  18.056  18.689  0.00  0.00    +0.000 C 
ENDBRANCH  12  15
ENDBRANCH   1   9
BRANCH   1  21
ATOM     21  C   UNL     1      -2.562  12.658  20.155  0.00  0.00    +0.000 C 
BRANCH  21  22
ATOM     22  C   UNL     1      -3.110  11.997  18.889  0.00  0.00    +0.000 A 
ATOM     23  C   UNL     1      -2.145  11.673  17.915  0.00  0.00    +0.000 A 
ATOM     24  C   UNL     1      -2.508  11.093  16.698  0.00  0.00    +0.000 A 
ATOM     25  C   UNL     1      -3.850  10.849  16.417  0.00  0.00    +0.000 A 
ATOM     26  C   UNL     1      -4.833  11.177  17.350  0.00  0.00    +0.000 A 
ATOM     27  C   UNL     1      -4.476  11.735  18.590  0.00  0.00    +0.000 A 
BRANCH  27  28
ATOM     28  O   UNL     1      -5.456  12.038  19.463  0.00  0.00    +0.000 OA
ATOM     29  H   UNL     1      -5.366  11.898  20.416  0.00  0.00    +0.000 HD
ENDBRANCH  27  28
ENDBRANCH  21  22
ENDBRANCH   1  21
TORSDOF 6
ENDMDL
