MODEL 1
REMARK VINA RESULT:      -7.6      0.000      0.000
REMARK  Name = 
REMARK  12 active torsions:
REMARK  status: ('A' for Active; 'I' for Inactive)
REMARK    1  A    between atoms: C_1  and  C_2
REMARK    2  A    between atoms: C_2  and  C_3
REMARK    3  A    between atoms: C_2  and  C_4
REMARK    4  A    between atoms: C_4  and  C_5
REMARK    5  A    between atoms: C_8  and  C_9
REMARK    6  A    between atoms: C_11  and  C_12
REMARK    7  A    between atoms: C_12  and  O_13
REMARK    8  A    between atoms: O_13  and  C_14
REMARK    9  A    between atoms: C_17  and  C_18
REMARK   10  A    between atoms: C_18  and  N_19
REMARK   11  A    between atoms: C_21  and  C_22
REMARK   12  A    between atoms: C_22  and  O_24
REMARK                            x       y       z     vdW  Elec       q    Type
REMARK                         _______ _______ _______ _____ _____    ______ ____
ROOT
ATOM      1  C   UNL     1       1.016   7.160  21.022  0.00  0.00    +0.000 C 
ENDROOT
BRANCH   1   4
ATOM      2  C   UNL     1       3.495   5.677  18.996  0.00  0.00    +0.000 A 
ATOM      3  N   UNL     1       2.771   6.736  19.280  0.00  0.00    +0.000 NA
ATOM      4  C   UNL     1       2.050   6.313  20.369  0.00  0.00    +0.000 A 
ATOM      5  N   UNL     1       2.337   5.070  20.786  0.00  0.00    +0.000 NA
ATOM      6  O   UNL     1       3.297   4.642  19.868  0.00  0.00    +0.000 OA
BRANCH   2  10
ATOM      7  C   UNL     1       6.253   4.967  15.807  0.00  0.00    +0.000 A 
ATOM      8  C   UNL     1       6.163   4.085  16.890  0.00  0.00    +0.000 A 
ATOM      9  C   UNL     1       5.260   4.328  17.926  0.00  0.00    +0.000 A 
ATOM     10  C   UNL     1       4.446   5.469  17.915  0.00  0.00    +0.000 A 
ATOM     11  C   UNL     1       4.572   6.374  16.852  0.00  0.00    +0.000 A 
ATOM     12  C   UNL     1       5.466   6.125  15.808  0.00  0.00    +0.000 A 
BRANCH   7  13
ATOM     13  C   UNL     1       7.145   4.650  14.627  0.00  0.00    +0.000 C 
BRANCH  13  15
ATOM     14  C   UNL     1       7.348   4.600  12.089  0.00  0.00    +0.000 C 
ATOM     15  C   UNL     1       6.387   4.652  13.281  0.00  0.00    +0.000 C 
ATOM     16  C   UNL     1       5.413   3.475  13.210  0.00  0.00    +0.000 C 
ENDBRANCH  13  15
ENDBRANCH   7  13
ENDBRANCH   2  10
ENDBRANCH   1   4
BRANCH   1  17
ATOM     17  O   UNL     1       1.223   8.540  20.705  0.00  0.00    +0.000 OA
BRANCH  17  18
ATOM     18  C   UNL     1       0.359   9.443  21.252  0.00  0.00    +0.000 A 
ATOM     19  C   UNL     1       0.036   9.210  22.588  0.00  0.00    +0.000 A 
ATOM     20  C   UNL     1      -0.774  10.101  23.297  0.00  0.00    +0.000 A 
ATOM     21  C   UNL     1      -1.240  11.273  22.686  0.00  0.00    +0.000 A 
ATOM     22  C   UNL     1      -0.956  11.470  21.325  0.00  0.00    +0.000 A 
ATOM     23  C   UNL     1      -0.157  10.566  20.609  0.00  0.00    +0.000 A 
BRANCH  21  24
ATOM     24  C   UNL     1      -2.065  12.306  23.432  0.00  0.00    +0.000 C 
BRANCH  24  25
ATOM     25  N   UNL     1      -3.532  12.069  23.450  0.00  0.00    +0.000 NA
ATOM     26  C   UNL     1      -4.180  12.785  24.573  0.00  0.00    +0.000 C 
ATOM     27  C   UNL     1      -5.189  13.383  23.577  0.00  0.00    +0.000 C 
ATOM     28  C   UNL     1      -4.184  12.982  22.484  0.00  0.00    +0.000 C 
BRANCH  27  29
ATOM     29  C   UNL     1      -6.615  12.786  23.532  0.00  0.00    +0.000 C 
ATOM     30  O   UNL     1      -7.092  12.154  22.594  0.00  0.00    +0.000 OA
BRANCH  29  31
ATOM     31  O   UNL     1      -7.351  12.995  24.663  0.00  0.00    +0.000 OA
ATOM     32  H   UNL     1      -7.991  12.271  24.826  0.00  0.00    +0.000 HD
ENDBRANCH  29  31
ENDBRANCH  27  29
ENDBRANCH  24  25
ENDBRANCH  21  24
ENDBRANCH  17  18
ENDBRANCH   1  17
TORSDOF 10
ENDMDL
MODEL 2
REMARK VINA RESULT:      -7.5      5.454      8.003
REMARK  Name = 
REMARK  12 active torsions:
REMARK  status: ('A' for Active; 'I' for Inactive)
REMARK    1  A    between atoms: C_1  and  C_2
REMARK    2  A    between atoms: C_2  and  C_3
REMARK    3  A    between atoms: C_2  and  C_4
REMARK    4  A    between atoms: C_4  and  C_5
REMARK    5  A    between atoms: C_8  and  C_9
REMARK    6  A    between atoms: C_11  and  C_12
REMARK    7  A    between atoms: C_12  and  O_13
REMARK    8  A    between atoms: O_13  and  C_14
REMARK    9  A    between atoms: C_17  and  C_18
REMARK   10  A    between atoms: C_18  and  N_19
REMARK   11  A    between atoms: C_21  and  C_22
REMARK   12  A    between atoms: C_22  and  O_24
REMARK                            x       y       z     vdW  Elec       q    Type
REMARK                         _______ _______ _______ _____ _____    ______ ____
ROOT
ATOM      1  C   UNL     1       6.567   5.776  16.531  0.00  0.00    +0.000 C 
ENDROOT
BRANCH   1   4
ATOM      2  C   UNL     1       8.164   8.486  18.130  0.00  0.00    +0.000 A 
ATOM      3  N   UNL     1       7.389   8.062  17.156  0.00  0.00    +0.000 NA
ATOM      4  C   UNL     1       7.300   6.718  17.419  0.00  0.00    +0.000 A 
ATOM      5  N   UNL     1       7.941   6.317  18.528  0.00  0.00    +0.000 NA
ATOM      6  O   UNL     1       8.523   7.494  19.000  0.00  0.00    +0.000 OA
BRANCH   2  10
ATOM      7  C   UNL     1       9.558  12.455  18.893  0.00  0.00    +0.000 A 
ATOM      8  C   UNL     1       8.756  12.176  17.782  0.00  0.00    +0.000 A 
ATOM      9  C   UNL     1       8.308  10.876  17.541  0.00  0.00    +0.000 A 
ATOM     10  C   UNL     1       8.672   9.824  18.392  0.00  0.00    +0.000 A 
ATOM     11  C   UNL     1       9.514  10.099  19.478  0.00  0.00    +0.000 A 
ATOM     12  C   UNL     1       9.952  11.401  19.727  0.00  0.00    +0.000 A 
BRANCH   7  13
ATOM     13  C   UNL     1       9.951  13.879  19.223  0.00  0.00    +0.000 C 
BRANCH  13  15
ATOM     14  C   UNL     1       8.044  15.432  19.886  0.00  0.00    +0.000 C 
ATOM     15  C   UNL     1       8.917  14.918  18.735  0.00  0.00    +0.000 C 
ATOM     16  C   UNL     1       9.616  16.094  18.052  0.00  0.00    +0.000 C 
ENDBRANCH  13  15
ENDBRANCH   7  13
ENDBRANCH   2  10
ENDBRANCH   1   4
BRANCH   1  17
ATOM     17  O   UNL     1       5.516   5.124  17.250  0.00  0.00    +0.000 OA
BRANCH  17  18
ATOM     18  C   UNL     1       4.498   5.905  17.715  0.00  0.00    +0.000 A 
ATOM     19  C   UNL     1       3.980   5.518  18.950  0.00  0.00    +0.000 A 
ATOM     20  C   UNL     1       2.990   6.274  19.582  0.00  0.00    +0.000 A 
ATOM     21  C   UNL     1       2.531   7.465  19.003  0.00  0.00    +0.000 A 
ATOM     22  C   UNL     1       3.017   7.815  17.733  0.00  0.00    +0.000 A 
ATOM     23  C   UNL     1       3.999   7.046  17.091  0.00  0.00    +0.000 A 
BRANCH  21  24
ATOM     24  C   UNL     1       1.508   8.357  19.681  0.00  0.00    +0.000 C 
BRANCH  24  25
ATOM     25  N   UNL     1       1.367   9.724  19.114  0.00  0.00    +0.000 NA
ATOM     26  C   UNL     1       0.197   9.815  18.211  0.00  0.00    +0.000 C 
ATOM     27  C   UNL     1      -0.277  11.055  18.989  0.00  0.00    +0.000 C 
ATOM     28  C   UNL     1       0.680  10.590  20.099  0.00  0.00    +0.000 C 
BRANCH  27  29
ATOM     29  C   UNL     1      -0.057  12.447  18.351  0.00  0.00    +0.000 C 
ATOM     30  O   UNL     1       0.974  13.108  18.426  0.00  0.00    +0.000 OA
BRANCH  29  31
ATOM     31  O   UNL     1      -1.126  12.921  17.646  0.00  0.00    +0.000 OA
ATOM     32  H   UNL     1      -1.905  12.332  17.716  0.00  0.00    +0.000 HD
ENDBRANCH  29  31
ENDBRANCH  27  29
ENDBRANCH  24  25
ENDBRANCH  21  24
ENDBRANCH  17  18
ENDBRANCH   1  17
TORSDOF 10
ENDMDL
MODEL 3
REMARK VINA RESULT:      -7.4      7.571     10.893
REMARK  Name = 
REMARK  12 active torsions:
REMARK  status: ('A' for Active; 'I' for Inactive)
REMARK    1  A    between atoms: C_1  and  C_2
REMARK    2  A    between atoms: C_2  and  C_3
REMARK    3  A    between atoms: C_2  and  C_4
REMARK    4  A    between atoms: C_4  and  C_5
REMARK    5  A    between atoms: C_8  and  C_9
REMARK    6  A    between atoms: C_11  and  C_12
REMARK    7  A    between atoms: C_12  and  O_13
REMARK    8  A    between atoms: O_13  and  C_14
REMARK    9  A    between atoms: C_17  and  C_18
REMARK   10  A    between atoms: C_18  and  N_19
REMARK   11  A    between atoms: C_21  and  C_22
REMARK   12  A    between atoms: C_22  and  O_24
REMARK                            x       y       z     vdW  Elec       q    Type
REMARK                         _______ _______ _______ _____ _____    ______ ____
ROOT
ATOM      1  C   UNL     1       7.866   8.859  17.335  0.00  0.00    +0.000 C 
ENDROOT
BRANCH   1   4
ATOM      2  C   UNL     1       5.963   5.897  17.579  0.00  0.00    +0.000 A 
ATOM      3  N   UNL     1       6.081   7.176  17.859  0.00  0.00    +0.000 NA
ATOM      4  C   UNL     1       7.262   7.503  17.241  0.00  0.00    +0.000 A 
ATOM      5  N   UNL     1       7.839   6.500  16.561  0.00  0.00    +0.000 NA
ATOM      6  O   UNL     1       6.977   5.426  16.790  0.00  0.00    +0.000 OA
BRANCH   2  10
ATOM      7  C   UNL     1       2.946   3.155  18.865  0.00  0.00    +0.000 A 
ATOM      8  C   UNL     1       4.176   3.233  19.526  0.00  0.00    +0.000 A 
ATOM      9  C   UNL     1       5.155   4.131  19.097  0.00  0.00    +0.000 A 
ATOM     10  C   UNL     1       4.934   4.952  17.983  0.00  0.00    +0.000 A 
ATOM     11  C   UNL     1       3.719   4.838  17.294  0.00  0.00    +0.000 A 
ATOM     12  C   UNL     1       2.734   3.950  17.731  0.00  0.00    +0.000 A 
BRANCH   7  13
ATOM     13  C   UNL     1       1.841   2.268  19.394  0.00  0.00    +0.000 C 
BRANCH  13  15
ATOM     14  C   UNL     1       1.698   2.518  21.925  0.00  0.00    +0.000 C 
ATOM     15  C   UNL     1       1.075   2.900  20.578  0.00  0.00    +0.000 C 
ATOM     16  C   UNL     1       1.035   4.423  20.441  0.00  0.00    +0.000 C 
ENDBRANCH  13  15
ENDBRANCH   7  13
ENDBRANCH   2  10
ENDBRANCH   1   4
BRANCH   1  17
ATOM     17  O   UNL     1       8.524   9.030  18.594  0.00  0.00    +0.000 OA
BRANCH  17  18
ATOM     18  C   UNL     1       9.284  10.152  18.756  0.00  0.00    +0.000 A 
ATOM     19  C   UNL     1       9.347  10.633  20.063  0.00  0.00    +0.000 A 
ATOM     20  C   UNL     1      10.154  11.726  20.387  0.00  0.00    +0.000 A 
ATOM     21  C   UNL     1      10.952  12.332  19.407  0.00  0.00    +0.000 A 
ATOM     22  C   UNL     1      10.838  11.876  18.084  0.00  0.00    +0.000 A 
ATOM     23  C   UNL     1      10.014  10.789  17.756  0.00  0.00    +0.000 A 
BRANCH  21  24
ATOM     24  C   UNL     1      11.896  13.478  19.721  0.00  0.00    +0.000 C 
BRANCH  24  25
ATOM     25  N   UNL     1      11.634  14.748  18.995  0.00  0.00    +0.000 NA
ATOM     26  C   UNL     1      10.592  14.570  17.958  0.00  0.00    +0.000 C 
ATOM     27  C   UNL     1       9.844  15.786  18.535  0.00  0.00    +0.000 C 
ATOM     28  C   UNL     1      10.705  15.581  19.794  0.00  0.00    +0.000 C 
BRANCH  27  29
ATOM     29  C   UNL     1       9.941  17.131  17.779  0.00  0.00    +0.000 C 
ATOM     30  O   UNL     1       9.338  18.158  18.076  0.00  0.00    +0.000 OA
BRANCH  29  31
ATOM     31  O   UNL     1      10.794  17.121  16.714  0.00  0.00    +0.000 OA
ATOM     32  H   UNL     1      10.408  16.670  15.935  0.00  0.00    +0.000 HD
ENDBRANCH  29  31
ENDBRANCH  27  29
ENDBRANCH  24  25
ENDBRANCH  21  24
ENDBRANCH  17  18
ENDBRANCH   1  17
TORSDOF 10
ENDMDL
MODEL 4
REMARK VINA RESULT:      -7.4      1.133      1.608
REMARK  Name = 
REMARK  12 active torsions:
REMARK  status: ('A' for Active; 'I' for Inactive)
REMARK    1  A    between atoms: C_1  and  C_2
REMARK    2  A    between atoms: C_2  and  C_3
REMARK    3  A    between atoms: C_2  and  C_4
REMARK    4  A    between atoms: C_4  and  C_5
REMARK    5  A    between atoms: C_8  and  C_9
REMARK    6  A    between atoms: C_11  and  C_12
REMARK    7  A    between atoms: C_12  and  O_13
REMARK    8  A    between atoms: O_13  and  C_14
REMARK    9  A    between atoms: C_17  and  C_18
REMARK   10  A    between atoms: C_18  and  N_19
REMARK   11  A    between atoms: C_21  and  C_22
REMARK   12  A    between atoms: C_22  and  O_24
REMARK                            x       y       z     vdW  Elec       q    Type
REMARK                         _______ _______ _______ _____ _____    ______ ____
ROOT
ATOM      1  C   UNL     1       1.018   7.395  20.809  0.00  0.00    +0.000 C 
ENDROOT
BRANCH   1   4
ATOM      2  C   UNL     1       3.126   6.708  18.064  0.00  0.00    +0.000 A 
ATOM      3  N   UNL     1       2.386   6.247  19.049  0.00  0.00    +0.000 NA
ATOM      4  C   UNL     1       1.879   7.399  19.596  0.00  0.00    +0.000 A 
ATOM      5  N   UNL     1       2.234   8.528  18.964  0.00  0.00    +0.000 NA
ATOM      6  O   UNL     1       3.071   8.070  17.945  0.00  0.00    +0.000 OA
BRANCH   2  10
ATOM      7  C   UNL     1       5.669   4.654  15.310  0.00  0.00    +0.000 A 
ATOM      8  C   UNL     1       5.499   6.040  15.234  0.00  0.00    +0.000 A 
ATOM      9  C   UNL     1       4.665   6.700  16.138  0.00  0.00    +0.000 A 
ATOM     10  C   UNL     1       3.964   5.987  17.120  0.00  0.00    +0.000 A 
ATOM     11  C   UNL     1       4.101   4.592  17.163  0.00  0.00    +0.000 A 
ATOM     12  C   UNL     1       4.946   3.932  16.268  0.00  0.00    +0.000 A 
BRANCH   7  13
ATOM     13  C   UNL     1       6.659   3.948  14.408  0.00  0.00    +0.000 C 
BRANCH  13  15
ATOM     14  C   UNL     1       7.354   3.400  12.020  0.00  0.00    +0.000 C 
ATOM     15  C   UNL     1       6.308   4.080  12.909  0.00  0.00    +0.000 C 
ATOM     16  C   UNL     1       4.926   3.489  12.626  0.00  0.00    +0.000 C 
ENDBRANCH  13  15
ENDBRANCH   7  13
ENDBRANCH   2  10
ENDBRANCH   1   4
BRANCH   1  17
ATOM     17  O   UNL     1       1.321   8.517  21.644  0.00  0.00    +0.000 OA
BRANCH  17  18
ATOM     18  C   UNL     1       0.351   9.467  21.792  0.00  0.00    +0.000 A 
ATOM     19  C   UNL     1      -0.084   9.658  23.103  0.00  0.00    +0.000 A 
ATOM     20  C   UNL     1      -1.015  10.653  23.411  0.00  0.00    +0.000 A 
ATOM     21  C   UNL     1      -1.493  11.510  22.411  0.00  0.00    +0.000 A 
ATOM     22  C   UNL     1      -1.092  11.272  21.086  0.00  0.00    +0.000 A 
ATOM     23  C   UNL     1      -0.171  10.260  20.774  0.00  0.00    +0.000 A 
BRANCH  21  24
ATOM     24  C   UNL     1      -2.452  12.649  22.705  0.00  0.00    +0.000 C 
BRANCH  24  25
ATOM     25  N   UNL     1      -3.882  12.270  22.841  0.00  0.00    +0.000 NA
ATOM     26  C   UNL     1      -4.393  12.572  24.198  0.00  0.00    +0.000 C 
ATOM     27  C   UNL     1      -5.575  13.323  23.560  0.00  0.00    +0.000 C 
ATOM     28  C   UNL     1      -4.726  13.349  22.278  0.00  0.00    +0.000 C 
BRANCH  27  29
ATOM     29  C   UNL     1      -6.954  12.622  23.526  0.00  0.00    +0.000 C 
ATOM     30  O   UNL     1      -7.916  12.914  24.228  0.00  0.00    +0.000 OA
BRANCH  29  31
ATOM     31  O   UNL     1      -7.055  11.618  22.606  0.00  0.00    +0.000 OA
ATOM     32  H   UNL     1      -6.205  11.146  22.480  0.00  0.00    +0.000 HD
ENDBRANCH  29  31
ENDBRANCH  27  29
ENDBRANCH  24  25
ENDBRANCH  21  24
ENDBRANCH  17  18
ENDBRANCH   1  17
TORSDOF 10
ENDMDL
MODEL 5
REMARK VINA RESULT:      -7.3      2.431      2.790
REMARK  Name = 
REMARK  12 active torsions:
REMARK  status: ('A' for Active; 'I' for Inactive)
REMARK    1  A    between atoms: C_1  and  C_2
REMARK    2  A    between atoms: C_2  and  C_3
REMARK    3  A    between atoms: C_2  and  C_4
REMARK    4  A    between atoms: C_4  and  C_5
REMARK    5  A    between atoms: C_8  and  C_9
REMARK    6  A    between atoms: C_11  and  C_12
REMARK    7  A    between atoms: C_12  and  O_13
REMARK    8  A    between atoms: O_13  and  C_14
REMARK    9  A    between atoms: C_17  and  C_18
REMARK   10  A    between atoms: C_18  and  N_19
REMARK   11  A    between atoms: C_21  and  C_22
REMARK   12  A    between atoms: C_22  and  O_24
REMARK                            x       y       z     vdW  Elec       q    Type
REMARK                         _______ _______ _______ _____ _____    ______ ____
ROOT
ATOM      1  C   UNL     1       1.266   7.930  21.044  0.00  0.00    +0.000 C 
ENDROOT
BRANCH   1   4
ATOM      2  C   UNL     1       3.056   6.916  18.177  0.00  0.00    +0.000 A 
ATOM      3  N   UNL     1       2.616   6.625  19.381  0.00  0.00    +0.000 NA
ATOM      4  C   UNL     1       1.909   7.753  19.714  0.00  0.00    +0.000 A 
ATOM      5  N   UNL     1       1.858   8.690  18.755  0.00  0.00    +0.000 NA
ATOM      6  O   UNL     1       2.628   8.137  17.731  0.00  0.00    +0.000 OA
BRANCH   2  10
ATOM      7  C   UNL     1       5.475   4.580  15.538  0.00  0.00    +0.000 A 
ATOM      8  C   UNL     1       4.617   3.968  16.458  0.00  0.00    +0.000 A 
ATOM      9  C   UNL     1       3.833   4.741  17.316  0.00  0.00    +0.000 A 
ATOM     10  C   UNL     1       3.908   6.140  17.290  0.00  0.00    +0.000 A 
ATOM     11  C   UNL     1       4.803   6.748  16.399  0.00  0.00    +0.000 A 
ATOM     12  C   UNL     1       5.578   5.977  15.531  0.00  0.00    +0.000 A 
BRANCH   7  13
ATOM     13  C   UNL     1       6.241   3.752  14.529  0.00  0.00    +0.000 C 
BRANCH  13  15
ATOM     14  C   UNL     1       7.201   4.066  12.191  0.00  0.00    +0.000 C 
ATOM     15  C   UNL     1       5.948   4.161  13.068  0.00  0.00    +0.000 C 
ATOM     16  C   UNL     1       4.837   3.292  12.477  0.00  0.00    +0.000 C 
ENDBRANCH  13  15
ENDBRANCH   7  13
ENDBRANCH   2  10
ENDBRANCH   1   4
BRANCH   1  17
ATOM     17  O   UNL     1       1.530   9.238  21.559  0.00  0.00    +0.000 OA
BRANCH  17  18
ATOM     18  C   UNL     1       0.462  10.072  21.724  0.00  0.00    +0.000 A 
ATOM     19  C   UNL     1      -0.212   9.928  22.936  0.00  0.00    +0.000 A 
ATOM     20  C   UNL     1      -1.274  10.772  23.271  0.00  0.00    +0.000 A 
ATOM     21  C   UNL     1      -1.650  11.812  22.410  0.00  0.00    +0.000 A 
ATOM     22  C   UNL     1      -1.003  11.912  21.168  0.00  0.00    +0.000 A 
ATOM     23  C   UNL     1       0.052  11.053  20.824  0.00  0.00    +0.000 A 
BRANCH  21  24
ATOM     24  C   UNL     1      -2.750  12.798  22.758  0.00  0.00    +0.000 C 
BRANCH  24  25
ATOM     25  N   UNL     1      -2.492  13.664  23.938  0.00  0.00    +0.000 NA
ATOM     26  C   UNL     1      -1.270  14.479  23.750  0.00  0.00    +0.000 C 
ATOM     27  C   UNL     1      -2.078  15.734  24.126  0.00  0.00    +0.000 C 
ATOM     28  C   UNL     1      -3.327  14.883  23.838  0.00  0.00    +0.000 C 
BRANCH  27  29
ATOM     29  C   UNL     1      -1.892  16.328  25.541  0.00  0.00    +0.000 C 
ATOM     30  O   UNL     1      -1.312  15.778  26.472  0.00  0.00    +0.000 OA
BRANCH  29  31
ATOM     31  O   UNL     1      -2.422  17.575  25.705  0.00  0.00    +0.000 OA
ATOM     32  H   UNL     1      -2.053  18.220  25.067  0.00  0.00    +0.000 HD
ENDBRANCH  29  31
ENDBRANCH  27  29
ENDBRANCH  24  25
ENDBRANCH  21  24
ENDBRANCH  17  18
ENDBRANCH   1  17
TORSDOF 10
ENDMDL
MODEL 6
REMARK VINA RESULT:      -7.3      1.942      2.416
REMARK  Name = 
REMARK  12 active torsions:
REMARK  status: ('A' for Active; 'I' for Inactive)
REMARK    1  A    between atoms: C_1  and  C_2
REMARK    2  A    between atoms: C_2  and  C_3
REMARK    3  A    between atoms: C_2  and  C_4
REMARK    4  A    between atoms: C_4  and  C_5
REMARK    5  A    between atoms: C_8  and  C_9
REMARK    6  A    between atoms: C_11  and  C_12
REMARK    7  A    between atoms: C_12  and  O_13
REMARK    8  A    between atoms: O_13  and  C_14
REMARK    9  A    between atoms: C_17  and  C_18
REMARK   10  A    between atoms: C_18  and  N_19
REMARK   11  A    between atoms: C_21  and  C_22
REMARK   12  A    between atoms: C_22  and  O_24
REMARK                            x       y       z     vdW  Elec       q    Type
REMARK                         _______ _______ _______ _____ _____    ______ ____
ROOT
ATOM      1  C   UNL     1       1.668   6.653  20.796  0.00  0.00    +0.000 C 
ENDROOT
BRANCH   1   4
ATOM      2  C   UNL     1       3.652   5.171  18.282  0.00  0.00    +0.000 A 
ATOM      3  N   UNL     1       3.173   6.268  18.826  0.00  0.00    +0.000 NA
ATOM      4  C   UNL     1       2.465   5.777  19.895  0.00  0.00    +0.000 A 
ATOM      5  N   UNL     1       2.531   4.447  20.052  0.00  0.00    +0.000 NA
ATOM      6  O   UNL     1       3.318   4.039  18.974  0.00  0.00    +0.000 OA
BRANCH   2  10
ATOM      7  C   UNL     1       5.964   4.620  14.728  0.00  0.00    +0.000 A 
ATOM      8  C   UNL     1       5.639   3.536  15.550  0.00  0.00    +0.000 A 
ATOM      9  C   UNL     1       4.885   3.728  16.709  0.00  0.00    +0.000 A 
ATOM     10  C   UNL     1       4.460   5.010  17.084  0.00  0.00    +0.000 A 
ATOM     11  C   UNL     1       4.828   6.100  16.283  0.00  0.00    +0.000 A 
ATOM     12  C   UNL     1       5.571   5.908  15.116  0.00  0.00    +0.000 A 
BRANCH   7  13
ATOM     13  C   UNL     1       6.681   4.404  13.414  0.00  0.00    +0.000 C 
BRANCH  13  15
ATOM     14  C   UNL     1       4.778   3.595  11.927  0.00  0.00    +0.000 C 
ATOM     15  C   UNL     1       6.104   3.225  12.599  0.00  0.00    +0.000 C 
ATOM     16  C   UNL     1       7.107   2.759  11.542  0.00  0.00    +0.000 C 
ENDBRANCH  13  15
ENDBRANCH   7  13
ENDBRANCH   2  10
ENDBRANCH   1   4
BRANCH   1  17
ATOM     17  O   UNL     1       1.722   8.012  20.352  0.00  0.00    +0.000 OA
BRANCH  17  18
ATOM     18  C   UNL     1       0.985   8.926  21.047  0.00  0.00    +0.000 A 
ATOM     19  C   UNL     1       0.249   9.808  20.256  0.00  0.00    +0.000 A 
ATOM     20  C   UNL     1      -0.613  10.743  20.834  0.00  0.00    +0.000 A 
ATOM     21  C   UNL     1      -0.786  10.781  22.224  0.00  0.00    +0.000 A 
ATOM     22  C   UNL     1       0.002   9.928  23.014  0.00  0.00    +0.000 A 
ATOM     23  C   UNL     1       0.880   9.001  22.434  0.00  0.00    +0.000 A 
BRANCH  21  24
ATOM     24  C   UNL     1      -1.760  11.730  22.897  0.00  0.00    +0.000 C 
BRANCH  24  25
ATOM     25  N   UNL     1      -2.115  12.948  22.121  0.00  0.00    +0.000 NA
ATOM     26  C   UNL     1      -3.583  13.131  22.048  0.00  0.00    +0.000 C 
ATOM     27  C   UNL     1      -3.402  14.579  22.535  0.00  0.00    +0.000 C 
ATOM     28  C   UNL     1      -2.006  14.134  23.001  0.00  0.00    +0.000 C 
BRANCH  27  29
ATOM     29  C   UNL     1      -3.511  15.720  21.497  0.00  0.00    +0.000 C 
ATOM     30  O   UNL     1      -3.987  16.831  21.709  0.00  0.00    +0.000 OA
BRANCH  29  31
ATOM     31  O   UNL     1      -3.003  15.415  20.267  0.00  0.00    +0.000 OA
ATOM     32  H   UNL     1      -3.409  14.607  19.889  0.00  0.00    +0.000 HD
ENDBRANCH  29  31
ENDBRANCH  27  29
ENDBRANCH  24  25
ENDBRANCH  21  24
ENDBRANCH  17  18
ENDBRANCH   1  17
TORSDOF 10
ENDMDL
MODEL 7
REMARK VINA RESULT:      -7.1      1.173      1.536
REMARK  Name = 
REMARK  12 active torsions:
REMARK  status: ('A' for Active; 'I' for Inactive)
REMARK    1  A    between atoms: C_1  and  C_2
REMARK    2  A    between atoms: C_2  and  C_3
REMARK    3  A    between atoms: C_2  and  C_4
REMARK    4  A    between atoms: C_4  and  C_5
REMARK    5  A    between atoms: C_8  and  C_9
REMARK    6  A    between atoms: C_11  and  C_12
REMARK    7  A    between atoms: C_12  and  O_13
REMARK    8  A    between atoms: O_13  and  C_14
REMARK    9  A    between atoms: C_17  and  C_18
REMARK   10  A    between atoms: C_18  and  N_19
REMARK   11  A    between atoms: C_21  and  C_22
REMARK   12  A    between atoms: C_22  and  O_24
REMARK                            x       y       z     vdW  Elec       q    Type
REMARK                         _______ _______ _______ _____ _____    ______ ____
ROOT
ATOM      1  C   UNL     1       1.350   7.604  20.990  0.00  0.00    +0.000 C 
ENDROOT
BRANCH   1   4
ATOM      2  C   UNL     1       3.263   6.840  18.125  0.00  0.00    +0.000 A 
ATOM      3  N   UNL     1       2.829   6.471  19.310  0.00  0.00    +0.000 NA
ATOM      4  C   UNL     1       2.027   7.526  19.667  0.00  0.00    +0.000 A 
ATOM      5  N   UNL     1       1.916   8.490  18.740  0.00  0.00    +0.000 NA
ATOM      6  O   UNL     1       2.744   8.037  17.713  0.00  0.00    +0.000 OA
BRANCH   2  10
ATOM      7  C   UNL     1       5.905   4.803  15.452  0.00  0.00    +0.000 A 
ATOM      8  C   UNL     1       5.050   4.090  16.299  0.00  0.00    +0.000 A 
ATOM      9  C   UNL     1       4.192   4.766  17.169  0.00  0.00    +0.000 A 
ATOM     10  C   UNL     1       4.189   6.166  17.229  0.00  0.00    +0.000 A 
ATOM     11  C   UNL     1       5.081   6.875  16.412  0.00  0.00    +0.000 A 
ATOM     12  C   UNL     1       5.930   6.201  15.532  0.00  0.00    +0.000 A 
BRANCH   7  13
ATOM     13  C   UNL     1       6.753   4.081  14.427  0.00  0.00    +0.000 C 
BRANCH  13  15
ATOM     14  C   UNL     1       4.723   4.332  12.909  0.00  0.00    +0.000 C 
ATOM     15  C   UNL     1       5.917   3.451  13.290  0.00  0.00    +0.000 C 
ATOM     16  C   UNL     1       6.788   3.200  12.058  0.00  0.00    +0.000 C 
ENDBRANCH  13  15
ENDBRANCH   7  13
ENDBRANCH   2  10
ENDBRANCH   1   4
BRANCH   1  17
ATOM     17  O   UNL     1       1.737   8.794  21.683  0.00  0.00    +0.000 OA
BRANCH  17  18
ATOM     18  C   UNL     1       0.776   9.744  21.880  0.00  0.00    +0.000 A 
ATOM     19  C   UNL     1      -0.119   9.465  22.912  0.00  0.00    +0.000 A 
ATOM     20  C   UNL     1      -1.104  10.387  23.276  0.00  0.00    +0.000 A 
ATOM     21  C   UNL     1      -1.178  11.632  22.637  0.00  0.00    +0.000 A 
ATOM     22  C   UNL     1      -0.309  11.879  21.563  0.00  0.00    +0.000 A 
ATOM     23  C   UNL     1       0.669  10.946  21.186  0.00  0.00    +0.000 A 
BRANCH  21  24
ATOM     24  C   UNL     1      -2.184  12.694  23.041  0.00  0.00    +0.000 C 
BRANCH  24  25
ATOM     25  N   UNL     1      -3.593  12.237  23.163  0.00  0.00    +0.000 NA
ATOM     26  C   UNL     1      -4.361  13.099  24.089  0.00  0.00    +0.000 C 
ATOM     27  C   UNL     1      -5.444  13.256  23.006  0.00  0.00    +0.000 C 
ATOM     28  C   UNL     1      -4.374  12.759  22.019  0.00  0.00    +0.000 C 
BRANCH  27  29
ATOM     29  C   UNL     1      -6.752  12.445  23.156  0.00  0.00    +0.000 C 
ATOM     30  O   UNL     1      -7.468  12.430  24.152  0.00  0.00    +0.000 OA
BRANCH  29  31
ATOM     31  O   UNL     1      -7.098  11.721  22.052  0.00  0.00    +0.000 OA
ATOM     32  H   UNL     1      -7.278  12.293  21.277  0.00  0.00    +0.000 HD
ENDBRANCH  29  31
ENDBRANCH  27  29
ENDBRANCH  24  25
ENDBRANCH  21  24
ENDBRANCH  17  18
ENDBRANCH   1  17
TORSDOF 10
ENDMDL
MODEL 8
REMARK VINA RESULT:      -7.1      2.674      3.035
REMARK  Name = 
REMARK  12 active torsions:
REMARK  status: ('A' for Active; 'I' for Inactive)
REMARK    1  A    between atoms: C_1  and  C_2
REMARK    2  A    between atoms: C_2  and  C_3
REMARK    3  A    between atoms: C_2  and  C_4
REMARK    4  A    between atoms: C_4  and  C_5
REMARK    5  A    between atoms: C_8  and  C_9
REMARK    6  A    between atoms: C_11  and  C_12
REMARK    7  A    between atoms: C_12  and  O_13
REMARK    8  A    between atoms: O_13  and  C_14
REMARK    9  A    between atoms: C_17  and  C_18
REMARK   10  A    between atoms: C_18  and  N_19
REMARK   11  A    between atoms: C_21  and  C_22
REMARK   12  A    between atoms: C_22  and  O_24
REMARK                            x       y       z     vdW  Elec       q    Type
REMARK                         _______ _______ _______ _____ _____    ______ ____
ROOT
ATOM      1  C   UNL     1       1.184   9.253  19.444  0.00  0.00    +0.000 C 
ENDROOT
BRANCH   1   4
ATOM      2  C   UNL     1       3.251   6.726  18.103  0.00  0.00    +0.000 A 
ATOM      3  N   UNL     1       2.727   7.926  17.978  0.00  0.00    +0.000 NA
ATOM      4  C   UNL     1       2.022   8.060  19.148  0.00  0.00    +0.000 A 
ATOM      5  N   UNL     1       2.132   7.024  19.994  0.00  0.00    +0.000 NA
ATOM      6  O   UNL     1       2.946   6.131  19.296  0.00  0.00    +0.000 OA
BRANCH   2  10
ATOM      7  C   UNL     1       5.605   4.466  15.342  0.00  0.00    +0.000 A 
ATOM      8  C   UNL     1       4.821   3.828  16.309  0.00  0.00    +0.000 A 
ATOM      9  C   UNL     1       4.057   4.576  17.206  0.00  0.00    +0.000 A 
ATOM     10  C   UNL     1       4.080   5.977  17.173  0.00  0.00    +0.000 A 
ATOM     11  C   UNL     1       4.904   6.613  16.233  0.00  0.00    +0.000 A 
ATOM     12  C   UNL     1       5.658   5.865  15.327  0.00  0.00    +0.000 A 
BRANCH   7  13
ATOM     13  C   UNL     1       6.344   3.662  14.295  0.00  0.00    +0.000 C 
BRANCH  13  15
ATOM     14  C   UNL     1       7.207   3.864  11.907  0.00  0.00    +0.000 C 
ATOM     15  C   UNL     1       6.028   4.115  12.852  0.00  0.00    +0.000 C 
ATOM     16  C   UNL     1       4.783   3.401  12.325  0.00  0.00    +0.000 C 
ENDBRANCH  13  15
ENDBRANCH   7  13
ENDBRANCH   2  10
ENDBRANCH   1   4
BRANCH   1  17
ATOM     17  O   UNL     1       0.629   9.162  20.760  0.00  0.00    +0.000 OA
BRANCH  17  18
ATOM     18  C   UNL     1      -0.194  10.174  21.162  0.00  0.00    +0.000 A 
ATOM     19  C   UNL     1      -0.416  10.235  22.537  0.00  0.00    +0.000 A 
ATOM     20  C   UNL     1      -1.172  11.268  23.097  0.00  0.00    +0.000 A 
ATOM     21  C   UNL     1      -1.684  12.290  22.286  0.00  0.00    +0.000 A 
ATOM     22  C   UNL     1      -1.502  12.188  20.897  0.00  0.00    +0.000 A 
ATOM     23  C   UNL     1      -0.757  11.141  20.334  0.00  0.00    +0.000 A 
BRANCH  21  24
ATOM     24  C   UNL     1      -2.453  13.470  22.852  0.00  0.00    +0.000 C 
BRANCH  24  25
ATOM     25  N   UNL     1      -1.749  14.257  23.898  0.00  0.00    +0.000 NA
ATOM     26  C   UNL     1      -1.625  15.680  23.508  0.00  0.00    +0.000 C 
ATOM     27  C   UNL     1      -2.219  16.080  24.870  0.00  0.00    +0.000 C 
ATOM     28  C   UNL     1      -2.714  14.626  24.959  0.00  0.00    +0.000 C 
BRANCH  27  29
ATOM     29  C   UNL     1      -1.259  16.607  25.962  0.00  0.00    +0.000 C 
ATOM     30  O   UNL     1      -1.290  17.731  26.453  0.00  0.00    +0.000 OA
BRANCH  29  31
ATOM     31  O   UNL     1      -0.334  15.698  26.389  0.00  0.00    +0.000 OA
ATOM     32  H   UNL     1       0.291  15.446  25.678  0.00  0.00    +0.000 HD
ENDBRANCH  29  31
ENDBRANCH  27  29
ENDBRANCH  24  25
ENDBRANCH  21  24
ENDBRANCH  17  18
ENDBRANCH   1  17
TORSDOF 10
ENDMDL
MODEL 9
REMARK VINA RESULT:      -7.1      1.239      1.724
REMARK  Name = 
REMARK  12 active torsions:
REMARK  status: ('A' for Active; 'I' for Inactive)
REMARK    1  A    between atoms: C_1  and  C_2
REMARK    2  A    between atoms: C_2  and  C_3
REMARK    3  A    between atoms: C_2  and  C_4
REMARK    4  A    between atoms: C_4  and  C_5
REMARK    5  A    between atoms: C_8  and  C_9
REMARK    6  A    between atoms: C_11  and  C_12
REMARK    7  A    between atoms: C_12  and  O_13
REMARK    8  A    between atoms: O_13  and  C_14
REMARK    9  A    between atoms: C_17  and  C_18
REMARK   10  A    between atoms: C_18  and  N_19
REMARK   11  A    between atoms: C_21  and  C_22
REMARK   12  A    between atoms: C_22  and  O_24
REMARK                            x       y       z     vdW  Elec       q    Type
REMARK                         _______ _______ _______ _____ _____    ______ ____
ROOT
ATOM      1  C   UNL     1       1.441   6.263  20.408  0.00  0.00    +0.000 C 
ENDROOT
BRANCH   1   4
ATOM      2  C   UNL     1       3.958   5.298  18.130  0.00  0.00    +0.000 A 
ATOM      3  N   UNL     1       2.824   5.929  18.342  0.00  0.00    +0.000 NA
ATOM      4  C   UNL     1       2.649   5.768  19.694  0.00  0.00    +0.000 A 
ATOM      5  N   UNL     1       3.642   5.115  20.317  0.00  0.00    +0.000 NA
ATOM      6  O   UNL     1       4.514   4.795  19.275  0.00  0.00    +0.000 OA
BRANCH   2  10
ATOM      7  C   UNL     1       5.989   4.558  14.442  0.00  0.00    +0.000 A 
ATOM      8  C   UNL     1       5.686   3.511  15.318  0.00  0.00    +0.000 A 
ATOM      9  C   UNL     1       5.024   3.764  16.520  0.00  0.00    +0.000 A 
ATOM     10  C   UNL     1       4.673   5.072  16.884  0.00  0.00    +0.000 A 
ATOM     11  C   UNL     1       5.020   6.124  16.025  0.00  0.00    +0.000 A 
ATOM     12  C   UNL     1       5.671   5.870  14.816  0.00  0.00    +0.000 A 
BRANCH   7  13
ATOM     13  C   UNL     1       6.602   4.278  13.088  0.00  0.00    +0.000 C 
BRANCH  13  15
ATOM     14  C   UNL     1       4.660   3.334  11.738  0.00  0.00    +0.000 C 
ATOM     15  C   UNL     1       6.005   3.028  12.403  0.00  0.00    +0.000 C 
ATOM     16  C   UNL     1       6.978   2.466  11.365  0.00  0.00    +0.000 C 
ENDBRANCH  13  15
ENDBRANCH   7  13
ENDBRANCH   2  10
ENDBRANCH   1   4
BRANCH   1  17
ATOM     17  O   UNL     1       1.775   7.366  21.255  0.00  0.00    +0.000 OA
BRANCH  17  18
ATOM     18  C   UNL     1       1.003   8.488  21.154  0.00  0.00    +0.000 A 
ATOM     19  C   UNL     1       0.494   8.958  22.363  0.00  0.00    +0.000 A 
ATOM     20  C   UNL     1      -0.245  10.143  22.418  0.00  0.00    +0.000 A 
ATOM     21  C   UNL     1      -0.448  10.904  21.260  0.00  0.00    +0.000 A 
ATOM     22  C   UNL     1       0.019  10.392  20.039  0.00  0.00    +0.000 A 
ATOM     23  C   UNL     1       0.746   9.194  19.981  0.00  0.00    +0.000 A 
BRANCH  21  24
ATOM     24  C   UNL     1      -1.184  12.231  21.278  0.00  0.00    +0.000 C 
BRANCH  24  25
ATOM     25  N   UNL     1      -2.640  12.158  21.567  0.00  0.00    +0.000 NA
ATOM     26  C   UNL     1      -2.921  12.439  22.994  0.00  0.00    +0.000 C 
ATOM     27  C   UNL     1      -3.967  13.480  22.558  0.00  0.00    +0.000 C 
ATOM     28  C   UNL     1      -3.277  13.439  21.184  0.00  0.00    +0.000 C 
BRANCH  27  29
ATOM     29  C   UNL     1      -5.463  13.098  22.651  0.00  0.00    +0.000 C 
ATOM     30  O   UNL     1      -6.302  13.675  23.335  0.00  0.00    +0.000 OA
BRANCH  29  31
ATOM     31  O   UNL     1      -5.825  12.036  21.874  0.00  0.00    +0.000 OA
ATOM     32  H   UNL     1      -5.809  11.192  22.370  0.00  0.00    +0.000 HD
ENDBRANCH  29  31
ENDBRANCH  27  29
ENDBRANCH  24  25
ENDBRANCH  21  24
ENDBRANCH  17  18
ENDBRANCH   1  17
TORSDOF 10
ENDMDL
