MODEL 1
REMARK VINA RESULT:      -7.3      0.000      0.000
REMARK  Name = 
REMARK  5 active torsions:
REMARK  status: ('A' for Active; 'I' for Inactive)
REMARK    1  A    between atoms: C_1  and  C_2
REMARK    2  A    between atoms: C_2  and  N_3
REMARK    3  A    between atoms: C_4  and  C_6
REMARK    4  A    between atoms: C_11  and  C_13
REMARK    5  A    between atoms: C_17  and  C_18
REMARK                            x       y       z     vdW  Elec       q    Type
REMARK                         _______ _______ _______ _____ _____    ______ ____
ROOT
ATOM      1  C   UNL     1      -1.516  10.151  18.550  0.00  0.00    +0.000 C 
ATOM      2  C   UNL     1      -1.650  11.155  19.700  0.00  0.00    +0.000 C 
ATOM      3  C   UNL     1      -0.696  10.909  20.877  0.00  0.00    +0.000 C 
ATOM      4  C   UNL     1       0.790  10.807  20.512  0.00  0.00    +0.000 C 
ATOM      5  N   UNL     1       1.113   9.537  19.855  0.00  0.00    +0.000 N 
ATOM      6  C   UNL     1       1.588   8.484  20.663  0.00  0.00    +0.000 C 
ATOM      7  O   UNL     1       1.690   8.597  21.885  0.00  0.00    +0.000 OA
ATOM      8  C   UNL     1       0.902   9.448  18.412  0.00  0.00    +0.000 C 
ATOM      9  C   UNL     1      -0.183  10.328  17.817  0.00  0.00    +0.000 C 
ENDROOT
BRANCH   6  10
ATOM     10  C   UNL     1       1.924   7.142  20.086  0.00  0.00    +0.000 A 
ATOM     11  C   UNL     1       2.467   6.951  18.810  0.00  0.00    +0.000 A 
ATOM     12  C   UNL     1       2.623   5.668  18.282  0.00  0.00    +0.000 A 
ATOM     13  C   UNL     1       2.339   4.555  19.068  0.00  0.00    +0.000 A 
ATOM     14  C   UNL     1       1.908   4.724  20.387  0.00  0.00    +0.000 A 
ATOM     15  C   UNL     1       1.691   6.014  20.890  0.00  0.00    +0.000 A 
BRANCH  14  16
ATOM     16  C   UNL     1       1.688   3.577  21.215  0.00  0.00    +0.000 C 
ATOM     17  N   UNL     1       1.514   2.634  21.873  0.00  0.00    +0.000 NA
ENDBRANCH  14  16
ENDBRANCH   6  10
BRANCH   1  19
ATOM     18  N   UNL     1      -2.232  10.640  16.277  0.00  0.00    +0.000 N 
ATOM     19  C   UNL     1      -2.652  10.317  17.548  0.00  0.00    +0.000 C 
ATOM     20  O   UNL     1      -3.834  10.189  17.853  0.00  0.00    +0.000 OA
ATOM     21  H   UNL     1      -1.246  10.616  16.053  0.00  0.00    +0.000 HD
BRANCH  18  23
ATOM     22  C   UNL     1      -3.091   9.934  14.092  0.00  0.00    +0.000 C 
ATOM     23  C   UNL     1      -3.178  10.939  15.224  0.00  0.00    +0.000 C 
ENDBRANCH  18  23
ENDBRANCH   1  19
TORSDOF 4
ENDMDL
MODEL 2
REMARK VINA RESULT:      -7.1      2.271      3.080
REMARK  Name = 
REMARK  5 active torsions:
REMARK  status: ('A' for Active; 'I' for Inactive)
REMARK    1  A    between atoms: C_1  and  C_2
REMARK    2  A    between atoms: C_2  and  N_3
REMARK    3  A    between atoms: C_4  and  C_6
REMARK    4  A    between atoms: C_11  and  C_13
REMARK    5  A    between atoms: C_17  and  C_18
REMARK                            x       y       z     vdW  Elec       q    Type
REMARK                         _______ _______ _______ _____ _____    ______ ____
ROOT
ATOM      1  C   UNL     1      -0.282   9.696  18.915  0.00  0.00    +0.000 C 
ATOM      2  C   UNL     1      -0.681   9.858  20.385  0.00  0.00    +0.000 C 
ATOM      3  C   UNL     1      -0.099   8.793  21.326  0.00  0.00    +0.000 C 
ATOM      4  C   UNL     1       1.423   8.622  21.267  0.00  0.00    +0.000 C 
ATOM      5  N   UNL     1       1.856   7.928  20.051  0.00  0.00    +0.000 N 
ATOM      6  C   UNL     1       2.042   6.533  20.124  0.00  0.00    +0.000 C 
ATOM      7  O   UNL     1       1.811   5.899  21.154  0.00  0.00    +0.000 OA
ATOM      8  C   UNL     1       2.046   8.730  18.844  0.00  0.00    +0.000 C 
ATOM      9  C   UNL     1       1.208   9.989  18.713  0.00  0.00    +0.000 C 
ENDROOT
BRANCH   6  10
ATOM     10  C   UNL     1       2.463   5.733  18.928  0.00  0.00    +0.000 A 
ATOM     11  C   UNL     1       1.741   4.647  18.419  0.00  0.00    +0.000 A 
ATOM     12  C   UNL     1       2.261   3.859  17.390  0.00  0.00    +0.000 A 
ATOM     13  C   UNL     1       3.462   4.214  16.784  0.00  0.00    +0.000 A 
ATOM     14  C   UNL     1       4.140   5.365  17.200  0.00  0.00    +0.000 A 
ATOM     15  C   UNL     1       3.647   6.115  18.276  0.00  0.00    +0.000 A 
BRANCH  14  16
ATOM     16  C   UNL     1       5.337   5.767  16.526  0.00  0.00    +0.000 C 
ATOM     17  N   UNL     1       6.311   6.110  15.990  0.00  0.00    +0.000 NA
ENDBRANCH  14  16
ENDBRANCH   6  10
BRANCH   1  19
ATOM     18  N   UNL     1      -1.858   9.986  17.084  0.00  0.00    +0.000 N 
ATOM     19  C   UNL     1      -1.091  10.634  18.026  0.00  0.00    +0.000 C 
ATOM     20  O   UNL     1      -1.049  11.855  18.132  0.00  0.00    +0.000 OA
ATOM     21  H   UNL     1      -1.949   8.979  17.117  0.00  0.00    +0.000 HD
BRANCH  18  23
ATOM     22  C   UNL     1      -2.856   9.885  14.847  0.00  0.00    +0.000 C 
ATOM     23  C   UNL     1      -2.608  10.720  16.088  0.00  0.00    +0.000 C 
ENDBRANCH  18  23
ENDBRANCH   1  19
TORSDOF 4
ENDMDL
MODEL 3
REMARK VINA RESULT:      -7.0      5.924      7.666
REMARK  Name = 
REMARK  5 active torsions:
REMARK  status: ('A' for Active; 'I' for Inactive)
REMARK    1  A    between atoms: C_1  and  C_2
REMARK    2  A    between atoms: C_2  and  N_3
REMARK    3  A    between atoms: C_4  and  C_6
REMARK    4  A    between atoms: C_11  and  C_13
REMARK    5  A    between atoms: C_17  and  C_18
REMARK                            x       y       z     vdW  Elec       q    Type
REMARK                         _______ _______ _______ _____ _____    ______ ____
ROOT
ATOM      1  C   UNL     1       6.295   5.188  15.465  0.00  0.00    +0.000 C 
ATOM      2  C   UNL     1       7.047   6.464  15.858  0.00  0.00    +0.000 C 
ATOM      3  C   UNL     1       6.590   7.092  17.182  0.00  0.00    +0.000 C 
ATOM      4  C   UNL     1       6.591   6.151  18.394  0.00  0.00    +0.000 C 
ATOM      5  N   UNL     1       5.483   5.192  18.351  0.00  0.00    +0.000 N 
ATOM      6  C   UNL     1       4.300   5.526  19.039  0.00  0.00    +0.000 C 
ATOM      7  O   UNL     1       4.169   6.603  19.623  0.00  0.00    +0.000 OA
ATOM      8  C   UNL     1       5.680   3.965  17.582  0.00  0.00    +0.000 C 
ATOM      9  C   UNL     1       6.640   4.032  16.408  0.00  0.00    +0.000 C 
ENDROOT
BRANCH   6  10
ATOM     10  C   UNL     1       3.107   4.620  19.036  0.00  0.00    +0.000 A 
ATOM     11  C   UNL     1       2.348   4.327  17.896  0.00  0.00    +0.000 A 
ATOM     12  C   UNL     1       1.166   3.588  17.991  0.00  0.00    +0.000 A 
ATOM     13  C   UNL     1       0.787   3.041  19.212  0.00  0.00    +0.000 A 
ATOM     14  C   UNL     1       1.595   3.222  20.340  0.00  0.00    +0.000 A 
ATOM     15  C   UNL     1       2.745   4.018  20.253  0.00  0.00    +0.000 A 
BRANCH  14  16
ATOM     16  C   UNL     1       1.240   2.596  21.577  0.00  0.00    +0.000 C 
ATOM     17  N   UNL     1       0.958   2.104  22.592  0.00  0.00    +0.000 NA
ENDBRANCH  14  16
ENDBRANCH   6  10
BRANCH   1  19
ATOM     18  N   UNL     1       5.781   3.833  13.511  0.00  0.00    +0.000 N 
ATOM     19  C   UNL     1       6.636   4.775  14.037  0.00  0.00    +0.000 C 
ATOM     20  O   UNL     1       7.594   5.231  13.422  0.00  0.00    +0.000 OA
ATOM     21  H   UNL     1       4.941   3.580  14.014  0.00  0.00    +0.000 HD
BRANCH  18  23
ATOM     22  C   UNL     1       4.725   3.086  11.428  0.00  0.00    +0.000 C 
ATOM     23  C   UNL     1       6.015   3.248  12.208  0.00  0.00    +0.000 C 
ENDBRANCH  18  23
ENDBRANCH   1  19
TORSDOF 4
ENDMDL
MODEL 4
REMARK VINA RESULT:      -6.9      6.102      7.981
REMARK  Name = 
REMARK  5 active torsions:
REMARK  status: ('A' for Active; 'I' for Inactive)
REMARK    1  A    between atoms: C_1  and  C_2
REMARK    2  A    between atoms: C_2  and  N_3
REMARK    3  A    between atoms: C_4  and  C_6
REMARK    4  A    between atoms: C_11  and  C_13
REMARK    5  A    between atoms: C_17  and  C_18
REMARK                            x       y       z     vdW  Elec       q    Type
REMARK                         _______ _______ _______ _____ _____    ______ ____
ROOT
ATOM      1  C   UNL     1       6.020   4.389  14.543  0.00  0.00    +0.000 C 
ATOM      2  C   UNL     1       7.119   5.421  14.816  0.00  0.00    +0.000 C 
ATOM      3  C   UNL     1       7.052   6.074  16.203  0.00  0.00    +0.000 C 
ATOM      4  C   UNL     1       7.012   5.103  17.389  0.00  0.00    +0.000 C 
ATOM      5  N   UNL     1       5.708   4.447  17.525  0.00  0.00    +0.000 N 
ATOM      6  C   UNL     1       4.772   5.026  18.404  0.00  0.00    +0.000 C 
ATOM      7  O   UNL     1       5.009   6.071  19.011  0.00  0.00    +0.000 OA
ATOM      8  C   UNL     1       5.466   3.249  16.723  0.00  0.00    +0.000 C 
ATOM      9  C   UNL     1       6.212   3.138  15.405  0.00  0.00    +0.000 C 
ENDROOT
BRANCH   6  10
ATOM     10  C   UNL     1       3.405   4.440  18.593  0.00  0.00    +0.000 A 
ATOM     11  C   UNL     1       2.416   4.422  17.602  0.00  0.00    +0.000 A 
ATOM     12  C   UNL     1       1.120   3.989  17.889  0.00  0.00    +0.000 A 
ATOM     13  C   UNL     1       0.826   3.466  19.145  0.00  0.00    +0.000 A 
ATOM     14  C   UNL     1       1.832   3.364  20.112  0.00  0.00    +0.000 A 
ATOM     15  C   UNL     1       3.114   3.860  19.839  0.00  0.00    +0.000 A 
BRANCH  14  16
ATOM     16  C   UNL     1       1.544   2.758  21.376  0.00  0.00    +0.000 C 
ATOM     17  N   UNL     1       1.308   2.284  22.411  0.00  0.00    +0.000 NA
ENDBRANCH  14  16
ENDBRANCH   6  10
BRANCH   1  19
ATOM     18  N   UNL     1       4.802   3.490  12.638  0.00  0.00    +0.000 N 
ATOM     19  C   UNL     1       6.013   3.977  13.075  0.00  0.00    +0.000 C 
ATOM     20  O   UNL     1       7.003   4.059  12.355  0.00  0.00    +0.000 OA
ATOM     21  H   UNL     1       3.989   3.556  13.236  0.00  0.00    +0.000 HD
BRANCH  18  23
ATOM     22  C   UNL     1       3.365   3.446  10.652  0.00  0.00    +0.000 C 
ATOM     23  C   UNL     1       4.642   2.954  11.304  0.00  0.00    +0.000 C 
ENDBRANCH  18  23
ENDBRANCH   1  19
TORSDOF 4
ENDMDL
MODEL 5
REMARK VINA RESULT:      -6.9      1.107      1.304
REMARK  Name = 
REMARK  5 active torsions:
REMARK  status: ('A' for Active; 'I' for Inactive)
REMARK    1  A    between atoms: C_1  and  C_2
REMARK    2  A    between atoms: C_2  and  N_3
REMARK    3  A    between atoms: C_4  and  C_6
REMARK    4  A    between atoms: C_11  and  C_13
REMARK    5  A    between atoms: C_17  and  C_18
REMARK                            x       y       z     vdW  Elec       q    Type
REMARK                         _______ _______ _______ _____ _____    ______ ____
ROOT
ATOM      1  C   UNL     1      -1.372  10.212  18.369  0.00  0.00    +0.000 C 
ATOM      2  C   UNL     1      -1.599  11.187  19.529  0.00  0.00    +0.000 C 
ATOM      3  C   UNL     1      -0.755  10.899  20.779  0.00  0.00    +0.000 C 
ATOM      4  C   UNL     1       0.756  10.789  20.545  0.00  0.00    +0.000 C 
ATOM      5  N   UNL     1       1.125   9.533  19.885  0.00  0.00    +0.000 N 
ATOM      6  C   UNL     1       1.516   8.454  20.702  0.00  0.00    +0.000 C 
ATOM      7  O   UNL     1       1.511   8.534  21.931  0.00  0.00    +0.000 OA
ATOM      8  C   UNL     1       1.042   9.485  18.427  0.00  0.00    +0.000 C 
ATOM      9  C   UNL     1       0.023  10.393  17.762  0.00  0.00    +0.000 C 
ENDROOT
BRANCH   6  10
ATOM     10  C   UNL     1       1.890   7.124  20.121  0.00  0.00    +0.000 A 
ATOM     11  C   UNL     1       2.461   6.955  18.855  0.00  0.00    +0.000 A 
ATOM     12  C   UNL     1       2.653   5.680  18.319  0.00  0.00    +0.000 A 
ATOM     13  C   UNL     1       2.376   4.555  19.089  0.00  0.00    +0.000 A 
ATOM     14  C   UNL     1       1.916   4.703  20.402  0.00  0.00    +0.000 A 
ATOM     15  C   UNL     1       1.664   5.984  20.911  0.00  0.00    +0.000 A 
BRANCH  14  16
ATOM     16  C   UNL     1       1.702   3.546  21.216  0.00  0.00    +0.000 C 
ATOM     17  N   UNL     1       1.524   2.617  21.892  0.00  0.00    +0.000 NA
ENDBRANCH  14  16
ENDBRANCH   6  10
BRANCH   1  19
ATOM     18  N   UNL     1      -3.468  11.218  17.653  0.00  0.00    +0.000 N 
ATOM     19  C   UNL     1      -2.413  10.418  17.275  0.00  0.00    +0.000 C 
ATOM     20  O   UNL     1      -2.324   9.904  16.165  0.00  0.00    +0.000 OA
ATOM     21  H   UNL     1      -3.433  11.711  18.535  0.00  0.00    +0.000 HD
BRANCH  18  23
ATOM     22  C   UNL     1      -5.684  12.248  17.458  0.00  0.00    +0.000 C 
ATOM     23  C   UNL     1      -4.600  11.435  16.778  0.00  0.00    +0.000 C 
ENDBRANCH  18  23
ENDBRANCH   1  19
TORSDOF 4
ENDMDL
MODEL 6
REMARK VINA RESULT:      -6.8      1.490      2.043
REMARK  Name = 
REMARK  5 active torsions:
REMARK  status: ('A' for Active; 'I' for Inactive)
REMARK    1  A    between atoms: C_1  and  C_2
REMARK    2  A    between atoms: C_2  and  N_3
REMARK    3  A    between atoms: C_4  and  C_6
REMARK    4  A    between atoms: C_11  and  C_13
REMARK    5  A    between atoms: C_17  and  C_18
REMARK                            x       y       z     vdW  Elec       q    Type
REMARK                         _______ _______ _______ _____ _____    ______ ____
ROOT
ATOM      1  C   UNL     1      -1.510  10.129  18.582  0.00  0.00    +0.000 C 
ATOM      2  C   UNL     1      -1.628  11.191  19.680  0.00  0.00    +0.000 C 
ATOM      3  C   UNL     1      -0.687  10.982  20.875  0.00  0.00    +0.000 C 
ATOM      4  C   UNL     1       0.798  10.828  20.526  0.00  0.00    +0.000 C 
ATOM      5  N   UNL     1       1.096   9.521  19.934  0.00  0.00    +0.000 N 
ATOM      6  C   UNL     1       1.542   8.499  20.795  0.00  0.00    +0.000 C 
ATOM      7  O   UNL     1       1.640   8.669  22.011  0.00  0.00    +0.000 OA
ATOM      8  C   UNL     1       0.892   9.366  18.495  0.00  0.00    +0.000 C 
ATOM      9  C   UNL     1      -0.169  10.240  17.850  0.00  0.00    +0.000 C 
ENDROOT
BRANCH   6  10
ATOM     10  C   UNL     1       1.850   7.123  20.287  0.00  0.00    +0.000 A 
ATOM     11  C   UNL     1       1.317   5.948  20.831  0.00  0.00    +0.000 A 
ATOM     12  C   UNL     1       1.756   4.694  20.401  0.00  0.00    +0.000 A 
ATOM     13  C   UNL     1       2.656   4.600  19.345  0.00  0.00    +0.000 A 
ATOM     14  C   UNL     1       3.111   5.760  18.709  0.00  0.00    +0.000 A 
ATOM     15  C   UNL     1       2.717   7.017  19.186  0.00  0.00    +0.000 A 
BRANCH  14  16
ATOM     16  C   UNL     1       3.979   5.656  17.576  0.00  0.00    +0.000 C 
ATOM     17  N   UNL     1       4.688   5.552  16.660  0.00  0.00    +0.000 NA
ENDBRANCH  14  16
ENDBRANCH   6  10
BRANCH   1  19
ATOM     18  N   UNL     1      -2.218  10.709  16.328  0.00  0.00    +0.000 N 
ATOM     19  C   UNL     1      -2.637  10.272  17.564  0.00  0.00    +0.000 C 
ATOM     20  O   UNL     1      -3.810  10.032  17.831  0.00  0.00    +0.000 OA
ATOM     21  H   UNL     1      -1.230  10.776  16.127  0.00  0.00    +0.000 HD
BRANCH  18  23
ATOM     22  C   UNL     1      -3.147   9.936  14.194  0.00  0.00    +0.000 C 
ATOM     23  C   UNL     1      -3.165  11.002  15.273  0.00  0.00    +0.000 C 
ENDBRANCH  18  23
ENDBRANCH   1  19
TORSDOF 4
ENDMDL
MODEL 7
REMARK VINA RESULT:      -6.7      1.243      1.359
REMARK  Name = 
REMARK  5 active torsions:
REMARK  status: ('A' for Active; 'I' for Inactive)
REMARK    1  A    between atoms: C_1  and  C_2
REMARK    2  A    between atoms: C_2  and  N_3
REMARK    3  A    between atoms: C_4  and  C_6
REMARK    4  A    between atoms: C_11  and  C_13
REMARK    5  A    between atoms: C_17  and  C_18
REMARK                            x       y       z     vdW  Elec       q    Type
REMARK                         _______ _______ _______ _____ _____    ______ ____
ROOT
ATOM      1  C   UNL     1      -1.269   9.639  18.385  0.00  0.00    +0.000 C 
ATOM      2  C   UNL     1      -1.433  10.371  19.720  0.00  0.00    +0.000 C 
ATOM      3  C   UNL     1      -0.428   9.956  20.804  0.00  0.00    +0.000 C 
ATOM      4  C   UNL     1       1.049  10.036  20.400  0.00  0.00    +0.000 C 
ATOM      5  N   UNL     1       1.434   8.955  19.488  0.00  0.00    +0.000 N 
ATOM      6  C   UNL     1       2.001   7.794  20.050  0.00  0.00    +0.000 C 
ATOM      7  O   UNL     1       2.134   7.659  21.267  0.00  0.00    +0.000 OA
ATOM      8  C   UNL     1       1.184   9.152  18.062  0.00  0.00    +0.000 C 
ATOM      9  C   UNL     1       0.026  10.057  17.682  0.00  0.00    +0.000 C 
ENDROOT
BRANCH   6  10
ATOM     10  C   UNL     1       2.406   6.628  19.201  0.00  0.00    +0.000 A 
ATOM     11  C   UNL     1       3.523   6.622  18.358  0.00  0.00    +0.000 A 
ATOM     12  C   UNL     1       3.762   5.555  17.489  0.00  0.00    +0.000 A 
ATOM     13  C   UNL     1       2.943   4.430  17.532  0.00  0.00    +0.000 A 
ATOM     14  C   UNL     1       1.891   4.366  18.451  0.00  0.00    +0.000 A 
ATOM     15  C   UNL     1       1.618   5.467  19.275  0.00  0.00    +0.000 A 
BRANCH  14  16
ATOM     16  C   UNL     1       1.097   3.179  18.542  0.00  0.00    +0.000 C 
ATOM     17  N   UNL     1       0.469   2.203  18.615  0.00  0.00    +0.000 NA
ENDBRANCH  14  16
ENDBRANCH   6  10
BRANCH   1  19
ATOM     18  N   UNL     1      -2.098  10.607  16.313  0.00  0.00    +0.000 N 
ATOM     19  C   UNL     1      -2.446   9.928  17.459  0.00  0.00    +0.000 C 
ATOM     20  O   UNL     1      -3.597   9.597  17.721  0.00  0.00    +0.000 OA
ATOM     21  H   UNL     1      -1.122  10.750  16.089  0.00  0.00    +0.000 HD
BRANCH  18  23
ATOM     22  C   UNL     1      -3.299  10.062  14.246  0.00  0.00    +0.000 C 
ATOM     23  C   UNL     1      -3.101  11.058  15.371  0.00  0.00    +0.000 C 
ENDBRANCH  18  23
ENDBRANCH   1  19
TORSDOF 4
ENDMDL
MODEL 8
REMARK VINA RESULT:      -6.5      3.852      7.506
REMARK  Name = 
REMARK  5 active torsions:
REMARK  status: ('A' for Active; 'I' for Inactive)
REMARK    1  A    between atoms: C_1  and  C_2
REMARK    2  A    between atoms: C_2  and  N_3
REMARK    3  A    between atoms: C_4  and  C_6
REMARK    4  A    between atoms: C_11  and  C_13
REMARK    5  A    between atoms: C_17  and  C_18
REMARK                            x       y       z     vdW  Elec       q    Type
REMARK                         _______ _______ _______ _____ _____    ______ ____
ROOT
ATOM      1  C   UNL     1       5.310   5.106  17.387  0.00  0.00    +0.000 C 
ATOM      2  C   UNL     1       5.659   3.859  18.206  0.00  0.00    +0.000 C 
ATOM      3  C   UNL     1       4.839   3.689  19.492  0.00  0.00    +0.000 C 
ATOM      4  C   UNL     1       3.317   3.724  19.314  0.00  0.00    +0.000 C 
ATOM      5  N   UNL     1       2.820   5.079  19.058  0.00  0.00    +0.000 N 
ATOM      6  C   UNL     1       2.368   5.830  20.161  0.00  0.00    +0.000 C 
ATOM      7  O   UNL     1       2.424   5.395  21.311  0.00  0.00    +0.000 OA
ATOM      8  C   UNL     1       2.846   5.560  17.678  0.00  0.00    +0.000 C 
ATOM      9  C   UNL     1       3.915   4.984  16.766  0.00  0.00    +0.000 C 
ENDROOT
BRANCH   6  10
ATOM     10  C   UNL     1       1.863   7.232  20.002  0.00  0.00    +0.000 A 
ATOM     11  C   UNL     1       1.901   7.948  18.799  0.00  0.00    +0.000 A 
ATOM     12  C   UNL     1       1.544   9.297  18.755  0.00  0.00    +0.000 A 
ATOM     13  C   UNL     1       1.040   9.919  19.894  0.00  0.00    +0.000 A 
ATOM     14  C   UNL     1       0.882   9.188  21.076  0.00  0.00    +0.000 A 
ATOM     15  C   UNL     1       1.303   7.853  21.131  0.00  0.00    +0.000 A 
BRANCH  14  16
ATOM     16  C   UNL     1       0.296   9.811  22.223  0.00  0.00    +0.000 C 
ATOM     17  N   UNL     1      -0.193  10.300  23.158  0.00  0.00    +0.000 NA
ENDBRANCH  14  16
ENDBRANCH   6  10
BRANCH   1  19
ATOM     18  N   UNL     1       6.015   4.675  15.099  0.00  0.00    +0.000 N 
ATOM     19  C   UNL     1       6.325   5.326  16.272  0.00  0.00    +0.000 C 
ATOM     20  O   UNL     1       7.334   6.010  16.414  0.00  0.00    +0.000 OA
ATOM     21  H   UNL     1       5.115   4.225  14.997  0.00  0.00    +0.000 HD
BRANCH  18  23
ATOM     22  C   UNL     1       6.426   3.791  12.849  0.00  0.00    +0.000 C 
ATOM     23  C   UNL     1       6.919   4.686  13.969  0.00  0.00    +0.000 C 
ENDBRANCH  18  23
ENDBRANCH   1  19
TORSDOF 4
ENDMDL
MODEL 9
REMARK VINA RESULT:      -6.4      4.045      7.568
REMARK  Name = 
REMARK  5 active torsions:
REMARK  status: ('A' for Active; 'I' for Inactive)
REMARK    1  A    between atoms: C_1  and  C_2
REMARK    2  A    between atoms: C_2  and  N_3
REMARK    3  A    between atoms: C_4  and  C_6
REMARK    4  A    between atoms: C_11  and  C_13
REMARK    5  A    between atoms: C_17  and  C_18
REMARK                            x       y       z     vdW  Elec       q    Type
REMARK                         _______ _______ _______ _____ _____    ______ ____
ROOT
ATOM      1  C   UNL     1       6.085   6.682  17.950  0.00  0.00    +0.000 C 
ATOM      2  C   UNL     1       6.358   5.228  18.350  0.00  0.00    +0.000 C 
ATOM      3  C   UNL     1       5.234   4.567  19.160  0.00  0.00    +0.000 C 
ATOM      4  C   UNL     1       3.840   4.628  18.525  0.00  0.00    +0.000 C 
ATOM      5  N   UNL     1       3.249   5.967  18.609  0.00  0.00    +0.000 N 
ATOM      6  C   UNL     1       2.395   6.238  19.696  0.00  0.00    +0.000 C 
ATOM      7  O   UNL     1       2.176   5.404  20.576  0.00  0.00    +0.000 OA
ATOM      8  C   UNL     1       3.605   6.931  17.570  0.00  0.00    +0.000 C 
ATOM      9  C   UNL     1       4.963   6.766  16.911  0.00  0.00    +0.000 C 
ENDROOT
BRANCH   6  10
ATOM     10  C   UNL     1       1.761   7.584  19.880  0.00  0.00    +0.000 A 
ATOM     11  C   UNL     1       1.561   8.504  18.845  0.00  0.00    +0.000 A 
ATOM     12  C   UNL     1       1.095   9.794  19.111  0.00  0.00    +0.000 A 
ATOM     13  C   UNL     1       0.721  10.143  20.405  0.00  0.00    +0.000 A 
ATOM     14  C   UNL     1       0.802   9.198  21.433  0.00  0.00    +0.000 A 
ATOM     15  C   UNL     1       1.331   7.927  21.173  0.00  0.00    +0.000 A 
BRANCH  14  16
ATOM     16  C   UNL     1       0.348   9.538  22.748  0.00  0.00    +0.000 C 
ATOM     17  N   UNL     1      -0.027   9.795  23.818  0.00  0.00    +0.000 NA
ENDBRANCH  14  16
ENDBRANCH   6  10
BRANCH   1  19
ATOM     18  N   UNL     1       7.722   8.481  18.023  0.00  0.00    +0.000 N 
ATOM     19  C   UNL     1       7.338   7.330  17.371  0.00  0.00    +0.000 C 
ATOM     20  O   UNL     1       7.938   6.875  16.403  0.00  0.00    +0.000 OA
ATOM     21  H   UNL     1       7.265   8.746  18.886  0.00  0.00    +0.000 HD
BRANCH  18  23
ATOM     22  C   UNL     1       9.003  10.542  18.375  0.00  0.00    +0.000 C 
ATOM     23  C   UNL     1       8.826   9.285  17.545  0.00  0.00    +0.000 C 
ENDBRANCH  18  23
ENDBRANCH   1  19
TORSDOF 4
ENDMDL
