MODEL 1
REMARK VINA RESULT:      -8.0      0.000      0.000
REMARK  Name = 
REMARK  2 active torsions:
REMARK  status: ('A' for Active; 'I' for Inactive)
REMARK    1  A    between atoms: N_1  and  C_2
REMARK    2  A    between atoms: C_7  and  N_8
REMARK                            x       y       z     vdW  Elec       q    Type
REMARK                         _______ _______ _______ _____ _____    ______ ____
ROOT
ATOM      1  N   UNL     1       4.540   4.724  17.162  0.00  0.00    +0.000 N 
ATOM      2  C   UNL     1       4.209   6.004  17.626  0.00  0.00    +0.000 C 
ATOM      3  O   UNL     1       4.680   7.059  17.203  0.00  0.00    +0.000 OA
ATOM      4  C   UNL     1       3.205   6.086  18.709  0.00  0.00    +0.000 A 
ATOM      5  C   UNL     1       2.733   7.341  19.121  0.00  0.00    +0.000 A 
ATOM      6  C   UNL     1       1.799   7.435  20.148  0.00  0.00    +0.000 A 
ATOM      7  C   UNL     1       1.347   6.277  20.779  0.00  0.00    +0.000 A 
ATOM      8  C   UNL     1       1.816   5.014  20.385  0.00  0.00    +0.000 A 
ATOM      9  C   UNL     1       1.381   3.845  21.028  0.00  0.00    +0.000 A 
ATOM     10  C   UNL     1       1.853   2.596  20.630  0.00  0.00    +0.000 A 
ATOM     11  C   UNL     1       2.745   2.498  19.566  0.00  0.00    +0.000 A 
ATOM     12  C   UNL     1       3.179   3.655  18.904  0.00  0.00    +0.000 A 
ATOM     13  C   UNL     1       2.745   4.918  19.320  0.00  0.00    +0.000 A 
ATOM     14  C   UNL     1       4.075   3.532  17.732  0.00  0.00    +0.000 C 
ATOM     15  O   UNL     1       4.359   2.396  17.344  0.00  0.00    +0.000 OA
ENDROOT
BRANCH   1  21
ATOM     16  C   UNL     1       6.752   4.937  16.044  0.00  0.00    +0.000 A 
ATOM     17  C   UNL     1       7.508   4.802  14.870  0.00  0.00    +0.000 A 
ATOM     18  C   UNL     1       6.907   4.458  13.658  0.00  0.00    +0.000 A 
ATOM     19  C   UNL     1       5.547   4.176  13.613  0.00  0.00    +0.000 A 
ATOM     20  C   UNL     1       4.787   4.241  14.780  0.00  0.00    +0.000 A 
ATOM     21  C   UNL     1       5.375   4.624  16.000  0.00  0.00    +0.000 A 
BRANCH  16  22
ATOM     22  N   UNL     1       7.441   5.106  17.267  0.00  0.00    +0.000 N 
ATOM     23  H   UNL     1       7.127   4.458  17.982  0.00  0.00    +0.000 HD
ATOM     24  H   UNL     1       8.447   5.022  17.138  0.00  0.00    +0.000 HD
ENDBRANCH  16  22
ENDBRANCH   1  21
TORSDOF 2
ENDMDL
MODEL 2
REMARK VINA RESULT:      -7.9      0.210      2.823
REMARK  Name = 
REMARK  2 active torsions:
REMARK  status: ('A' for Active; 'I' for Inactive)
REMARK    1  A    between atoms: N_1  and  C_2
REMARK    2  A    between atoms: C_7  and  N_8
REMARK                            x       y       z     vdW  Elec       q    Type
REMARK                         _______ _______ _______ _____ _____    ______ ____
ROOT
ATOM      1  N   UNL     1       4.338   4.766  17.134  0.00  0.00    +0.000 N 
ATOM      2  C   UNL     1       3.880   3.571  17.705  0.00  0.00    +0.000 C 
ATOM      3  O   UNL     1       4.119   2.440  17.281  0.00  0.00    +0.000 OA
ATOM      4  C   UNL     1       3.048   3.685  18.923  0.00  0.00    +0.000 A 
ATOM      5  C   UNL     1       2.675   2.524  19.616  0.00  0.00    +0.000 A 
ATOM      6  C   UNL     1       1.882   2.614  20.756  0.00  0.00    +0.000 A 
ATOM      7  C   UNL     1       1.442   3.862  21.196  0.00  0.00    +0.000 A 
ATOM      8  C   UNL     1       1.800   5.032  20.507  0.00  0.00    +0.000 A 
ATOM      9  C   UNL     1       1.346   6.291  20.932  0.00  0.00    +0.000 A 
ATOM     10  C   UNL     1       1.705   7.447  20.241  0.00  0.00    +0.000 A 
ATOM     11  C   UNL     1       2.545   7.361  19.135  0.00  0.00    +0.000 A 
ATOM     12  C   UNL     1       3.018   6.113  18.706  0.00  0.00    +0.000 A 
ATOM     13  C   UNL     1       2.632   4.942  19.365  0.00  0.00    +0.000 A 
ATOM     14  C   UNL     1       3.963   6.044  17.569  0.00  0.00    +0.000 C 
ATOM     15  O   UNL     1       4.348   7.107  17.077  0.00  0.00    +0.000 OA
ENDROOT
BRANCH   1  21
ATOM     16  C   UNL     1       6.642   5.033  16.236  0.00  0.00    +0.000 A 
ATOM     17  C   UNL     1       7.514   4.909  15.143  0.00  0.00    +0.000 A 
ATOM     18  C   UNL     1       7.044   4.538  13.882  0.00  0.00    +0.000 A 
ATOM     19  C   UNL     1       5.703   4.216  13.707  0.00  0.00    +0.000 A 
ATOM     20  C   UNL     1       4.831   4.269  14.794  0.00  0.00    +0.000 A 
ATOM     21  C   UNL     1       5.286   4.680  16.061  0.00  0.00    +0.000 A 
BRANCH  16  22
ATOM     22  N   UNL     1       7.203   5.233  17.519  0.00  0.00    +0.000 N 
ATOM     23  H   UNL     1       6.921   4.518  18.181  0.00  0.00    +0.000 HD
ATOM     24  H   UNL     1       8.218   5.285  17.472  0.00  0.00    +0.000 HD
ENDBRANCH  16  22
ENDBRANCH   1  21
TORSDOF 2
ENDMDL
MODEL 3
REMARK VINA RESULT:      -7.2      2.917      4.729
REMARK  Name = 
REMARK  2 active torsions:
REMARK  status: ('A' for Active; 'I' for Inactive)
REMARK    1  A    between atoms: N_1  and  C_2
REMARK    2  A    between atoms: C_7  and  N_8
REMARK                            x       y       z     vdW  Elec       q    Type
REMARK                         _______ _______ _______ _____ _____    ______ ____
ROOT
ATOM      1  N   UNL     1       2.354   6.666  19.060  0.00  0.00    +0.000 N 
ATOM      2  C   UNL     1       2.560   7.795  18.255  0.00  0.00    +0.000 C 
ATOM      3  O   UNL     1       3.211   7.817  17.211  0.00  0.00    +0.000 OA
ATOM      4  C   UNL     1       1.934   9.059  18.700  0.00  0.00    +0.000 A 
ATOM      5  C   UNL     1       1.989  10.188  17.868  0.00  0.00    +0.000 A 
ATOM      6  C   UNL     1       1.415  11.387  18.279  0.00  0.00    +0.000 A 
ATOM      7  C   UNL     1       0.802  11.469  19.529  0.00  0.00    +0.000 A 
ATOM      8  C   UNL     1       0.747  10.351  20.376  0.00  0.00    +0.000 A 
ATOM      9  C   UNL     1       0.148  10.430  21.643  0.00  0.00    +0.000 A 
ATOM     10  C   UNL     1       0.099   9.314  22.477  0.00  0.00    +0.000 A 
ATOM     11  C   UNL     1       0.622   8.101  22.043  0.00  0.00    +0.000 A 
ATOM     12  C   UNL     1       1.211   8.001  20.774  0.00  0.00    +0.000 A 
ATOM     13  C   UNL     1       1.304   9.123  19.945  0.00  0.00    +0.000 A 
ATOM     14  C   UNL     1       1.704   6.688  20.300  0.00  0.00    +0.000 C 
ATOM     15  O   UNL     1       1.518   5.709  21.026  0.00  0.00    +0.000 OA
ENDROOT
BRANCH   1  21
ATOM     16  C   UNL     1       4.133   4.958  18.734  0.00  0.00    +0.000 A 
ATOM     17  C   UNL     1       4.493   3.697  18.236  0.00  0.00    +0.000 A 
ATOM     18  C   UNL     1       3.589   2.925  17.503  0.00  0.00    +0.000 A 
ATOM     19  C   UNL     1       2.286   3.371  17.315  0.00  0.00    +0.000 A 
ATOM     20  C   UNL     1       1.888   4.592  17.858  0.00  0.00    +0.000 A 
ATOM     21  C   UNL     1       2.801   5.396  18.565  0.00  0.00    +0.000 A 
BRANCH  16  22
ATOM     22  N   UNL     1       5.027   5.607  19.618  0.00  0.00    +0.000 N 
ATOM     23  H   UNL     1       4.574   5.909  20.475  0.00  0.00    +0.000 HD
ATOM     24  H   UNL     1       5.824   5.014  19.835  0.00  0.00    +0.000 HD
ENDBRANCH  16  22
ENDBRANCH   1  21
TORSDOF 2
ENDMDL
MODEL 4
REMARK VINA RESULT:      -7.1      1.786      6.219
REMARK  Name = 
REMARK  2 active torsions:
REMARK  status: ('A' for Active; 'I' for Inactive)
REMARK    1  A    between atoms: N_1  and  C_2
REMARK    2  A    between atoms: C_7  and  N_8
REMARK                            x       y       z     vdW  Elec       q    Type
REMARK                         _______ _______ _______ _____ _____    ______ ____
ROOT
ATOM      1  N   UNL     1       4.129   4.051  18.604  0.00  0.00    +0.000 N 
ATOM      2  C   UNL     1       4.224   3.356  17.391  0.00  0.00    +0.000 C 
ATOM      3  O   UNL     1       3.615   2.324  17.111  0.00  0.00    +0.000 OA
ATOM      4  C   UNL     1       5.127   3.919  16.364  0.00  0.00    +0.000 A 
ATOM      5  C   UNL     1       5.161   3.347  15.083  0.00  0.00    +0.000 A 
ATOM      6  C   UNL     1       6.015   3.858  14.111  0.00  0.00    +0.000 A 
ATOM      7  C   UNL     1       6.852   4.929  14.419  0.00  0.00    +0.000 A 
ATOM      8  C   UNL     1       6.837   5.507  15.698  0.00  0.00    +0.000 A 
ATOM      9  C   UNL     1       7.690   6.574  16.023  0.00  0.00    +0.000 A 
ATOM     10  C   UNL     1       7.668   7.140  17.296  0.00  0.00    +0.000 A 
ATOM     11  C   UNL     1       6.774   6.666  18.250  0.00  0.00    +0.000 A 
ATOM     12  C   UNL     1       5.905   5.611  17.938  0.00  0.00    +0.000 A 
ATOM     13  C   UNL     1       5.946   5.006  16.678  0.00  0.00    +0.000 A 
ATOM     14  C   UNL     1       4.914   5.161  18.942  0.00  0.00    +0.000 C 
ATOM     15  O   UNL     1       4.852   5.783  20.005  0.00  0.00    +0.000 OA
ENDROOT
BRANCH   1  21
ATOM     16  C   UNL     1       3.387   2.602  20.484  0.00  0.00    +0.000 A 
ATOM     17  C   UNL     1       2.370   2.251  21.384  0.00  0.00    +0.000 A 
ATOM     18  C   UNL     1       1.102   2.829  21.304  0.00  0.00    +0.000 A 
ATOM     19  C   UNL     1       0.849   3.820  20.363  0.00  0.00    +0.000 A 
ATOM     20  C   UNL     1       1.864   4.231  19.500  0.00  0.00    +0.000 A 
ATOM     21  C   UNL     1       3.135   3.628  19.547  0.00  0.00    +0.000 A 
BRANCH  16  22
ATOM     22  N   UNL     1       4.693   2.119  20.730  0.00  0.00    +0.000 N 
ATOM     23  H   UNL     1       5.027   2.358  21.658  0.00  0.00    +0.000 HD
ATOM     24  H   UNL     1       4.747   1.113  20.589  0.00  0.00    +0.000 HD
ENDBRANCH  16  22
ENDBRANCH   1  21
TORSDOF 2
ENDMDL
MODEL 5
REMARK VINA RESULT:      -7.1      1.740      5.769
REMARK  Name = 
REMARK  2 active torsions:
REMARK  status: ('A' for Active; 'I' for Inactive)
REMARK    1  A    between atoms: N_1  and  C_2
REMARK    2  A    between atoms: C_7  and  N_8
REMARK                            x       y       z     vdW  Elec       q    Type
REMARK                         _______ _______ _______ _____ _____    ______ ____
ROOT
ATOM      1  N   UNL     1       3.948   4.188  18.552  0.00  0.00    +0.000 N 
ATOM      2  C   UNL     1       4.720   5.311  18.878  0.00  0.00    +0.000 C 
ATOM      3  O   UNL     1       4.605   5.982  19.903  0.00  0.00    +0.000 OA
ATOM      4  C   UNL     1       5.764   5.712  17.910  0.00  0.00    +0.000 A 
ATOM      5  C   UNL     1       6.657   6.741  18.242  0.00  0.00    +0.000 A 
ATOM      6  C   UNL     1       7.636   7.138  17.336  0.00  0.00    +0.000 A 
ATOM      7  C   UNL     1       7.714   6.522  16.087  0.00  0.00    +0.000 A 
ATOM      8  C   UNL     1       6.821   5.496  15.737  0.00  0.00    +0.000 A 
ATOM      9  C   UNL     1       6.881   4.884  14.475  0.00  0.00    +0.000 A 
ATOM     10  C   UNL     1       5.990   3.867  14.136  0.00  0.00    +0.000 A 
ATOM     11  C   UNL     1       5.048   3.431  15.062  0.00  0.00    +0.000 A 
ATOM     12  C   UNL     1       4.985   4.023  16.332  0.00  0.00    +0.000 A 
ATOM     13  C   UNL     1       5.845   5.072  16.671  0.00  0.00    +0.000 A 
ATOM     14  C   UNL     1       4.023   3.505  17.331  0.00  0.00    +0.000 C 
ATOM     15  O   UNL     1       3.348   2.521  17.021  0.00  0.00    +0.000 OA
ENDROOT
BRANCH   1  21
ATOM     16  C   UNL     1       3.425   2.623  20.413  0.00  0.00    +0.000 A 
ATOM     17  C   UNL     1       2.500   2.183  21.372  0.00  0.00    +0.000 A 
ATOM     18  C   UNL     1       1.204   2.700  21.415  0.00  0.00    +0.000 A 
ATOM     19  C   UNL     1       0.831   3.716  20.544  0.00  0.00    +0.000 A 
ATOM     20  C   UNL     1       1.755   4.214  19.626  0.00  0.00    +0.000 A 
ATOM     21  C   UNL     1       3.052   3.674  19.547  0.00  0.00    +0.000 A 
BRANCH  16  22
ATOM     22  N   UNL     1       4.769   2.197  20.537  0.00  0.00    +0.000 N 
ATOM     23  H   UNL     1       4.961   1.360  19.996  0.00  0.00    +0.000 HD
ATOM     24  H   UNL     1       5.415   2.937  20.275  0.00  0.00    +0.000 HD
ENDBRANCH  16  22
ENDBRANCH   1  21
TORSDOF 2
ENDMDL
MODEL 6
REMARK VINA RESULT:      -7.0      3.604      6.883
REMARK  Name = 
REMARK  2 active torsions:
REMARK  status: ('A' for Active; 'I' for Inactive)
REMARK    1  A    between atoms: N_1  and  C_2
REMARK    2  A    between atoms: C_7  and  N_8
REMARK                            x       y       z     vdW  Elec       q    Type
REMARK                         _______ _______ _______ _____ _____    ______ ____
ROOT
ATOM      1  N   UNL     1       1.358   9.062  19.336  0.00  0.00    +0.000 N 
ATOM      2  C   UNL     1       2.172   8.901  18.207  0.00  0.00    +0.000 C 
ATOM      3  O   UNL     1       2.296   9.718  17.295  0.00  0.00    +0.000 OA
ATOM      4  C   UNL     1       2.951   7.647  18.115  0.00  0.00    +0.000 A 
ATOM      5  C   UNL     1       3.885   7.488  17.080  0.00  0.00    +0.000 A 
ATOM      6  C   UNL     1       4.616   6.309  16.973  0.00  0.00    +0.000 A 
ATOM      7  C   UNL     1       4.402   5.277  17.886  0.00  0.00    +0.000 A 
ATOM      8  C   UNL     1       3.464   5.417  18.921  0.00  0.00    +0.000 A 
ATOM      9  C   UNL     1       3.229   4.376  19.833  0.00  0.00    +0.000 A 
ATOM     10  C   UNL     1       2.295   4.525  20.857  0.00  0.00    +0.000 A 
ATOM     11  C   UNL     1       1.606   5.725  20.998  0.00  0.00    +0.000 A 
ATOM     12  C   UNL     1       1.839   6.780  20.104  0.00  0.00    +0.000 A 
ATOM     13  C   UNL     1       2.743   6.629  19.048  0.00  0.00    +0.000 A 
ATOM     14  C   UNL     1       1.148   8.073  20.306  0.00  0.00    +0.000 C 
ATOM     15  O   UNL     1       0.431   8.191  21.302  0.00  0.00    +0.000 OA
ENDROOT
BRANCH   1  21
ATOM     16  C   UNL     1      -0.247  10.833  18.647  0.00  0.00    +0.000 A 
ATOM     17  C   UNL     1      -0.828  12.081  18.917  0.00  0.00    +0.000 A 
ATOM     18  C   UNL     1      -0.390  12.866  19.985  0.00  0.00    +0.000 A 
ATOM     19  C   UNL     1       0.590  12.385  20.845  0.00  0.00    +0.000 A 
ATOM     20  C   UNL     1       1.135  11.119  20.634  0.00  0.00    +0.000 A 
ATOM     21  C   UNL     1       0.730  10.336  19.538  0.00  0.00    +0.000 A 
BRANCH  16  22
ATOM     22  N   UNL     1      -0.854  10.012  17.668  0.00  0.00    +0.000 N 
ATOM     23  H   UNL     1      -0.438   9.087  17.626  0.00  0.00    +0.000 HD
ATOM     24  H   UNL     1      -1.857   9.937  17.821  0.00  0.00    +0.000 HD
ENDBRANCH  16  22
ENDBRANCH   1  21
TORSDOF 2
ENDMDL
MODEL 7
REMARK VINA RESULT:      -6.9      3.542      7.091
REMARK  Name = 
REMARK  2 active torsions:
REMARK  status: ('A' for Active; 'I' for Inactive)
REMARK    1  A    between atoms: N_1  and  C_2
REMARK    2  A    between atoms: C_7  and  N_8
REMARK                            x       y       z     vdW  Elec       q    Type
REMARK                         _______ _______ _______ _____ _____    ______ ____
ROOT
ATOM      1  N   UNL     1       1.430   9.018  19.369  0.00  0.00    +0.000 N 
ATOM      2  C   UNL     1       1.261   8.014  20.331  0.00  0.00    +0.000 C 
ATOM      3  O   UNL     1       0.618   8.127  21.375  0.00  0.00    +0.000 OA
ATOM      4  C   UNL     1       1.904   6.710  20.060  0.00  0.00    +0.000 A 
ATOM      5  C   UNL     1       1.658   5.626  20.917  0.00  0.00    +0.000 A 
ATOM      6  C   UNL     1       2.266   4.397  20.682  0.00  0.00    +0.000 A 
ATOM      7  C   UNL     1       3.137   4.250  19.603  0.00  0.00    +0.000 A 
ATOM      8  C   UNL     1       3.400   5.327  18.743  0.00  0.00    +0.000 A 
ATOM      9  C   UNL     1       4.290   5.194  17.665  0.00  0.00    +0.000 A 
ATOM     10  C   UNL     1       4.546   6.269  16.816  0.00  0.00    +0.000 A 
ATOM     11  C   UNL     1       3.894   7.482  17.017  0.00  0.00    +0.000 A 
ATOM     12  C   UNL     1       2.991   7.628  18.080  0.00  0.00    +0.000 A 
ATOM     13  C   UNL     1       2.758   6.569  18.964  0.00  0.00    +0.000 A 
ATOM     14  C   UNL     1       2.256   8.902  18.243  0.00  0.00    +0.000 C 
ATOM     15  O   UNL     1       2.425   9.775  17.388  0.00  0.00    +0.000 OA
ENDROOT
BRANCH   1  21
ATOM     16  C   UNL     1      -0.286  10.630  18.568  0.00  0.00    +0.000 A 
ATOM     17  C   UNL     1      -0.994  11.821  18.790  0.00  0.00    +0.000 A 
ATOM     18  C   UNL     1      -0.694  12.648  19.874  0.00  0.00    +0.000 A 
ATOM     19  C   UNL     1       0.274  12.264  20.795  0.00  0.00    +0.000 A 
ATOM     20  C   UNL     1       0.944  11.053  20.629  0.00  0.00    +0.000 A 
ATOM     21  C   UNL     1       0.678  10.230  19.519  0.00  0.00    +0.000 A 
BRANCH  16  22
ATOM     22  N   UNL     1      -0.756   9.751  17.564  0.00  0.00    +0.000 N 
ATOM     23  H   UNL     1      -1.356  10.217  16.891  0.00  0.00    +0.000 HD
ATOM     24  H   UNL     1       0.015   9.293  17.085  0.00  0.00    +0.000 HD
ENDBRANCH  16  22
ENDBRANCH   1  21
TORSDOF 2
ENDMDL
MODEL 8
REMARK VINA RESULT:      -6.9      1.894      6.317
REMARK  Name = 
REMARK  2 active torsions:
REMARK  status: ('A' for Active; 'I' for Inactive)
REMARK    1  A    between atoms: N_1  and  C_2
REMARK    2  A    between atoms: C_7  and  N_8
REMARK                            x       y       z     vdW  Elec       q    Type
REMARK                         _______ _______ _______ _____ _____    ______ ____
ROOT
ATOM      1  N   UNL     1       4.081   4.003  18.578  0.00  0.00    +0.000 N 
ATOM      2  C   UNL     1       4.273   3.290  17.387  0.00  0.00    +0.000 C 
ATOM      3  O   UNL     1       3.724   2.227  17.096  0.00  0.00    +0.000 OA
ATOM      4  C   UNL     1       5.207   3.872  16.399  0.00  0.00    +0.000 A 
ATOM      5  C   UNL     1       5.336   3.278  15.135  0.00  0.00    +0.000 A 
ATOM      6  C   UNL     1       6.220   3.807  14.200  0.00  0.00    +0.000 A 
ATOM      7  C   UNL     1       6.993   4.919  14.531  0.00  0.00    +0.000 A 
ATOM      8  C   UNL     1       6.882   5.520  15.795  0.00  0.00    +0.000 A 
ATOM      9  C   UNL     1       7.670   6.629  16.142  0.00  0.00    +0.000 A 
ATOM     10  C   UNL     1       7.553   7.218  17.400  0.00  0.00    +0.000 A 
ATOM     11  C   UNL     1       6.628   6.724  18.314  0.00  0.00    +0.000 A 
ATOM     12  C   UNL     1       5.823   5.626  17.978  0.00  0.00    +0.000 A 
ATOM     13  C   UNL     1       5.960   5.000  16.735  0.00  0.00    +0.000 A 
ATOM     14  C   UNL     1       4.798   5.152  18.935  0.00  0.00    +0.000 C 
ATOM     15  O   UNL     1       4.650   5.791  19.979  0.00  0.00    +0.000 OA
ENDROOT
BRANCH   1  21
ATOM     16  C   UNL     1       1.686   3.794  19.217  0.00  0.00    +0.000 A 
ATOM     17  C   UNL     1       0.738   3.313  20.132  0.00  0.00    +0.000 A 
ATOM     18  C   UNL     1       1.130   2.694  21.320  0.00  0.00    +0.000 A 
ATOM     19  C   UNL     1       2.478   2.484  21.583  0.00  0.00    +0.000 A 
ATOM     20  C   UNL     1       3.436   2.896  20.657  0.00  0.00    +0.000 A 
ATOM     21  C   UNL     1       3.054   3.555  19.474  0.00  0.00    +0.000 A 
BRANCH  16  22
ATOM     22  N   UNL     1       1.230   4.243  17.955  0.00  0.00    +0.000 N 
ATOM     23  H   UNL     1       0.389   3.761  17.653  0.00  0.00    +0.000 HD
ATOM     24  H   UNL     1       1.074   5.248  17.957  0.00  0.00    +0.000 HD
ENDBRANCH  16  22
ENDBRANCH   1  21
TORSDOF 2
ENDMDL
MODEL 9
REMARK VINA RESULT:      -6.9      3.144      5.402
REMARK  Name = 
REMARK  2 active torsions:
REMARK  status: ('A' for Active; 'I' for Inactive)
REMARK    1  A    between atoms: N_1  and  C_2
REMARK    2  A    between atoms: C_7  and  N_8
REMARK                            x       y       z     vdW  Elec       q    Type
REMARK                         _______ _______ _______ _____ _____    ______ ____
ROOT
ATOM      1  N   UNL     1       2.437   6.758  19.246  0.00  0.00    +0.000 N 
ATOM      2  C   UNL     1       1.677   6.754  20.423  0.00  0.00    +0.000 C 
ATOM      3  O   UNL     1       1.471   5.772  21.135  0.00  0.00    +0.000 OA
ATOM      4  C   UNL     1       1.083   8.042  20.842  0.00  0.00    +0.000 A 
ATOM      5  C   UNL     1       0.428   8.131  22.080  0.00  0.00    +0.000 A 
ATOM      6  C   UNL     1      -0.147   9.333  22.482  0.00  0.00    +0.000 A 
ATOM      7  C   UNL     1      -0.087  10.444  21.642  0.00  0.00    +0.000 A 
ATOM      8  C   UNL     1       0.557  10.368  20.396  0.00  0.00    +0.000 A 
ATOM      9  C   UNL     1       0.606  11.476  19.536  0.00  0.00    +0.000 A 
ATOM     10  C   UNL     1       1.247  11.391  18.302  0.00  0.00    +0.000 A 
ATOM     11  C   UNL     1       1.870  10.206  17.925  0.00  0.00    +0.000 A 
ATOM     12  C   UNL     1       1.844   9.094  18.778  0.00  0.00    +0.000 A 
ATOM     13  C   UNL     1       1.168   9.154  20.001  0.00  0.00    +0.000 A 
ATOM     14  C   UNL     1       2.567   7.862  18.393  0.00  0.00    +0.000 C 
ATOM     15  O   UNL     1       3.225   7.884  17.350  0.00  0.00    +0.000 OA
ENDROOT
BRANCH   1  21
ATOM     16  C   UNL     1       2.566   4.502  18.207  0.00  0.00    +0.000 A 
ATOM     17  C   UNL     1       3.345   3.376  17.902  0.00  0.00    +0.000 A 
ATOM     18  C   UNL     1       4.659   3.261  18.362  0.00  0.00    +0.000 A 
ATOM     19  C   UNL     1       5.239   4.301  19.077  0.00  0.00    +0.000 A 
ATOM     20  C   UNL     1       4.503   5.457  19.335  0.00  0.00    +0.000 A 
ATOM     21  C   UNL     1       3.166   5.569  18.911  0.00  0.00    +0.000 A 
BRANCH  16  22
ATOM     22  N   UNL     1       1.313   4.641  17.563  0.00  0.00    +0.000 N 
ATOM     23  H   UNL     1       1.400   5.008  16.621  0.00  0.00    +0.000 HD
ATOM     24  H   UNL     1       0.807   3.759  17.549  0.00  0.00    +0.000 HD
ENDBRANCH  16  22
ENDBRANCH   1  21
TORSDOF 2
ENDMDL
