MODEL 1
REMARK VINA RESULT:      -8.3      0.000      0.000
REMARK  Name = 
REMARK  6 active torsions:
REMARK  status: ('A' for Active; 'I' for Inactive)
REMARK    1  A    between atoms: C_1  and  C_2
REMARK    2  A    between atoms: C_14  and  N_15
REMARK    3  A    between atoms: N_15  and  C_16
REMARK    4  A    between atoms: N_23  and  C_24
REMARK    5  A    between atoms: C_24  and  C_25
REMARK    6  A    between atoms: C_25  and  C_26
REMARK                            x       y       z     vdW  Elec       q    Type
REMARK                         _______ _______ _______ _____ _____    ______ ____
ROOT
ATOM      1  C   UNL     1       1.458   1.373  19.025  0.00  0.00    +0.000 C 
ATOM      2  C   UNL     1       1.665   2.514  19.942  0.00  0.00    +0.000 A 
ATOM      3  C   UNL     1       1.438   3.862  19.798  0.00  0.00    +0.000 A 
ATOM      4  C   UNL     1       1.795   4.442  21.041  0.00  0.00    +0.000 A 
ATOM      5  N   UNL     1       1.647   5.741  21.364  0.00  0.00    +0.000 N 
ATOM      6  C   UNL     1       1.809   6.850  20.511  0.00  0.00    +0.000 A 
ATOM      7  C   UNL     1       1.157   8.026  20.835  0.00  0.00    +0.000 A 
ATOM      8  C   UNL     1       1.225   9.108  19.985  0.00  0.00    +0.000 A 
ATOM      9  N   UNL     1       0.592  10.236  20.353  0.00  0.00    +0.000 NA
ATOM     10  C   UNL     1       0.657  11.302  19.530  0.00  0.00    +0.000 A 
ATOM     11  C   UNL     1       1.301  11.287  18.310  0.00  0.00    +0.000 A 
ATOM     12  C   UNL     1       1.955  10.117  17.935  0.00  0.00    +0.000 A 
ATOM     13  C   UNL     1       1.954   8.991  18.792  0.00  0.00    +0.000 A 
ATOM     14  C   UNL     1       2.669   7.793  18.569  0.00  0.00    +0.000 A 
ATOM     15  N   UNL     1       2.568   6.746  19.404  0.00  0.00    +0.000 NA
ATOM     16  N   UNL     1       2.223   3.514  21.900  0.00  0.00    +0.000 NA
ATOM     17  N   UNL     1       2.134   2.363  21.215  0.00  0.00    +0.000 N 
ATOM     18  H   UNL     1       1.878   5.974  22.320  0.00  0.00    +0.000 HD
ATOM     19  H   UNL     1       2.400   1.503  21.686  0.00  0.00    +0.000 HD
ENDROOT
BRANCH  14  20
ATOM     20  N   UNL     1       3.520   7.682  17.471  0.00  0.00    +0.000 N 
ATOM     21  H   UNL     1       3.013   7.817  16.601  0.00  0.00    +0.000 HD
BRANCH  20  22
ATOM     22  C   UNL     1       4.582   6.670  17.414  0.00  0.00    +0.000 C 
ATOM     23  C   UNL     1       4.029   5.244  17.251  0.00  0.00    +0.000 C 
ATOM     24  C   UNL     1       5.157   4.204  17.123  0.00  0.00    +0.000 C 
ATOM     25  C   UNL     1       6.179   4.291  18.264  0.00  0.00    +0.000 C 
ATOM     26  C   UNL     1       7.210   5.328  17.786  0.00  0.00    +0.000 C 
ATOM     27  C   UNL     1       6.720   5.752  16.394  0.00  0.00    +0.000 C 
ATOM     28  C   UNL     1       5.745   6.951  16.446  0.00  0.00    +0.000 C 
ATOM     29  N   UNL     1       6.048   4.508  16.004  0.00  0.00    +0.000 NA
BRANCH  29  30
ATOM     30  C   UNL     1       5.452   4.446  14.674  0.00  0.00    +0.000 C 
BRANCH  30  31
ATOM     31  C   UNL     1       6.520   4.271  13.598  0.00  0.00    +0.000 C 
BRANCH  31  32
ATOM     32  C   UNL     1       6.035   3.291  12.542  0.00  0.00    +0.000 C 
ATOM     33  N   UNL     1       5.632   2.478  11.667  0.00  0.00    +0.000 NA
ENDBRANCH  31  32
ENDBRANCH  30  31
ENDBRANCH  29  30
ENDBRANCH  20  22
ENDBRANCH  14  20
TORSDOF 5
ENDMDL
MODEL 2
REMARK VINA RESULT:      -7.8      1.593      3.034
REMARK  Name = 
REMARK  6 active torsions:
REMARK  status: ('A' for Active; 'I' for Inactive)
REMARK    1  A    between atoms: C_1  and  C_2
REMARK    2  A    between atoms: C_14  and  N_15
REMARK    3  A    between atoms: N_15  and  C_16
REMARK    4  A    between atoms: N_23  and  C_24
REMARK    5  A    between atoms: C_24  and  C_25
REMARK    6  A    between atoms: C_25  and  C_26
REMARK                            x       y       z     vdW  Elec       q    Type
REMARK                         _______ _______ _______ _____ _____    ______ ____
ROOT
ATOM      1  C   UNL     1       0.769   1.543  18.848  0.00  0.00    +0.000 C 
ATOM      2  C   UNL     1       1.170   2.631  19.765  0.00  0.00    +0.000 A 
ATOM      3  C   UNL     1       1.074   3.999  19.668  0.00  0.00    +0.000 A 
ATOM      4  C   UNL     1       1.592   4.504  20.886  0.00  0.00    +0.000 A 
ATOM      5  N   UNL     1       1.608   5.802  21.245  0.00  0.00    +0.000 N 
ATOM      6  C   UNL     1       1.812   6.913  20.403  0.00  0.00    +0.000 A 
ATOM      7  C   UNL     1       1.316   8.140  20.804  0.00  0.00    +0.000 A 
ATOM      8  C   UNL     1       1.424   9.232  19.973  0.00  0.00    +0.000 A 
ATOM      9  N   UNL     1       0.945  10.408  20.416  0.00  0.00    +0.000 NA
ATOM     10  C   UNL     1       1.052  11.484  19.611  0.00  0.00    +0.000 A 
ATOM     11  C   UNL     1       1.587  11.438  18.340  0.00  0.00    +0.000 A 
ATOM     12  C   UNL     1       2.081  10.218  17.887  0.00  0.00    +0.000 A 
ATOM     13  C   UNL     1       2.035   9.075  18.720  0.00  0.00    +0.000 A 
ATOM     14  C   UNL     1       2.600   7.816  18.413  0.00  0.00    +0.000 A 
ATOM     15  N   UNL     1       2.460   6.762  19.233  0.00  0.00    +0.000 NA
ATOM     16  N   UNL     1       1.992   3.514  21.687  0.00  0.00    +0.000 NA
ATOM     17  N   UNL     1       1.726   2.397  20.990  0.00  0.00    +0.000 N 
ATOM     18  H   UNL     1       1.941   5.983  22.183  0.00  0.00    +0.000 HD
ATOM     19  H   UNL     1       1.940   1.502  21.420  0.00  0.00    +0.000 HD
ENDROOT
BRANCH  14  20
ATOM     20  N   UNL     1       3.340   7.650  17.243  0.00  0.00    +0.000 N 
ATOM     21  H   UNL     1       2.770   7.834  16.423  0.00  0.00    +0.000 HD
BRANCH  20  22
ATOM     22  C   UNL     1       4.309   6.559  17.090  0.00  0.00    +0.000 C 
ATOM     23  C   UNL     1       5.418   6.603  18.155  0.00  0.00    +0.000 C 
ATOM     24  C   UNL     1       6.386   5.412  18.023  0.00  0.00    +0.000 C 
ATOM     25  C   UNL     1       6.960   5.266  16.608  0.00  0.00    +0.000 C 
ATOM     26  C   UNL     1       5.937   4.396  15.859  0.00  0.00    +0.000 C 
ATOM     27  C   UNL     1       4.854   4.084  16.901  0.00  0.00    +0.000 C 
ATOM     28  C   UNL     1       3.728   5.144  16.923  0.00  0.00    +0.000 C 
ATOM     29  N   UNL     1       5.683   4.133  18.110  0.00  0.00    +0.000 NA
BRANCH  29  30
ATOM     30  C   UNL     1       5.042   3.838  19.386  0.00  0.00    +0.000 C 
BRANCH  30  31
ATOM     31  C   UNL     1       4.559   2.391  19.439  0.00  0.00    +0.000 C 
BRANCH  31  32
ATOM     32  C   UNL     1       5.121   1.702  20.672  0.00  0.00    +0.000 C 
ATOM     33  N   UNL     1       5.586   1.130  21.695  0.00  0.00    +0.000 NA
ENDBRANCH  31  32
ENDBRANCH  30  31
ENDBRANCH  29  30
ENDBRANCH  20  22
ENDBRANCH  14  20
TORSDOF 5
ENDMDL
MODEL 3
REMARK VINA RESULT:      -7.5      1.527      3.021
REMARK  Name = 
REMARK  6 active torsions:
REMARK  status: ('A' for Active; 'I' for Inactive)
REMARK    1  A    between atoms: C_1  and  C_2
REMARK    2  A    between atoms: C_14  and  N_15
REMARK    3  A    between atoms: N_15  and  C_16
REMARK    4  A    between atoms: N_23  and  C_24
REMARK    5  A    between atoms: C_24  and  C_25
REMARK    6  A    between atoms: C_25  and  C_26
REMARK                            x       y       z     vdW  Elec       q    Type
REMARK                         _______ _______ _______ _____ _____    ______ ____
ROOT
ATOM      1  C   UNL     1       1.167   1.441  18.981  0.00  0.00    +0.000 C 
ATOM      2  C   UNL     1       1.481   2.550  19.907  0.00  0.00    +0.000 A 
ATOM      3  C   UNL     1       1.255   3.903  19.831  0.00  0.00    +0.000 A 
ATOM      4  C   UNL     1       1.747   4.440  21.046  0.00  0.00    +0.000 A 
ATOM      5  N   UNL     1       1.648   5.728  21.425  0.00  0.00    +0.000 N 
ATOM      6  C   UNL     1       1.731   6.864  20.595  0.00  0.00    +0.000 A 
ATOM      7  C   UNL     1       1.129   8.034  21.024  0.00  0.00    +0.000 A 
ATOM      8  C   UNL     1       1.118   9.142  20.207  0.00  0.00    +0.000 A 
ATOM      9  N   UNL     1       0.539  10.262  20.676  0.00  0.00    +0.000 NA
ATOM     10  C   UNL     1       0.528  11.354  19.884  0.00  0.00    +0.000 A 
ATOM     11  C   UNL     1       1.040  11.374  18.603  0.00  0.00    +0.000 A 
ATOM     12  C   UNL     1       1.638  10.213  18.124  0.00  0.00    +0.000 A 
ATOM     13  C   UNL     1       1.716   9.059  18.940  0.00  0.00    +0.000 A 
ATOM     14  C   UNL     1       2.391   7.863  18.605  0.00  0.00    +0.000 A 
ATOM     15  N   UNL     1       2.367   6.791  19.411  0.00  0.00    +0.000 NA
ATOM     16  N   UNL     1       2.253   3.481  21.826  0.00  0.00    +0.000 NA
ATOM     17  N   UNL     1       2.081   2.354  21.118  0.00  0.00    +0.000 N 
ATOM     18  H   UNL     1       1.980   5.928  22.359  0.00  0.00    +0.000 HD
ATOM     19  H   UNL     1       2.386   1.477  21.531  0.00  0.00    +0.000 HD
ENDROOT
BRANCH  14  20
ATOM     20  N   UNL     1       3.120   7.783  17.419  0.00  0.00    +0.000 N 
ATOM     21  H   UNL     1       2.548   8.044  16.621  0.00  0.00    +0.000 HD
BRANCH  20  22
ATOM     22  C   UNL     1       4.069   6.692  17.168  0.00  0.00    +0.000 C 
ATOM     23  C   UNL     1       5.231   7.120  16.256  0.00  0.00    +0.000 C 
ATOM     24  C   UNL     1       6.253   5.985  16.060  0.00  0.00    +0.000 C 
ATOM     25  C   UNL     1       5.606   4.679  15.583  0.00  0.00    +0.000 C 
ATOM     26  C   UNL     1       5.191   3.954  16.874  0.00  0.00    +0.000 C 
ATOM     27  C   UNL     1       5.646   4.885  18.007  0.00  0.00    +0.000 C 
ATOM     28  C   UNL     1       4.561   5.914  18.402  0.00  0.00    +0.000 C 
ATOM     29  N   UNL     1       6.788   5.514  17.337  0.00  0.00    +0.000 NA
BRANCH  29  30
ATOM     30  C   UNL     1       7.577   6.478  18.096  0.00  0.00    +0.000 C 
BRANCH  30  31
ATOM     31  C   UNL     1       7.789   7.764  17.302  0.00  0.00    +0.000 C 
BRANCH  31  32
ATOM     32  C   UNL     1       8.387   8.834  18.201  0.00  0.00    +0.000 C 
ATOM     33  N   UNL     1       8.881   9.722  18.948  0.00  0.00    +0.000 NA
ENDBRANCH  31  32
ENDBRANCH  30  31
ENDBRANCH  29  30
ENDBRANCH  20  22
ENDBRANCH  14  20
TORSDOF 5
ENDMDL
MODEL 4
REMARK VINA RESULT:      -7.4      2.125      4.929
REMARK  Name = 
REMARK  6 active torsions:
REMARK  status: ('A' for Active; 'I' for Inactive)
REMARK    1  A    between atoms: C_1  and  C_2
REMARK    2  A    between atoms: C_14  and  N_15
REMARK    3  A    between atoms: N_15  and  C_16
REMARK    4  A    between atoms: N_23  and  C_24
REMARK    5  A    between atoms: C_24  and  C_25
REMARK    6  A    between atoms: C_25  and  C_26
REMARK                            x       y       z     vdW  Elec       q    Type
REMARK                         _______ _______ _______ _____ _____    ______ ____
ROOT
ATOM      1  C   UNL     1       7.926   6.111  18.125  0.00  0.00    +0.000 C 
ATOM      2  C   UNL     1       6.638   6.462  17.489  0.00  0.00    +0.000 A 
ATOM      3  C   UNL     1       5.590   7.247  17.907  0.00  0.00    +0.000 A 
ATOM      4  C   UNL     1       4.656   7.232  16.842  0.00  0.00    +0.000 A 
ATOM      5  N   UNL     1       3.514   7.945  16.798  0.00  0.00    +0.000 N 
ATOM      6  C   UNL     1       2.661   8.247  17.878  0.00  0.00    +0.000 A 
ATOM      7  C   UNL     1       1.846   9.360  17.778  0.00  0.00    +0.000 A 
ATOM      8  C   UNL     1       1.058   9.734  18.842  0.00  0.00    +0.000 A 
ATOM      9  N   UNL     1       0.267  10.811  18.690  0.00  0.00    +0.000 NA
ATOM     10  C   UNL     1      -0.512  11.182  19.727  0.00  0.00    +0.000 A 
ATOM     11  C   UNL     1      -0.512  10.544  20.950  0.00  0.00    +0.000 A 
ATOM     12  C   UNL     1       0.309   9.431  21.102  0.00  0.00    +0.000 A 
ATOM     13  C   UNL     1       1.105   8.977  20.023  0.00  0.00    +0.000 A 
ATOM     14  C   UNL     1       1.891   7.802  20.024  0.00  0.00    +0.000 A 
ATOM     15  N   UNL     1       2.666   7.473  18.979  0.00  0.00    +0.000 NA
ATOM     16  N   UNL     1       5.092   6.479  15.828  0.00  0.00    +0.000 NA
ATOM     17  N   UNL     1       6.287   6.028  16.243  0.00  0.00    +0.000 N 
ATOM     18  H   UNL     1       3.001   7.881  15.929  0.00  0.00    +0.000 HD
ATOM     19  H   UNL     1       6.819   5.434  15.614  0.00  0.00    +0.000 HD
ENDROOT
BRANCH  14  20
ATOM     20  N   UNL     1       1.858   6.942  21.120  0.00  0.00    +0.000 N 
ATOM     21  H   UNL     1       2.394   7.320  21.896  0.00  0.00    +0.000 HD
BRANCH  20  22
ATOM     22  C   UNL     1       1.945   5.485  20.963  0.00  0.00    +0.000 C 
ATOM     23  C   UNL     1       0.672   4.884  20.341  0.00  0.00    +0.000 C 
ATOM     24  C   UNL     1       0.807   3.366  20.119  0.00  0.00    +0.000 C 
ATOM     25  C   UNL     1       1.232   2.614  21.387  0.00  0.00    +0.000 C 
ATOM     26  C   UNL     1       2.770   2.657  21.369  0.00  0.00    +0.000 C 
ATOM     27  C   UNL     1       3.123   3.415  20.081  0.00  0.00    +0.000 C 
ATOM     28  C   UNL     1       3.222   4.942  20.298  0.00  0.00    +0.000 C 
ATOM     29  N   UNL     1       1.956   3.044  19.274  0.00  0.00    +0.000 NA
BRANCH  29  30
ATOM     30  C   UNL     1       1.898   3.529  17.900  0.00  0.00    +0.000 C 
BRANCH  30  31
ATOM     31  C   UNL     1       2.696   2.626  16.963  0.00  0.00    +0.000 C 
BRANCH  31  32
ATOM     32  C   UNL     1       4.162   3.026  16.983  0.00  0.00    +0.000 C 
ATOM     33  N   UNL     1       5.379   3.360  17.000  0.00  0.00    +0.000 NA
ENDBRANCH  31  32
ENDBRANCH  30  31
ENDBRANCH  29  30
ENDBRANCH  20  22
ENDBRANCH  14  20
TORSDOF 5
ENDMDL
MODEL 5
REMARK VINA RESULT:      -7.3      1.974      5.645
REMARK  Name = 
REMARK  6 active torsions:
REMARK  status: ('A' for Active; 'I' for Inactive)
REMARK    1  A    between atoms: C_1  and  C_2
REMARK    2  A    between atoms: C_14  and  N_15
REMARK    3  A    between atoms: N_15  and  C_16
REMARK    4  A    between atoms: N_23  and  C_24
REMARK    5  A    between atoms: C_24  and  C_25
REMARK    6  A    between atoms: C_25  and  C_26
REMARK                            x       y       z     vdW  Elec       q    Type
REMARK                         _______ _______ _______ _____ _____    ______ ____
ROOT
ATOM      1  C   UNL     1       7.689   4.964  17.627  0.00  0.00    +0.000 C 
ATOM      2  C   UNL     1       6.546   5.728  17.083  0.00  0.00    +0.000 A 
ATOM      3  C   UNL     1       5.632   6.566  17.677  0.00  0.00    +0.000 A 
ATOM      4  C   UNL     1       4.803   7.031  16.626  0.00  0.00    +0.000 A 
ATOM      5  N   UNL     1       3.823   7.945  16.756  0.00  0.00    +0.000 N 
ATOM      6  C   UNL     1       2.955   8.107  17.854  0.00  0.00    +0.000 A 
ATOM      7  C   UNL     1       2.373   9.347  18.051  0.00  0.00    +0.000 A 
ATOM      8  C   UNL     1       1.584   9.568  19.157  0.00  0.00    +0.000 A 
ATOM      9  N   UNL     1       1.023  10.783  19.294  0.00  0.00    +0.000 NA
ATOM     10  C   UNL     1       0.243  11.008  20.372  0.00  0.00    +0.000 A 
ATOM     11  C   UNL     1       0.024  10.074  21.364  0.00  0.00    +0.000 A 
ATOM     12  C   UNL     1       0.606   8.819  21.216  0.00  0.00    +0.000 A 
ATOM     13  C   UNL     1       1.390   8.525  20.075  0.00  0.00    +0.000 A 
ATOM     14  C   UNL     1       1.939   7.260  19.764  0.00  0.00    +0.000 A 
ATOM     15  N   UNL     1       2.724   7.078  18.690  0.00  0.00    +0.000 NA
ATOM     16  N   UNL     1       5.174   6.510  15.454  0.00  0.00    +0.000 NA
ATOM     17  N   UNL     1       6.225   5.731  15.755  0.00  0.00    +0.000 N 
ATOM     18  H   UNL     1       3.380   8.225  15.891  0.00  0.00    +0.000 HD
ATOM     19  H   UNL     1       6.687   5.236  14.999  0.00  0.00    +0.000 HD
ENDROOT
BRANCH  14  20
ATOM     20  N   UNL     1       1.656   6.160  20.570  0.00  0.00    +0.000 N 
ATOM     21  H   UNL     1       2.059   6.272  21.496  0.00  0.00    +0.000 HD
BRANCH  20  22
ATOM     22  C   UNL     1       1.689   4.789  20.046  0.00  0.00    +0.000 C 
ATOM     23  C   UNL     1       3.057   4.420  19.448  0.00  0.00    +0.000 C 
ATOM     24  C   UNL     1       3.096   2.957  18.967  0.00  0.00    +0.000 C 
ATOM     25  C   UNL     1       1.945   2.614  18.013  0.00  0.00    +0.000 C 
ATOM     26  C   UNL     1       0.791   2.182  18.932  0.00  0.00    +0.000 C 
ATOM     27  C   UNL     1       1.364   2.288  20.353  0.00  0.00    +0.000 C 
ATOM     28  C   UNL     1       1.151   3.686  20.977  0.00  0.00    +0.000 C 
ATOM     29  N   UNL     1       2.773   2.025  20.047  0.00  0.00    +0.000 NA
BRANCH  29  30
ATOM     30  C   UNL     1       3.714   1.983  21.161  0.00  0.00    +0.000 C 
BRANCH  30  31
ATOM     31  C   UNL     1       5.115   1.609  20.685  0.00  0.00    +0.000 C 
BRANCH  31  32
ATOM     32  C   UNL     1       5.771   0.674  21.688  0.00  0.00    +0.000 C 
ATOM     33  N   UNL     1       6.314  -0.101  22.522  0.00  0.00    +0.000 NA
ENDBRANCH  31  32
ENDBRANCH  30  31
ENDBRANCH  29  30
ENDBRANCH  20  22
ENDBRANCH  14  20
TORSDOF 5
ENDMDL
MODEL 6
REMARK VINA RESULT:      -7.2      1.947      7.512
REMARK  Name = 
REMARK  6 active torsions:
REMARK  status: ('A' for Active; 'I' for Inactive)
REMARK    1  A    between atoms: C_1  and  C_2
REMARK    2  A    between atoms: C_14  and  N_15
REMARK    3  A    between atoms: N_15  and  C_16
REMARK    4  A    between atoms: N_23  and  C_24
REMARK    5  A    between atoms: C_24  and  C_25
REMARK    6  A    between atoms: C_25  and  C_26
REMARK                            x       y       z     vdW  Elec       q    Type
REMARK                         _______ _______ _______ _____ _____    ______ ____
ROOT
ATOM      1  C   UNL     1       5.946   0.216  11.075  0.00  0.00    +0.000 C 
ATOM      2  C   UNL     1       5.654   1.611  11.467  0.00  0.00    +0.000 A 
ATOM      3  C   UNL     1       6.076   2.376  12.527  0.00  0.00    +0.000 A 
ATOM      4  C   UNL     1       5.485   3.650  12.336  0.00  0.00    +0.000 A 
ATOM      5  N   UNL     1       5.706   4.733  13.105  0.00  0.00    +0.000 N 
ATOM      6  C   UNL     1       5.908   4.756  14.499  0.00  0.00    +0.000 A 
ATOM      7  C   UNL     1       6.596   5.825  15.044  0.00  0.00    +0.000 A 
ATOM      8  C   UNL     1       6.885   5.844  16.390  0.00  0.00    +0.000 A 
ATOM      9  N   UNL     1       7.536   6.915  16.877  0.00  0.00    +0.000 NA
ATOM     10  C   UNL     1       7.819   6.945  18.196  0.00  0.00    +0.000 A 
ATOM     11  C   UNL     1       7.514   5.918  19.066  0.00  0.00    +0.000 A 
ATOM     12  C   UNL     1       6.839   4.813  18.556  0.00  0.00    +0.000 A 
ATOM     13  C   UNL     1       6.479   4.764  17.188  0.00  0.00    +0.000 A 
ATOM     14  C   UNL     1       5.702   3.750  16.583  0.00  0.00    +0.000 A 
ATOM     15  N   UNL     1       5.454   3.745  15.264  0.00  0.00    +0.000 NA
ATOM     16  N   UNL     1       4.738   3.673  11.229  0.00  0.00    +0.000 NA
ATOM     17  N   UNL     1       4.857   2.435  10.725  0.00  0.00    +0.000 N 
ATOM     18  H   UNL     1       5.267   5.585  12.782  0.00  0.00    +0.000 HD
ATOM     19  H   UNL     1       4.374   2.223   9.857  0.00  0.00    +0.000 HD
ENDROOT
BRANCH  14  20
ATOM     20  N   UNL     1       5.156   2.731  17.362  0.00  0.00    +0.000 N 
ATOM     21  H   UNL     1       5.295   1.824  16.926  0.00  0.00    +0.000 HD
BRANCH  20  22
ATOM     22  C   UNL     1       3.873   2.892  18.057  0.00  0.00    +0.000 C 
ATOM     23  C   UNL     1       4.027   2.890  19.587  0.00  0.00    +0.000 C 
ATOM     24  C   UNL     1       2.683   3.129  20.298  0.00  0.00    +0.000 C 
ATOM     25  C   UNL     1       1.584   2.164  19.835  0.00  0.00    +0.000 C 
ATOM     26  C   UNL     1       0.952   2.850  18.612  0.00  0.00    +0.000 C 
ATOM     27  C   UNL     1       1.718   4.173  18.468  0.00  0.00    +0.000 C 
ATOM     28  C   UNL     1       2.970   4.040  17.571  0.00  0.00    +0.000 C 
ATOM     29  N   UNL     1       2.066   4.386  19.877  0.00  0.00    +0.000 NA
BRANCH  29  30
ATOM     30  C   UNL     1       2.790   5.604  20.222  0.00  0.00    +0.000 C 
BRANCH  30  31
ATOM     31  C   UNL     1       1.931   6.843  19.986  0.00  0.00    +0.000 C 
BRANCH  31  32
ATOM     32  C   UNL     1       2.425   7.590  18.758  0.00  0.00    +0.000 C 
ATOM     33  N   UNL     1       2.835   8.209  17.738  0.00  0.00    +0.000 NA
ENDBRANCH  31  32
ENDBRANCH  30  31
ENDBRANCH  29  30
ENDBRANCH  20  22
ENDBRANCH  14  20
TORSDOF 5
ENDMDL
MODEL 7
REMARK VINA RESULT:      -7.2      7.497     10.173
REMARK  Name = 
REMARK  6 active torsions:
REMARK  status: ('A' for Active; 'I' for Inactive)
REMARK    1  A    between atoms: C_1  and  C_2
REMARK    2  A    between atoms: C_14  and  N_15
REMARK    3  A    between atoms: N_15  and  C_16
REMARK    4  A    between atoms: N_23  and  C_24
REMARK    5  A    between atoms: C_24  and  C_25
REMARK    6  A    between atoms: C_25  and  C_26
REMARK                            x       y       z     vdW  Elec       q    Type
REMARK                         _______ _______ _______ _____ _____    ______ ____
ROOT
ATOM      1  C   UNL     1      -6.207  10.976  17.824  0.00  0.00    +0.000 C 
ATOM      2  C   UNL     1      -6.408  11.245  19.264  0.00  0.00    +0.000 A 
ATOM      3  C   UNL     1      -5.741  12.056  20.150  0.00  0.00    +0.000 A 
ATOM      4  C   UNL     1      -6.428  11.921  21.381  0.00  0.00    +0.000 A 
ATOM      5  N   UNL     1      -6.157  12.613  22.504  0.00  0.00    +0.000 N 
ATOM      6  C   UNL     1      -4.887  13.015  22.966  0.00  0.00    +0.000 A 
ATOM      7  C   UNL     1      -4.814  14.102  23.818  0.00  0.00    +0.000 A 
ATOM      8  C   UNL     1      -3.588  14.575  24.226  0.00  0.00    +0.000 A 
ATOM      9  N   UNL     1      -3.568  15.621  25.072  0.00  0.00    +0.000 NA
ATOM     10  C   UNL     1      -2.371  16.088  25.482  0.00  0.00    +0.000 A 
ATOM     11  C   UNL     1      -1.163  15.580  25.048  0.00  0.00    +0.000 A 
ATOM     12  C   UNL     1      -1.190  14.497  24.175  0.00  0.00    +0.000 A 
ATOM     13  C   UNL     1      -2.425  13.944  23.759  0.00  0.00    +0.000 A 
ATOM     14  C   UNL     1      -2.575  12.784  22.965  0.00  0.00    +0.000 A 
ATOM     15  N   UNL     1      -3.783  12.358  22.564  0.00  0.00    +0.000 NA
ATOM     16  N   UNL     1      -7.454  11.073  21.270  0.00  0.00    +0.000 NA
ATOM     17  N   UNL     1      -7.420  10.681  19.986  0.00  0.00    +0.000 N 
ATOM     18  H   UNL     1      -6.795  12.453  23.272  0.00  0.00    +0.000 HD
ATOM     19  H   UNL     1      -8.132  10.032  19.665  0.00  0.00    +0.000 HD
ENDROOT
BRANCH  14  20
ATOM     20  N   UNL     1      -1.456  12.042  22.596  0.00  0.00    +0.000 N 
ATOM     21  H   UNL     1      -0.651  12.289  23.163  0.00  0.00    +0.000 HD
BRANCH  20  22
ATOM     22  C   UNL     1      -1.152  11.748  21.189  0.00  0.00    +0.000 C 
ATOM     23  C   UNL     1      -1.535  12.905  20.251  0.00  0.00    +0.000 C 
ATOM     24  C   UNL     1      -1.146  12.610  18.790  0.00  0.00    +0.000 C 
ATOM     25  C   UNL     1      -1.691  11.266  18.290  0.00  0.00    +0.000 C 
ATOM     26  C   UNL     1      -0.616  10.238  18.684  0.00  0.00    +0.000 C 
ATOM     27  C   UNL     1       0.482  11.066  19.368  0.00  0.00    +0.000 C 
ATOM     28  C   UNL     1       0.258  11.208  20.891  0.00  0.00    +0.000 C 
ATOM     29  N   UNL     1       0.283  12.333  18.658  0.00  0.00    +0.000 NA
BRANCH  29  30
ATOM     30  C   UNL     1       1.182  13.437  18.973  0.00  0.00    +0.000 C 
BRANCH  30  31
ATOM     31  C   UNL     1       2.562  13.218  18.360  0.00  0.00    +0.000 C 
BRANCH  31  32
ATOM     32  C   UNL     1       3.134  14.543  17.884  0.00  0.00    +0.000 C 
ATOM     33  N   UNL     1       3.608  15.642  17.487  0.00  0.00    +0.000 NA
ENDBRANCH  31  32
ENDBRANCH  30  31
ENDBRANCH  29  30
ENDBRANCH  20  22
ENDBRANCH  14  20
TORSDOF 5
ENDMDL
MODEL 8
REMARK VINA RESULT:      -6.9      4.662      9.672
REMARK  Name = 
REMARK  6 active torsions:
REMARK  status: ('A' for Active; 'I' for Inactive)
REMARK    1  A    between atoms: C_1  and  C_2
REMARK    2  A    between atoms: C_14  and  N_15
REMARK    3  A    between atoms: N_15  and  C_16
REMARK    4  A    between atoms: N_23  and  C_24
REMARK    5  A    between atoms: C_24  and  C_25
REMARK    6  A    between atoms: C_25  and  C_26
REMARK                            x       y       z     vdW  Elec       q    Type
REMARK                         _______ _______ _______ _____ _____    ______ ____
ROOT
ATOM      1  C   UNL     1      -1.088  16.010  22.929  0.00  0.00    +0.000 C 
ATOM      2  C   UNL     1      -1.377  14.565  23.049  0.00  0.00    +0.000 A 
ATOM      3  C   UNL     1      -0.723  13.453  22.574  0.00  0.00    +0.000 A 
ATOM      4  C   UNL     1      -1.463  12.344  23.052  0.00  0.00    +0.000 A 
ATOM      5  N   UNL     1      -1.120  11.052  22.889  0.00  0.00    +0.000 N 
ATOM      6  C   UNL     1      -0.499  10.475  21.763  0.00  0.00    +0.000 A 
ATOM      7  C   UNL     1       0.218   9.306  21.938  0.00  0.00    +0.000 A 
ATOM      8  C   UNL     1       0.906   8.755  20.880  0.00  0.00    +0.000 A 
ATOM      9  N   UNL     1       1.571   7.606  21.093  0.00  0.00    +0.000 NA
ATOM     10  C   UNL     1       2.243   7.057  20.061  0.00  0.00    +0.000 A 
ATOM     11  C   UNL     1       2.322   7.630  18.808  0.00  0.00    +0.000 A 
ATOM     12  C   UNL     1       1.632   8.819  18.594  0.00  0.00    +0.000 A 
ATOM     13  C   UNL     1       0.872   9.403  19.636  0.00  0.00    +0.000 A 
ATOM     14  C   UNL     1       0.047  10.543  19.506  0.00  0.00    +0.000 A 
ATOM     15  N   UNL     1      -0.595  11.071  20.560  0.00  0.00    +0.000 NA
ATOM     16  N   UNL     1      -2.514  12.740  23.774  0.00  0.00    +0.000 NA
ATOM     17  N   UNL     1      -2.440  14.081  23.757  0.00  0.00    +0.000 N 
ATOM     18  H   UNL     1      -1.716  10.386  23.363  0.00  0.00    +0.000 HD
ATOM     19  H   UNL     1      -3.145  14.606  24.265  0.00  0.00    +0.000 HD
ENDROOT
BRANCH  14  20
ATOM     20  N   UNL     1      -0.131  11.137  18.258  0.00  0.00    +0.000 N 
ATOM     21  H   UNL     1       0.162  12.109  18.271  0.00  0.00    +0.000 HD
BRANCH  20  22
ATOM     22  C   UNL     1      -1.313  10.860  17.431  0.00  0.00    +0.000 C 
ATOM     23  C   UNL     1      -2.144   9.682  17.969  0.00  0.00    +0.000 C 
ATOM     24  C   UNL     1      -3.415   9.450  17.131  0.00  0.00    +0.000 C 
ATOM     25  C   UNL     1      -3.122   9.304  15.632  0.00  0.00    +0.000 C 
ATOM     26  C   UNL     1      -3.141  10.743  15.089  0.00  0.00    +0.000 C 
ATOM     27  C   UNL     1      -3.463  11.616  16.310  0.00  0.00    +0.000 C 
ATOM     28  C   UNL     1      -2.194  12.068  17.069  0.00  0.00    +0.000 C 
ATOM     29  N   UNL     1      -4.252  10.648  17.078  0.00  0.00    +0.000 NA
BRANCH  29  30
ATOM     30  C   UNL     1      -4.823  11.088  18.345  0.00  0.00    +0.000 C 
BRANCH  30  31
ATOM     31  C   UNL     1      -6.346  10.990  18.328  0.00  0.00    +0.000 C 
BRANCH  31  32
ATOM     32  C   UNL     1      -6.799   9.820  19.186  0.00  0.00    +0.000 C 
ATOM     33  N   UNL     1      -7.174   8.849  19.898  0.00  0.00    +0.000 NA
ENDBRANCH  31  32
ENDBRANCH  30  31
ENDBRANCH  29  30
ENDBRANCH  20  22
ENDBRANCH  14  20
TORSDOF 5
ENDMDL
MODEL 9
REMARK VINA RESULT:      -6.9      1.501      1.868
REMARK  Name = 
REMARK  6 active torsions:
REMARK  status: ('A' for Active; 'I' for Inactive)
REMARK    1  A    between atoms: C_1  and  C_2
REMARK    2  A    between atoms: C_14  and  N_15
REMARK    3  A    between atoms: N_15  and  C_16
REMARK    4  A    between atoms: N_23  and  C_24
REMARK    5  A    between atoms: C_24  and  C_25
REMARK    6  A    between atoms: C_25  and  C_26
REMARK                            x       y       z     vdW  Elec       q    Type
REMARK                         _______ _______ _______ _____ _____    ______ ____
ROOT
ATOM      1  C   UNL     1       1.102   1.406  19.230  0.00  0.00    +0.000 C 
ATOM      2  C   UNL     1       1.442   2.545  20.108  0.00  0.00    +0.000 A 
ATOM      3  C   UNL     1       1.251   3.900  19.974  0.00  0.00    +0.000 A 
ATOM      4  C   UNL     1       1.755   4.475  21.166  0.00  0.00    +0.000 A 
ATOM      5  N   UNL     1       1.687   5.781  21.489  0.00  0.00    +0.000 N 
ATOM      6  C   UNL     1       1.801   6.878  20.611  0.00  0.00    +0.000 A 
ATOM      7  C   UNL     1       1.229   8.079  20.986  0.00  0.00    +0.000 A 
ATOM      8  C   UNL     1       1.248   9.151  20.123  0.00  0.00    +0.000 A 
ATOM      9  N   UNL     1       0.697  10.305  20.541  0.00  0.00    +0.000 NA
ATOM     10  C   UNL     1       0.716  11.362  19.703  0.00  0.00    +0.000 A 
ATOM     11  C   UNL     1       1.231  11.313  18.424  0.00  0.00    +0.000 A 
ATOM     12  C   UNL     1       1.800  10.117  17.997  0.00  0.00    +0.000 A 
ATOM     13  C   UNL     1       1.846   8.999  18.863  0.00  0.00    +0.000 A 
ATOM     14  C   UNL     1       2.491   7.773  18.581  0.00  0.00    +0.000 A 
ATOM     15  N   UNL     1       2.438   6.737  19.433  0.00  0.00    +0.000 NA
ATOM     16  N   UNL     1       2.235   3.538  21.988  0.00  0.00    +0.000 NA
ATOM     17  N   UNL     1       2.034   2.387  21.329  0.00  0.00    +0.000 N 
ATOM     18  H   UNL     1       2.023   6.013  22.414  0.00  0.00    +0.000 HD
ATOM     19  H   UNL     1       2.316   1.521  21.780  0.00  0.00    +0.000 HD
ENDROOT
BRANCH  14  20
ATOM     20  N   UNL     1       3.220   7.623  17.403  0.00  0.00    +0.000 N 
ATOM     21  H   UNL     1       2.621   7.328  16.638  0.00  0.00    +0.000 HD
BRANCH  20  22
ATOM     22  C   UNL     1       4.565   7.033  17.396  0.00  0.00    +0.000 C 
ATOM     23  C   UNL     1       4.682   5.823  18.338  0.00  0.00    +0.000 C 
ATOM     24  C   UNL     1       6.077   5.175  18.266  0.00  0.00    +0.000 C 
ATOM     25  C   UNL     1       7.213   6.182  18.486  0.00  0.00    +0.000 C 
ATOM     26  C   UNL     1       7.509   6.750  17.088  0.00  0.00    +0.000 C 
ATOM     27  C   UNL     1       6.534   6.015  16.155  0.00  0.00    +0.000 C 
ATOM     28  C   UNL     1       5.181   6.749  16.014  0.00  0.00    +0.000 C 
ATOM     29  N   UNL     1       6.409   4.760  16.903  0.00  0.00    +0.000 NA
BRANCH  29  30
ATOM     30  C   UNL     1       5.577   3.708  16.332  0.00  0.00    +0.000 C 
BRANCH  30  31
ATOM     31  C   UNL     1       4.645   3.110  17.383  0.00  0.00    +0.000 C 
BRANCH  31  32
ATOM     32  C   UNL     1       3.198   3.355  16.991  0.00  0.00    +0.000 C 
ATOM     33  N   UNL     1       1.996   3.559  16.667  0.00  0.00    +0.000 NA
ENDBRANCH  31  32
ENDBRANCH  30  31
ENDBRANCH  29  30
ENDBRANCH  20  22
ENDBRANCH  14  20
TORSDOF 5
ENDMDL
