MODEL 1
REMARK VINA RESULT:      -7.4      0.000      0.000
REMARK  Name = 
REMARK  15 active torsions:
REMARK  status: ('A' for Active; 'I' for Inactive)
REMARK    1  A    between atoms: C_1  and  C_2
REMARK    2  A    between atoms: C_2  and  C_3
REMARK    3  A    between atoms: C_3  and  C_4
REMARK    4  A    between atoms: C_4  and  C_5
REMARK    5  A    between atoms: C_5  and  N_6
REMARK    6  A    between atoms: N_6  and  C_7
REMARK    7  A    between atoms: C_7  and  C_8
REMARK    8  A    between atoms: C_8  and  O_9
REMARK    9  A    between atoms: C_8  and  C_10
REMARK   10  A    between atoms: C_10  and  O_11
REMARK   11  A    between atoms: O_11  and  C_12
REMARK   12  A    between atoms: N_24  and  C_25
REMARK   13  A    between atoms: C_25  and  C_26
REMARK   14  A    between atoms: C_27  and  C_28
REMARK   15  A    between atoms: C_27  and  C_29
REMARK                            x       y       z     vdW  Elec       q    Type
REMARK                         _______ _______ _______ _____ _____    ______ ____
ROOT
ATOM      1  C   UNL     1       1.910   7.703  19.846  0.00  0.00    +0.000 A 
ATOM      2  C   UNL     1       2.492   7.450  18.592  0.00  0.00    +0.000 A 
ATOM      3  C   UNL     1       2.435   8.388  17.567  0.00  0.00    +0.000 A 
ATOM      4  C   UNL     1       1.781   9.604  17.747  0.00  0.00    +0.000 A 
ATOM      5  C   UNL     1       1.167   9.853  18.986  0.00  0.00    +0.000 A 
ATOM      6  C   UNL     1       1.218   8.931  20.039  0.00  0.00    +0.000 A 
ATOM      7  C   UNL     1       0.497   9.514  21.139  0.00  0.00    +0.000 A 
ATOM      8  C   UNL     1       0.204   9.087  22.454  0.00  0.00    +0.000 A 
ATOM      9  C   UNL     1      -0.552   9.901  23.305  0.00  0.00    +0.000 A 
ATOM     10  C   UNL     1      -1.024  11.131  22.867  0.00  0.00    +0.000 A 
ATOM     11  C   UNL     1      -0.752  11.580  21.572  0.00  0.00    +0.000 A 
ATOM     12  C   UNL     1       0.013  10.758  20.726  0.00  0.00    +0.000 A 
ATOM     13  N   UNL     1       0.424  10.936  19.418  0.00  0.00    +0.000 N 
ENDROOT
BRANCH   1  14
ATOM     14  O   UNL     1       1.928   6.786  20.871  0.00  0.00    +0.000 OA
BRANCH  14  15
ATOM     15  C   UNL     1       1.383   5.495  20.553  0.00  0.00    +0.000 C 
BRANCH  15  16
ATOM     16  C   UNL     1       2.221   4.414  21.240  0.00  0.00    +0.000 C 
BRANCH  16  17
ATOM     17  O   UNL     1       3.548   4.417  20.682  0.00  0.00    +0.000 OA
ATOM     18  H   UNL     1       4.150   4.200  21.419  0.00  0.00    +0.000 HD
ENDBRANCH  16  17
BRANCH  16  19
ATOM     19  C   UNL     1       1.598   3.021  21.071  0.00  0.00    +0.000 C 
BRANCH  19  20
ATOM     20  N   UNL     1       0.475   3.097  20.130  0.00  0.00    +0.000 NA
ATOM     21  H   UNL     1      -0.332   2.634  20.557  0.00  0.00    +0.000 HD
BRANCH  20  22
ATOM     22  C   UNL     1       0.818   2.478  18.857  0.00  0.00    +0.000 C 
BRANCH  22  23
ATOM     23  C   UNL     1       2.163   1.768  18.986  0.00  0.00    +0.000 C 
BRANCH  23  24
ATOM     24  C   UNL     1       3.044   2.076  17.779  0.00  0.00    +0.000 C 
BRANCH  24  26
ATOM     25  C   UNL     1       3.973   4.307  17.107  0.00  0.00    +0.000 C 
ATOM     26  C   UNL     1       2.724   3.447  17.193  0.00  0.00    +0.000 C 
ENDBRANCH  24  26
ENDBRANCH  23  24
ENDBRANCH  22  23
ENDBRANCH  20  22
ENDBRANCH  19  20
ENDBRANCH  16  19
ENDBRANCH  15  16
ENDBRANCH  14  15
ENDBRANCH   1  14
BRANCH  13  27
ATOM     27  C   UNL     1       0.028  12.071  18.581  0.00  0.00    +0.000 C 
BRANCH  27  28
ATOM     28  C   UNL     1      -1.459  12.146  18.366  0.00  0.00    +0.000 C 
ATOM     29  C   UNL     1      -2.275  11.226  17.810  0.00  0.00    +0.000 C 
ATOM     30  C   UNL     1      -1.841   9.909  17.232  0.00  0.00    +0.000 C 
ATOM     31  C   UNL     1      -3.764  11.464  17.745  0.00  0.00    +0.000 C 
ENDBRANCH  27  28
ENDBRANCH  13  27
TORSDOF 12
ENDMDL
MODEL 2
REMARK VINA RESULT:      -7.4      0.998      1.477
REMARK  Name = 
REMARK  15 active torsions:
REMARK  status: ('A' for Active; 'I' for Inactive)
REMARK    1  A    between atoms: C_1  and  C_2
REMARK    2  A    between atoms: C_2  and  C_3
REMARK    3  A    between atoms: C_3  and  C_4
REMARK    4  A    between atoms: C_4  and  C_5
REMARK    5  A    between atoms: C_5  and  N_6
REMARK    6  A    between atoms: N_6  and  C_7
REMARK    7  A    between atoms: C_7  and  C_8
REMARK    8  A    between atoms: C_8  and  O_9
REMARK    9  A    between atoms: C_8  and  C_10
REMARK   10  A    between atoms: C_10  and  O_11
REMARK   11  A    between atoms: O_11  and  C_12
REMARK   12  A    between atoms: N_24  and  C_25
REMARK   13  A    between atoms: C_25  and  C_26
REMARK   14  A    between atoms: C_27  and  C_28
REMARK   15  A    between atoms: C_27  and  C_29
REMARK                            x       y       z     vdW  Elec       q    Type
REMARK                         _______ _______ _______ _____ _____    ______ ____
ROOT
ATOM      1  C   UNL     1       1.826   7.624  19.903  0.00  0.00    +0.000 A 
ATOM      2  C   UNL     1       2.433   7.378  18.659  0.00  0.00    +0.000 A 
ATOM      3  C   UNL     1       2.417   8.331  17.646  0.00  0.00    +0.000 A 
ATOM      4  C   UNL     1       1.780   9.556  17.829  0.00  0.00    +0.000 A 
ATOM      5  C   UNL     1       1.143   9.799  19.057  0.00  0.00    +0.000 A 
ATOM      6  C   UNL     1       1.152   8.862  20.097  0.00  0.00    +0.000 A 
ATOM      7  C   UNL     1       0.416   9.442  21.188  0.00  0.00    +0.000 A 
ATOM      8  C   UNL     1       0.084   9.003  22.490  0.00  0.00    +0.000 A 
ATOM      9  C   UNL     1      -0.677   9.818  23.335  0.00  0.00    +0.000 A 
ATOM     10  C   UNL     1      -1.116  11.063  22.904  0.00  0.00    +0.000 A 
ATOM     11  C   UNL     1      -0.805  11.525  21.622  0.00  0.00    +0.000 A 
ATOM     12  C   UNL     1      -0.036  10.701  20.783  0.00  0.00    +0.000 A 
ATOM     13  N   UNL     1       0.409  10.889  19.487  0.00  0.00    +0.000 N 
ENDROOT
BRANCH   1  14
ATOM     14  O   UNL     1       1.803   6.692  20.915  0.00  0.00    +0.000 OA
BRANCH  14  15
ATOM     15  C   UNL     1       2.380   5.417  20.592  0.00  0.00    +0.000 C 
BRANCH  15  16
ATOM     16  C   UNL     1       1.259   4.388  20.420  0.00  0.00    +0.000 C 
BRANCH  16  17
ATOM     17  O   UNL     1       1.412   3.352  21.407  0.00  0.00    +0.000 OA
ATOM     18  H   UNL     1       2.324   3.435  21.745  0.00  0.00    +0.000 HD
ENDBRANCH  16  17
BRANCH  16  19
ATOM     19  C   UNL     1       1.271   3.766  19.017  0.00  0.00    +0.000 C 
BRANCH  19  20
ATOM     20  N   UNL     1       2.340   2.765  18.933  0.00  0.00    +0.000 NA
ATOM     21  H   UNL     1       3.038   2.981  19.650  0.00  0.00    +0.000 HD
BRANCH  20  22
ATOM     22  C   UNL     1       2.941   2.756  17.607  0.00  0.00    +0.000 C 
BRANCH  22  23
ATOM     23  C   UNL     1       3.589   4.110  17.335  0.00  0.00    +0.000 C 
BRANCH  23  24
ATOM     24  C   UNL     1       4.771   3.952  16.381  0.00  0.00    +0.000 C 
BRANCH  24  26
ATOM     25  C   UNL     1       5.124   6.398  15.946  0.00  0.00    +0.000 C 
ATOM     26  C   UNL     1       5.740   5.124  16.500  0.00  0.00    +0.000 C 
ENDBRANCH  24  26
ENDBRANCH  23  24
ENDBRANCH  22  23
ENDBRANCH  20  22
ENDBRANCH  19  20
ENDBRANCH  16  19
ENDBRANCH  15  16
ENDBRANCH  14  15
ENDBRANCH   1  14
BRANCH  13  27
ATOM     27  C   UNL     1       0.053  12.043  18.657  0.00  0.00    +0.000 C 
BRANCH  27  28
ATOM     28  C   UNL     1      -1.427  12.151  18.413  0.00  0.00    +0.000 C 
ATOM     29  C   UNL     1      -2.240  11.280  17.780  0.00  0.00    +0.000 C 
ATOM     30  C   UNL     1      -1.807   9.998  17.127  0.00  0.00    +0.000 C 
ATOM     31  C   UNL     1      -3.724  11.541  17.696  0.00  0.00    +0.000 C 
ENDBRANCH  27  28
ENDBRANCH  13  27
TORSDOF 12
ENDMDL
MODEL 3
REMARK VINA RESULT:      -7.3      2.100      7.533
REMARK  Name = 
REMARK  15 active torsions:
REMARK  status: ('A' for Active; 'I' for Inactive)
REMARK    1  A    between atoms: C_1  and  C_2
REMARK    2  A    between atoms: C_2  and  C_3
REMARK    3  A    between atoms: C_3  and  C_4
REMARK    4  A    between atoms: C_4  and  C_5
REMARK    5  A    between atoms: C_5  and  N_6
REMARK    6  A    between atoms: N_6  and  C_7
REMARK    7  A    between atoms: C_7  and  C_8
REMARK    8  A    between atoms: C_8  and  O_9
REMARK    9  A    between atoms: C_8  and  C_10
REMARK   10  A    between atoms: C_10  and  O_11
REMARK   11  A    between atoms: O_11  and  C_12
REMARK   12  A    between atoms: N_24  and  C_25
REMARK   13  A    between atoms: C_25  and  C_26
REMARK   14  A    between atoms: C_27  and  C_28
REMARK   15  A    between atoms: C_27  and  C_29
REMARK                            x       y       z     vdW  Elec       q    Type
REMARK                         _______ _______ _______ _____ _____    ______ ____
ROOT
ATOM      1  C   UNL     1       1.505   7.929  20.084  0.00  0.00    +0.000 A 
ATOM      2  C   UNL     1       1.530   9.122  19.341  0.00  0.00    +0.000 A 
ATOM      3  C   UNL     1       2.186   9.198  18.117  0.00  0.00    +0.000 A 
ATOM      4  C   UNL     1       2.856   8.093  17.597  0.00  0.00    +0.000 A 
ATOM      5  C   UNL     1       2.865   6.905  18.347  0.00  0.00    +0.000 A 
ATOM      6  C   UNL     1       2.203   6.798  19.577  0.00  0.00    +0.000 A 
ATOM      7  C   UNL     1       2.418   5.458  20.051  0.00  0.00    +0.000 A 
ATOM      8  C   UNL     1       2.012   4.749  21.205  0.00  0.00    +0.000 A 
ATOM      9  C   UNL     1       2.405   3.419  21.388  0.00  0.00    +0.000 A 
ATOM     10  C   UNL     1       3.200   2.783  20.443  0.00  0.00    +0.000 A 
ATOM     11  C   UNL     1       3.619   3.457  19.293  0.00  0.00    +0.000 A 
ATOM     12  C   UNL     1       3.214   4.792  19.115  0.00  0.00    +0.000 A 
ATOM     13  N   UNL     1       3.477   5.691  18.099  0.00  0.00    +0.000 N 
ENDROOT
BRANCH   1  14
ATOM     14  O   UNL     1       0.886   7.830  21.309  0.00  0.00    +0.000 OA
BRANCH  14  15
ATOM     15  C   UNL     1      -0.223   8.721  21.512  0.00  0.00    +0.000 C 
BRANCH  15  16
ATOM     16  C   UNL     1       0.195   9.827  22.486  0.00  0.00    +0.000 C 
BRANCH  16  17
ATOM     17  O   UNL     1      -0.097   9.409  23.831  0.00  0.00    +0.000 OA
ATOM     18  H   UNL     1      -0.759  10.041  24.171  0.00  0.00    +0.000 HD
ENDBRANCH  16  17
BRANCH  16  19
ATOM     19  C   UNL     1      -0.530  11.147  22.190  0.00  0.00    +0.000 C 
BRANCH  19  20
ATOM     20  N   UNL     1      -1.026  11.135  20.809  0.00  0.00    +0.000 NA
ATOM     21  H   UNL     1      -0.661  10.299  20.345  0.00  0.00    +0.000 HD
BRANCH  20  22
ATOM     22  C   UNL     1      -0.622  12.342  20.101  0.00  0.00    +0.000 C 
BRANCH  22  23
ATOM     23  C   UNL     1      -0.644  12.079  18.598  0.00  0.00    +0.000 C 
BRANCH  23  24
ATOM     24  C   UNL     1      -1.497  10.853  18.286  0.00  0.00    +0.000 C 
BRANCH  24  26
ATOM     25  C   UNL     1      -3.876  11.420  17.726  0.00  0.00    +0.000 C 
ATOM     26  C   UNL     1      -2.492  11.139  17.166  0.00  0.00    +0.000 C 
ENDBRANCH  24  26
ENDBRANCH  23  24
ENDBRANCH  22  23
ENDBRANCH  20  22
ENDBRANCH  19  20
ENDBRANCH  16  19
ENDBRANCH  15  16
ENDBRANCH  14  15
ENDBRANCH   1  14
BRANCH  13  27
ATOM     27  C   UNL     1       4.375   5.417  16.973  0.00  0.00    +0.000 C 
BRANCH  27  28
ATOM     28  C   UNL     1       5.552   6.352  16.925  0.00  0.00    +0.000 C 
ATOM     29  C   UNL     1       6.608   6.417  17.761  0.00  0.00    +0.000 C 
ATOM     30  C   UNL     1       6.809   5.564  18.982  0.00  0.00    +0.000 C 
ATOM     31  C   UNL     1       7.730   7.392  17.503  0.00  0.00    +0.000 C 
ENDBRANCH  27  28
ENDBRANCH  13  27
TORSDOF 12
ENDMDL
MODEL 4
REMARK VINA RESULT:      -7.0      1.455      2.458
REMARK  Name = 
REMARK  15 active torsions:
REMARK  status: ('A' for Active; 'I' for Inactive)
REMARK    1  A    between atoms: C_1  and  C_2
REMARK    2  A    between atoms: C_2  and  C_3
REMARK    3  A    between atoms: C_3  and  C_4
REMARK    4  A    between atoms: C_4  and  C_5
REMARK    5  A    between atoms: C_5  and  N_6
REMARK    6  A    between atoms: N_6  and  C_7
REMARK    7  A    between atoms: C_7  and  C_8
REMARK    8  A    between atoms: C_8  and  O_9
REMARK    9  A    between atoms: C_8  and  C_10
REMARK   10  A    between atoms: C_10  and  O_11
REMARK   11  A    between atoms: O_11  and  C_12
REMARK   12  A    between atoms: N_24  and  C_25
REMARK   13  A    between atoms: C_25  and  C_26
REMARK   14  A    between atoms: C_27  and  C_28
REMARK   15  A    between atoms: C_27  and  C_29
REMARK                            x       y       z     vdW  Elec       q    Type
REMARK                         _______ _______ _______ _____ _____    ______ ____
ROOT
ATOM      1  C   UNL     1       1.884   7.484  19.834  0.00  0.00    +0.000 A 
ATOM      2  C   UNL     1       2.495   7.248  18.590  0.00  0.00    +0.000 A 
ATOM      3  C   UNL     1       2.533   8.229  17.606  0.00  0.00    +0.000 A 
ATOM      4  C   UNL     1       1.949   9.476  17.817  0.00  0.00    +0.000 A 
ATOM      5  C   UNL     1       1.308   9.711  19.045  0.00  0.00    +0.000 A 
ATOM      6  C   UNL     1       1.263   8.745  20.058  0.00  0.00    +0.000 A 
ATOM      7  C   UNL     1       0.540   9.325  21.157  0.00  0.00    +0.000 A 
ATOM      8  C   UNL     1       0.173   8.864  22.441  0.00  0.00    +0.000 A 
ATOM      9  C   UNL     1      -0.562   9.687  23.301  0.00  0.00    +0.000 A 
ATOM     10  C   UNL     1      -0.941  10.962  22.902  0.00  0.00    +0.000 A 
ATOM     11  C   UNL     1      -0.594  11.447  21.638  0.00  0.00    +0.000 A 
ATOM     12  C   UNL     1       0.149  10.614  20.783  0.00  0.00    +0.000 A 
ATOM     13  N   UNL     1       0.618  10.820  19.499  0.00  0.00    +0.000 N 
ENDROOT
BRANCH   1  14
ATOM     14  O   UNL     1       1.808   6.525  20.818  0.00  0.00    +0.000 OA
BRANCH  14  15
ATOM     15  C   UNL     1       2.448   5.276  20.512  0.00  0.00    +0.000 C 
BRANCH  15  16
ATOM     16  C   UNL     1       1.543   4.126  20.963  0.00  0.00    +0.000 C 
BRANCH  16  17
ATOM     17  O   UNL     1       2.166   3.438  22.063  0.00  0.00    +0.000 OA
ATOM     18  H   UNL     1       1.613   3.626  22.845  0.00  0.00    +0.000 HD
ENDBRANCH  16  17
BRANCH  16  19
ATOM     19  C   UNL     1       1.277   3.134  19.823  0.00  0.00    +0.000 C 
BRANCH  19  20
ATOM     20  N   UNL     1       1.608   3.762  18.539  0.00  0.00    +0.000 NA
ATOM     21  H   UNL     1       0.752   3.819  17.980  0.00  0.00    +0.000 HD
BRANCH  20  22
ATOM     22  C   UNL     1       2.638   3.006  17.840  0.00  0.00    +0.000 C 
BRANCH  22  23
ATOM     23  C   UNL     1       3.469   3.956  16.982  0.00  0.00    +0.000 C 
BRANCH  23  24
ATOM     24  C   UNL     1       4.868   4.117  17.570  0.00  0.00    +0.000 C 
BRANCH  24  26
ATOM     25  C   UNL     1       5.366   4.721  15.187  0.00  0.00    +0.000 C 
ATOM     26  C   UNL     1       5.930   4.147  16.476  0.00  0.00    +0.000 C 
ENDBRANCH  24  26
ENDBRANCH  23  24
ENDBRANCH  22  23
ENDBRANCH  20  22
ENDBRANCH  19  20
ENDBRANCH  16  19
ENDBRANCH  15  16
ENDBRANCH  14  15
ENDBRANCH   1  14
BRANCH  13  27
ATOM     27  C   UNL     1       0.323  12.012  18.700  0.00  0.00    +0.000 C 
BRANCH  27  28
ATOM     28  C   UNL     1       1.413  13.046  18.772  0.00  0.00    +0.000 C 
ATOM     29  C   UNL     1       1.296  14.387  18.869  0.00  0.00    +0.000 C 
ATOM     30  C   UNL     1       0.001  15.151  18.882  0.00  0.00    +0.000 C 
ATOM     31  C   UNL     1       2.522  15.255  18.998  0.00  0.00    +0.000 C 
ENDBRANCH  27  28
ENDBRANCH  13  27
TORSDOF 12
ENDMDL
MODEL 5
REMARK VINA RESULT:      -6.9      2.574      8.354
REMARK  Name = 
REMARK  15 active torsions:
REMARK  status: ('A' for Active; 'I' for Inactive)
REMARK    1  A    between atoms: C_1  and  C_2
REMARK    2  A    between atoms: C_2  and  C_3
REMARK    3  A    between atoms: C_3  and  C_4
REMARK    4  A    between atoms: C_4  and  C_5
REMARK    5  A    between atoms: C_5  and  N_6
REMARK    6  A    between atoms: N_6  and  C_7
REMARK    7  A    between atoms: C_7  and  C_8
REMARK    8  A    between atoms: C_8  and  O_9
REMARK    9  A    between atoms: C_8  and  C_10
REMARK   10  A    between atoms: C_10  and  O_11
REMARK   11  A    between atoms: O_11  and  C_12
REMARK   12  A    between atoms: N_24  and  C_25
REMARK   13  A    between atoms: C_25  and  C_26
REMARK   14  A    between atoms: C_27  and  C_28
REMARK   15  A    between atoms: C_27  and  C_29
REMARK                            x       y       z     vdW  Elec       q    Type
REMARK                         _______ _______ _______ _____ _____    ______ ____
ROOT
ATOM      1  C   UNL     1       1.544   7.826  20.083  0.00  0.00    +0.000 A 
ATOM      2  C   UNL     1       1.568   9.016  19.334  0.00  0.00    +0.000 A 
ATOM      3  C   UNL     1       2.220   9.084  18.108  0.00  0.00    +0.000 A 
ATOM      4  C   UNL     1       2.887   7.976  17.591  0.00  0.00    +0.000 A 
ATOM      5  C   UNL     1       2.896   6.792  18.347  0.00  0.00    +0.000 A 
ATOM      6  C   UNL     1       2.239   6.692  19.580  0.00  0.00    +0.000 A 
ATOM      7  C   UNL     1       2.454   5.353  20.060  0.00  0.00    +0.000 A 
ATOM      8  C   UNL     1       2.050   4.651  21.218  0.00  0.00    +0.000 A 
ATOM      9  C   UNL     1       2.442   3.321  21.408  0.00  0.00    +0.000 A 
ATOM     10  C   UNL     1       3.233   2.680  20.463  0.00  0.00    +0.000 A 
ATOM     11  C   UNL     1       3.649   3.347  19.309  0.00  0.00    +0.000 A 
ATOM     12  C   UNL     1       3.246   4.682  19.125  0.00  0.00    +0.000 A 
ATOM     13  N   UNL     1       3.507   5.576  18.103  0.00  0.00    +0.000 N 
ENDROOT
BRANCH   1  14
ATOM     14  O   UNL     1       0.928   7.735  21.310  0.00  0.00    +0.000 OA
BRANCH  14  15
ATOM     15  C   UNL     1      -0.130   8.679  21.541  0.00  0.00    +0.000 C 
BRANCH  15  16
ATOM     16  C   UNL     1       0.430   9.881  22.306  0.00  0.00    +0.000 C 
BRANCH  16  17
ATOM     17  O   UNL     1       0.276   9.657  23.719  0.00  0.00    +0.000 OA
ATOM     18  H   UNL     1       1.179   9.569  24.078  0.00  0.00    +0.000 HD
ENDBRANCH  16  17
BRANCH  16  19
ATOM     19  C   UNL     1      -0.281  11.184  21.913  0.00  0.00    +0.000 C 
BRANCH  19  20
ATOM     20  N   UNL     1      -0.764  11.863  23.121  0.00  0.00    +0.000 NA
ATOM     21  H   UNL     1      -1.581  11.355  23.469  0.00  0.00    +0.000 HD
BRANCH  20  22
ATOM     22  C   UNL     1      -1.094  13.253  22.840  0.00  0.00    +0.000 C 
BRANCH  22  23
ATOM     23  C   UNL     1      -2.343  13.645  23.623  0.00  0.00    +0.000 C 
BRANCH  23  24
ATOM     24  C   UNL     1      -3.426  12.582  23.464  0.00  0.00    +0.000 C 
BRANCH  24  26
ATOM     25  C   UNL     1      -5.440  13.450  22.246  0.00  0.00    +0.000 C 
ATOM     26  C   UNL     1      -4.125  12.700  22.114  0.00  0.00    +0.000 C 
ENDBRANCH  24  26
ENDBRANCH  23  24
ENDBRANCH  22  23
ENDBRANCH  20  22
ENDBRANCH  19  20
ENDBRANCH  16  19
ENDBRANCH  15  16
ENDBRANCH  14  15
ENDBRANCH   1  14
BRANCH  13  27
ATOM     27  C   UNL     1       4.400   5.294  16.976  0.00  0.00    +0.000 C 
BRANCH  27  28
ATOM     28  C   UNL     1       5.562   6.246  16.902  0.00  0.00    +0.000 C 
ATOM     29  C   UNL     1       6.606   6.366  17.748  0.00  0.00    +0.000 C 
ATOM     30  C   UNL     1       6.804   5.572  19.008  0.00  0.00    +0.000 C 
ATOM     31  C   UNL     1       7.715   7.348  17.461  0.00  0.00    +0.000 C 
ENDBRANCH  27  28
ENDBRANCH  13  27
TORSDOF 12
ENDMDL
MODEL 6
REMARK VINA RESULT:      -6.9      1.960      7.817
REMARK  Name = 
REMARK  15 active torsions:
REMARK  status: ('A' for Active; 'I' for Inactive)
REMARK    1  A    between atoms: C_1  and  C_2
REMARK    2  A    between atoms: C_2  and  C_3
REMARK    3  A    between atoms: C_3  and  C_4
REMARK    4  A    between atoms: C_4  and  C_5
REMARK    5  A    between atoms: C_5  and  N_6
REMARK    6  A    between atoms: N_6  and  C_7
REMARK    7  A    between atoms: C_7  and  C_8
REMARK    8  A    between atoms: C_8  and  O_9
REMARK    9  A    between atoms: C_8  and  C_10
REMARK   10  A    between atoms: C_10  and  O_11
REMARK   11  A    between atoms: O_11  and  C_12
REMARK   12  A    between atoms: N_24  and  C_25
REMARK   13  A    between atoms: C_25  and  C_26
REMARK   14  A    between atoms: C_27  and  C_28
REMARK   15  A    between atoms: C_27  and  C_29
REMARK                            x       y       z     vdW  Elec       q    Type
REMARK                         _______ _______ _______ _____ _____    ______ ____
ROOT
ATOM      1  C   UNL     1       2.074   7.350  19.460  0.00  0.00    +0.000 A 
ATOM      2  C   UNL     1       2.379   8.384  18.559  0.00  0.00    +0.000 A 
ATOM      3  C   UNL     1       3.318   8.208  17.548  0.00  0.00    +0.000 A 
ATOM      4  C   UNL     1       4.001   7.002  17.410  0.00  0.00    +0.000 A 
ATOM      5  C   UNL     1       3.728   5.973  18.326  0.00  0.00    +0.000 A 
ATOM      6  C   UNL     1       2.779   6.119  19.347  0.00  0.00    +0.000 A 
ATOM      7  C   UNL     1       2.760   4.882  20.079  0.00  0.00    +0.000 A 
ATOM      8  C   UNL     1       2.027   4.413  21.193  0.00  0.00    +0.000 A 
ATOM      9  C   UNL     1       2.252   3.125  21.692  0.00  0.00    +0.000 A 
ATOM     10  C   UNL     1       3.198   2.298  21.103  0.00  0.00    +0.000 A 
ATOM     11  C   UNL     1       3.940   2.732  20.001  0.00  0.00    +0.000 A 
ATOM     12  C   UNL     1       3.702   4.025  19.504  0.00  0.00    +0.000 A 
ATOM     13  N   UNL     1       4.280   4.712  18.451  0.00  0.00    +0.000 N 
ENDROOT
BRANCH   1  14
ATOM     14  O   UNL     1       1.169   7.501  20.485  0.00  0.00    +0.000 OA
BRANCH  14  15
ATOM     15  C   UNL     1       1.494   8.516  21.449  0.00  0.00    +0.000 C 
BRANCH  15  16
ATOM     16  C   UNL     1       0.205   9.207  21.903  0.00  0.00    +0.000 C 
BRANCH  16  17
ATOM     17  O   UNL     1      -0.862   8.242  21.942  0.00  0.00    +0.000 OA
ATOM     18  H   UNL     1      -0.913   7.934  22.867  0.00  0.00    +0.000 HD
ENDBRANCH  16  17
BRANCH  16  19
ATOM     19  C   UNL     1      -0.181  10.359  20.965  0.00  0.00    +0.000 C 
BRANCH  19  20
ATOM     20  N   UNL     1      -0.735   9.815  19.721  0.00  0.00    +0.000 NA
ATOM     21  H   UNL     1      -0.260   8.931  19.518  0.00  0.00    +0.000 HD
BRANCH  20  22
ATOM     22  C   UNL     1      -0.574  10.758  18.623  0.00  0.00    +0.000 C 
BRANCH  22  23
ATOM     23  C   UNL     1      -1.684  10.539  17.600  0.00  0.00    +0.000 C 
BRANCH  23  24
ATOM     24  C   UNL     1      -2.853  11.480  17.874  0.00  0.00    +0.000 C 
BRANCH  24  26
ATOM     25  C   UNL     1      -5.200  11.873  17.079  0.00  0.00    +0.000 C 
ATOM     26  C   UNL     1      -4.185  10.830  17.515  0.00  0.00    +0.000 C 
ENDBRANCH  24  26
ENDBRANCH  23  24
ENDBRANCH  22  23
ENDBRANCH  20  22
ENDBRANCH  19  20
ENDBRANCH  16  19
ENDBRANCH  15  16
ENDBRANCH  14  15
ENDBRANCH   1  14
BRANCH  13  27
ATOM     27  C   UNL     1       5.399   4.201  17.654  0.00  0.00    +0.000 C 
BRANCH  27  28
ATOM     28  C   UNL     1       5.042   4.007  16.206  0.00  0.00    +0.000 C 
ATOM     29  C   UNL     1       5.776   4.297  15.113  0.00  0.00    +0.000 C 
ATOM     30  C   UNL     1       7.135   4.940  15.119  0.00  0.00    +0.000 C 
ATOM     31  C   UNL     1       5.263   3.962  13.734  0.00  0.00    +0.000 C 
ENDBRANCH  27  28
ENDBRANCH  13  27
TORSDOF 12
ENDMDL
MODEL 7
REMARK VINA RESULT:      -6.8      1.726      7.520
REMARK  Name = 
REMARK  15 active torsions:
REMARK  status: ('A' for Active; 'I' for Inactive)
REMARK    1  A    between atoms: C_1  and  C_2
REMARK    2  A    between atoms: C_2  and  C_3
REMARK    3  A    between atoms: C_3  and  C_4
REMARK    4  A    between atoms: C_4  and  C_5
REMARK    5  A    between atoms: C_5  and  N_6
REMARK    6  A    between atoms: N_6  and  C_7
REMARK    7  A    between atoms: C_7  and  C_8
REMARK    8  A    between atoms: C_8  and  O_9
REMARK    9  A    between atoms: C_8  and  C_10
REMARK   10  A    between atoms: C_10  and  O_11
REMARK   11  A    between atoms: O_11  and  C_12
REMARK   12  A    between atoms: N_24  and  C_25
REMARK   13  A    between atoms: C_25  and  C_26
REMARK   14  A    between atoms: C_27  and  C_28
REMARK   15  A    between atoms: C_27  and  C_29
REMARK                            x       y       z     vdW  Elec       q    Type
REMARK                         _______ _______ _______ _____ _____    ______ ____
ROOT
ATOM      1  C   UNL     1       1.815   7.506  19.918  0.00  0.00    +0.000 A 
ATOM      2  C   UNL     1       2.061   8.598  19.068  0.00  0.00    +0.000 A 
ATOM      3  C   UNL     1       2.589   8.417  17.794  0.00  0.00    +0.000 A 
ATOM      4  C   UNL     1       2.908   7.144  17.327  0.00  0.00    +0.000 A 
ATOM      5  C   UNL     1       2.696   6.049  18.181  0.00  0.00    +0.000 A 
ATOM      6  C   UNL     1       2.156   6.201  19.464  0.00  0.00    +0.000 A 
ATOM      7  C   UNL     1       2.078   4.887  20.043  0.00  0.00    +0.000 A 
ATOM      8  C   UNL     1       1.626   4.388  21.286  0.00  0.00    +0.000 A 
ATOM      9  C   UNL     1       1.693   3.018  21.560  0.00  0.00    +0.000 A 
ATOM     10  C   UNL     1       2.205   2.136  20.618  0.00  0.00    +0.000 A 
ATOM     11  C   UNL     1       2.661   2.597  19.381  0.00  0.00    +0.000 A 
ATOM     12  C   UNL     1       2.584   3.976  19.112  0.00  0.00    +0.000 A 
ATOM     13  N   UNL     1       2.959   4.705  17.999  0.00  0.00    +0.000 N 
ENDROOT
BRANCH   1  14
ATOM     14  O   UNL     1       1.317   7.655  21.192  0.00  0.00    +0.000 OA
BRANCH  14  15
ATOM     15  C   UNL     1       1.425   8.976  21.745  0.00  0.00    +0.000 C 
BRANCH  15  16
ATOM     16  C   UNL     1       0.174   9.274  22.577  0.00  0.00    +0.000 C 
BRANCH  16  17
ATOM     17  O   UNL     1      -0.801   8.241  22.354  0.00  0.00    +0.000 OA
ATOM     18  H   UNL     1      -1.131   7.987  23.237  0.00  0.00    +0.000 HD
ENDBRANCH  16  17
BRANCH  16  19
ATOM     19  C   UNL     1      -0.433  10.638  22.218  0.00  0.00    +0.000 C 
BRANCH  19  20
ATOM     20  N   UNL     1      -0.920  10.610  20.835  0.00  0.00    +0.000 NA
ATOM     21  H   UNL     1      -0.454   9.840  20.347  0.00  0.00    +0.000 HD
BRANCH  20  22
ATOM     22  C   UNL     1      -0.668  11.879  20.168  0.00  0.00    +0.000 C 
BRANCH  22  23
ATOM     23  C   UNL     1      -0.482  11.638  18.673  0.00  0.00    +0.000 C 
BRANCH  23  24
ATOM     24  C   UNL     1      -0.850  10.200  18.317  0.00  0.00    +0.000 C 
BRANCH  24  26
ATOM     25  C   UNL     1      -3.212   9.681  17.651  0.00  0.00    +0.000 C 
ATOM     26  C   UNL     1      -1.850  10.151  17.168  0.00  0.00    +0.000 C 
ENDBRANCH  24  26
ENDBRANCH  23  24
ENDBRANCH  22  23
ENDBRANCH  20  22
ENDBRANCH  19  20
ENDBRANCH  16  19
ENDBRANCH  15  16
ENDBRANCH  14  15
ENDBRANCH   1  14
BRANCH  13  27
ATOM     27  C   UNL     1       3.642   4.132  16.835  0.00  0.00    +0.000 C 
BRANCH  27  28
ATOM     28  C   UNL     1       5.134   4.316  16.887  0.00  0.00    +0.000 C 
ATOM     29  C   UNL     1       6.003   4.430  15.861  0.00  0.00    +0.000 C 
ATOM     30  C   UNL     1       5.648   4.351  14.403  0.00  0.00    +0.000 C 
ATOM     31  C   UNL     1       7.468   4.677  16.123  0.00  0.00    +0.000 C 
ENDBRANCH  27  28
ENDBRANCH  13  27
TORSDOF 12
ENDMDL
MODEL 8
REMARK VINA RESULT:      -6.8      2.029      7.744
REMARK  Name = 
REMARK  15 active torsions:
REMARK  status: ('A' for Active; 'I' for Inactive)
REMARK    1  A    between atoms: C_1  and  C_2
REMARK    2  A    between atoms: C_2  and  C_3
REMARK    3  A    between atoms: C_3  and  C_4
REMARK    4  A    between atoms: C_4  and  C_5
REMARK    5  A    between atoms: C_5  and  N_6
REMARK    6  A    between atoms: N_6  and  C_7
REMARK    7  A    between atoms: C_7  and  C_8
REMARK    8  A    between atoms: C_8  and  O_9
REMARK    9  A    between atoms: C_8  and  C_10
REMARK   10  A    between atoms: C_10  and  O_11
REMARK   11  A    between atoms: O_11  and  C_12
REMARK   12  A    between atoms: N_24  and  C_25
REMARK   13  A    between atoms: C_25  and  C_26
REMARK   14  A    between atoms: C_27  and  C_28
REMARK   15  A    between atoms: C_27  and  C_29
REMARK                            x       y       z     vdW  Elec       q    Type
REMARK                         _______ _______ _______ _____ _____    ______ ____
ROOT
ATOM      1  C   UNL     1       1.748   7.794  20.011  0.00  0.00    +0.000 A 
ATOM      2  C   UNL     1       1.837   8.926  19.183  0.00  0.00    +0.000 A 
ATOM      3  C   UNL     1       2.396   8.849  17.912  0.00  0.00    +0.000 A 
ATOM      4  C   UNL     1       2.902   7.646  17.426  0.00  0.00    +0.000 A 
ATOM      5  C   UNL     1       2.848   6.516  18.258  0.00  0.00    +0.000 A 
ATOM      6  C   UNL     1       2.281   6.562  19.538  0.00  0.00    +0.000 A 
ATOM      7  C   UNL     1       2.393   5.240  20.092  0.00  0.00    +0.000 A 
ATOM      8  C   UNL     1       2.011   4.656  21.321  0.00  0.00    +0.000 A 
ATOM      9  C   UNL     1       2.276   3.306  21.572  0.00  0.00    +0.000 A 
ATOM     10  C   UNL     1       2.921   2.527  20.621  0.00  0.00    +0.000 A 
ATOM     11  C   UNL     1       3.313   3.074  19.396  0.00  0.00    +0.000 A 
ATOM     12  C   UNL     1       3.036   4.431  19.152  0.00  0.00    +0.000 A 
ATOM     13  N   UNL     1       3.308   5.228  18.055  0.00  0.00    +0.000 N 
ENDROOT
BRANCH   1  14
ATOM     14  O   UNL     1       1.224   7.843  21.282  0.00  0.00    +0.000 OA
BRANCH  14  15
ATOM     15  C   UNL     1      -0.021   8.549  21.408  0.00  0.00    +0.000 C 
BRANCH  15  16
ATOM     16  C   UNL     1       0.153   9.698  22.406  0.00  0.00    +0.000 C 
BRANCH  16  17
ATOM     17  O   UNL     1      -0.738   9.499  23.517  0.00  0.00    +0.000 OA
ATOM     18  H   UNL     1      -0.267   8.914  24.140  0.00  0.00    +0.000 HD
ENDBRANCH  16  17
BRANCH  16  19
ATOM     19  C   UNL     1      -0.131  11.060  21.758  0.00  0.00    +0.000 C 
BRANCH  19  20
ATOM     20  N   UNL     1      -0.794  10.859  20.464  0.00  0.00    +0.000 NA
ATOM     21  H   UNL     1      -0.120  10.434  19.822  0.00  0.00    +0.000 HD
BRANCH  20  22
ATOM     22  C   UNL     1      -1.296  12.119  19.935  0.00  0.00    +0.000 C 
BRANCH  22  23
ATOM     23  C   UNL     1      -0.425  12.559  18.762  0.00  0.00    +0.000 C 
BRANCH  23  24
ATOM     24  C   UNL     1       0.518  13.679  19.191  0.00  0.00    +0.000 C 
BRANCH  24  26
ATOM     25  C   UNL     1       2.518  12.602  18.125  0.00  0.00    +0.000 C 
ATOM     26  C   UNL     1       1.934  13.156  19.414  0.00  0.00    +0.000 C 
ENDBRANCH  24  26
ENDBRANCH  23  24
ENDBRANCH  22  23
ENDBRANCH  20  22
ENDBRANCH  19  20
ENDBRANCH  16  19
ENDBRANCH  15  16
ENDBRANCH  14  15
ENDBRANCH   1  14
BRANCH  13  27
ATOM     27  C   UNL     1       4.077   4.785  16.889  0.00  0.00    +0.000 C 
BRANCH  27  28
ATOM     28  C   UNL     1       5.491   4.402  17.234  0.00  0.00    +0.000 C 
ATOM     29  C   UNL     1       6.545   5.209  17.475  0.00  0.00    +0.000 C 
ATOM     30  C   UNL     1       6.530   6.710  17.402  0.00  0.00    +0.000 C 
ATOM     31  C   UNL     1       7.878   4.627  17.874  0.00  0.00    +0.000 C 
ENDBRANCH  27  28
ENDBRANCH  13  27
TORSDOF 12
ENDMDL
MODEL 9
REMARK VINA RESULT:      -6.8      1.412      2.004
REMARK  Name = 
REMARK  15 active torsions:
REMARK  status: ('A' for Active; 'I' for Inactive)
REMARK    1  A    between atoms: C_1  and  C_2
REMARK    2  A    between atoms: C_2  and  C_3
REMARK    3  A    between atoms: C_3  and  C_4
REMARK    4  A    between atoms: C_4  and  C_5
REMARK    5  A    between atoms: C_5  and  N_6
REMARK    6  A    between atoms: N_6  and  C_7
REMARK    7  A    between atoms: C_7  and  C_8
REMARK    8  A    between atoms: C_8  and  O_9
REMARK    9  A    between atoms: C_8  and  C_10
REMARK   10  A    between atoms: C_10  and  O_11
REMARK   11  A    between atoms: O_11  and  C_12
REMARK   12  A    between atoms: N_24  and  C_25
REMARK   13  A    between atoms: C_25  and  C_26
REMARK   14  A    between atoms: C_27  and  C_28
REMARK   15  A    between atoms: C_27  and  C_29
REMARK                            x       y       z     vdW  Elec       q    Type
REMARK                         _______ _______ _______ _____ _____    ______ ____
ROOT
ATOM      1  C   UNL     1       1.951   7.647  19.777  0.00  0.00    +0.000 A 
ATOM      2  C   UNL     1       2.492   7.477  18.491  0.00  0.00    +0.000 A 
ATOM      3  C   UNL     1       2.344   8.453  17.511  0.00  0.00    +0.000 A 
ATOM      4  C   UNL     1       1.637   9.624  17.771  0.00  0.00    +0.000 A 
ATOM      5  C   UNL     1       1.065   9.789  19.043  0.00  0.00    +0.000 A 
ATOM      6  C   UNL     1       1.207   8.828  20.052  0.00  0.00    +0.000 A 
ATOM      7  C   UNL     1       0.505   9.325  21.204  0.00  0.00    +0.000 A 
ATOM      8  C   UNL     1       0.289   8.830  22.510  0.00  0.00    +0.000 A 
ATOM      9  C   UNL     1      -0.470   9.566  23.426  0.00  0.00    +0.000 A 
ATOM     10  C   UNL     1      -1.022  10.787  23.061  0.00  0.00    +0.000 A 
ATOM     11  C   UNL     1      -0.829  11.304  21.777  0.00  0.00    +0.000 A 
ATOM     12  C   UNL     1      -0.059  10.558  20.866  0.00  0.00    +0.000 A 
ATOM     13  N   UNL     1       0.287  10.812  19.552  0.00  0.00    +0.000 N 
ENDROOT
BRANCH   1  14
ATOM     14  O   UNL     1       2.059   6.689  20.760  0.00  0.00    +0.000 OA
BRANCH  14  15
ATOM     15  C   UNL     1       2.869   5.552  20.425  0.00  0.00    +0.000 C 
BRANCH  15  16
ATOM     16  C   UNL     1       1.995   4.294  20.432  0.00  0.00    +0.000 C 
BRANCH  16  17
ATOM     17  O   UNL     1       2.013   3.711  21.747  0.00  0.00    +0.000 OA
ATOM     18  H   UNL     1       1.556   4.347  22.329  0.00  0.00    +0.000 HD
ENDBRANCH  16  17
BRANCH  16  19
ATOM     19  C   UNL     1       2.481   3.261  19.406  0.00  0.00    +0.000 C 
BRANCH  19  20
ATOM     20  N   UNL     1       3.809   3.645  18.914  0.00  0.00    +0.000 NA
ATOM     21  H   UNL     1       3.892   4.663  18.977  0.00  0.00    +0.000 HD
BRANCH  20  22
ATOM     22  C   UNL     1       4.009   3.189  17.545  0.00  0.00    +0.000 C 
BRANCH  22  23
ATOM     23  C   UNL     1       4.436   4.369  16.676  0.00  0.00    +0.000 C 
BRANCH  23  24
ATOM     24  C   UNL     1       5.779   4.081  16.012  0.00  0.00    +0.000 C 
BRANCH  24  26
ATOM     25  C   UNL     1       7.621   4.592  17.637  0.00  0.00    +0.000 C 
ATOM     26  C   UNL     1       6.836   5.094  16.437  0.00  0.00    +0.000 C 
ENDBRANCH  24  26
ENDBRANCH  23  24
ENDBRANCH  22  23
ENDBRANCH  20  22
ENDBRANCH  19  20
ENDBRANCH  16  19
ENDBRANCH  15  16
ENDBRANCH  14  15
ENDBRANCH   1  14
BRANCH  13  27
ATOM     27  C   UNL     1      -0.202  11.959  18.782  0.00  0.00    +0.000 C 
BRANCH  27  28
ATOM     28  C   UNL     1      -1.381  11.618  17.912  0.00  0.00    +0.000 C 
ATOM     29  C   UNL     1      -2.695  11.741  18.191  0.00  0.00    +0.000 C 
ATOM     30  C   UNL     1      -3.270  12.223  19.494  0.00  0.00    +0.000 C 
ATOM     31  C   UNL     1      -3.734  11.402  17.151  0.00  0.00    +0.000 C 
ENDBRANCH  27  28
ENDBRANCH  13  27
TORSDOF 12
ENDMDL
