MODEL 1
REMARK VINA RESULT:      -8.6      0.000      0.000
REMARK  Name = 
REMARK  2 active torsions:
REMARK  status: ('A' for Active; 'I' for Inactive)
REMARK    1  A    between atoms: C_1  and  N_2
REMARK    2  A    between atoms: C_8  and  C_9
REMARK                            x       y       z     vdW  Elec       q    Type
REMARK                         _______ _______ _______ _____ _____    ______ ____
ROOT
ATOM      1  C   UNL     1       2.198  10.265  18.332  0.00  0.00    +0.000 C 
ATOM      2  N   UNL     1       2.146   8.885  18.751  0.00  0.00    +0.000 N 
ATOM      3  C   UNL     1       1.735   8.457  20.070  0.00  0.00    +0.000 C 
ATOM      4  C   UNL     1       1.903   6.973  19.945  0.00  0.00    +0.000 C 
ATOM      5  C   UNL     1       2.349   6.619  18.727  0.00  0.00    +0.000 C 
ATOM      6  C   UNL     1       2.491   7.834  17.926  0.00  0.00    +0.000 C 
ATOM      7  O   UNL     1       2.844   7.876  16.762  0.00  0.00    +0.000 OA
ATOM      8  C   UNL     1       2.681   5.214  18.317  0.00  0.00    +0.000 C 
ATOM      9  C   UNL     1       2.350   4.276  19.448  0.00  0.00    +0.000 C 
ATOM     10  C   UNL     1       1.890   4.670  20.650  0.00  0.00    +0.000 C 
ATOM     11  C   UNL     1       1.636   3.574  21.644  0.00  0.00    +0.000 C 
ATOM     12  C   UNL     1       1.978   2.233  20.989  0.00  0.00    +0.000 C 
ATOM     13  S   UNL     1       2.527   2.581  19.326  0.00  0.00    +0.000 S 
ATOM     14  O   UNL     1       1.542   2.061  18.397  0.00  0.00    +0.000 OA
ATOM     15  O   UNL     1       3.921   2.214  19.238  0.00  0.00    +0.000 OA
ATOM     16  N   UNL     1       1.681   6.014  20.925  0.00  0.00    +0.000 N 
ATOM     17  H   UNL     1       1.324   6.297  21.832  0.00  0.00    +0.000 HD
ENDROOT
BRANCH   8  18
ATOM     18  C   UNL     1       4.146   5.100  17.926  0.00  0.00    +0.000 A 
ATOM     19  C   UNL     1       5.161   5.332  18.867  0.00  0.00    +0.000 A 
ATOM     20  C   UNL     1       6.500   5.167  18.514  0.00  0.00    +0.000 A 
ATOM     21  C   UNL     1       6.827   4.782  17.218  0.00  0.00    +0.000 A 
ATOM     22  F   UNL     1       8.121   4.614  16.905  0.00  0.00    +0.000 F 
ATOM     23  C   UNL     1       5.834   4.567  16.267  0.00  0.00    +0.000 A 
ATOM     24 BR   UNL     1       6.273   4.031  14.508  0.00  0.00    +0.000 Br
ATOM     25  C   UNL     1       4.497   4.730  16.615  0.00  0.00    +0.000 A 
ENDBRANCH   8  18
TORSDOF 1
ENDMDL
MODEL 2
REMARK VINA RESULT:      -8.2      1.115      1.487
REMARK  Name = 
REMARK  2 active torsions:
REMARK  status: ('A' for Active; 'I' for Inactive)
REMARK    1  A    between atoms: C_1  and  N_2
REMARK    2  A    between atoms: C_8  and  C_9
REMARK                            x       y       z     vdW  Elec       q    Type
REMARK                         _______ _______ _______ _____ _____    ______ ____
ROOT
ATOM      1  C   UNL     1       2.249  10.149  18.310  0.00  0.00    +0.000 C 
ATOM      2  N   UNL     1       2.192   8.774  18.743  0.00  0.00    +0.000 N 
ATOM      3  C   UNL     1       1.858   8.364  20.089  0.00  0.00    +0.000 C 
ATOM      4  C   UNL     1       1.983   6.876  19.966  0.00  0.00    +0.000 C 
ATOM      5  C   UNL     1       2.341   6.504  18.725  0.00  0.00    +0.000 C 
ATOM      6  C   UNL     1       2.459   7.710  17.907  0.00  0.00    +0.000 C 
ATOM      7  O   UNL     1       2.737   7.736  16.722  0.00  0.00    +0.000 OA
ATOM      8  C   UNL     1       2.613   5.088  18.306  0.00  0.00    +0.000 C 
ATOM      9  C   UNL     1       2.335   4.166  19.463  0.00  0.00    +0.000 C 
ATOM     10  C   UNL     1       1.963   4.578  20.689  0.00  0.00    +0.000 C 
ATOM     11  C   UNL     1       1.749   3.495  21.707  0.00  0.00    +0.000 C 
ATOM     12  C   UNL     1       2.017   2.142  21.041  0.00  0.00    +0.000 C 
ATOM     13  S   UNL     1       2.465   2.466  19.344  0.00  0.00    +0.000 S 
ATOM     14  O   UNL     1       1.410   1.963  18.485  0.00  0.00    +0.000 OA
ATOM     15  O   UNL     1       3.841   2.066  19.169  0.00  0.00    +0.000 OA
ATOM     16  N   UNL     1       1.803   5.929  20.966  0.00  0.00    +0.000 N 
ATOM     17  H   UNL     1       1.513   6.227  21.892  0.00  0.00    +0.000 HD
ENDROOT
BRANCH   8  18
ATOM     18  C   UNL     1       4.047   4.937  17.821  0.00  0.00    +0.000 A 
ATOM     19  C   UNL     1       4.322   4.436  16.539  0.00  0.00    +0.000 A 
ATOM     20  C   UNL     1       5.638   4.358  16.081  0.00  0.00    +0.000 A 
ATOM     21  C   UNL     1       6.679   4.768  16.907  0.00  0.00    +0.000 A 
ATOM     22  F   UNL     1       7.934   4.698  16.440  0.00  0.00    +0.000 F 
ATOM     23  C   UNL     1       6.424   5.248  18.188  0.00  0.00    +0.000 A 
ATOM     24 BR   UNL     1       7.836   5.820  19.309  0.00  0.00    +0.000 Br
ATOM     25  C   UNL     1       5.114   5.329  18.649  0.00  0.00    +0.000 A 
ENDBRANCH   8  18
TORSDOF 1
ENDMDL
MODEL 3
REMARK VINA RESULT:      -7.6      1.584      1.831
REMARK  Name = 
REMARK  2 active torsions:
REMARK  status: ('A' for Active; 'I' for Inactive)
REMARK    1  A    between atoms: C_1  and  N_2
REMARK    2  A    between atoms: C_8  and  C_9
REMARK                            x       y       z     vdW  Elec       q    Type
REMARK                         _______ _______ _______ _____ _____    ______ ____
ROOT
ATOM      1  C   UNL     1       1.384  10.442  19.787  0.00  0.00    +0.000 C 
ATOM      2  N   UNL     1       1.556   9.009  19.816  0.00  0.00    +0.000 N 
ATOM      3  C   UNL     1       1.334   8.194  20.990  0.00  0.00    +0.000 C 
ATOM      4  C   UNL     1       1.685   6.839  20.457  0.00  0.00    +0.000 C 
ATOM      5  C   UNL     1       2.055   6.888  19.165  0.00  0.00    +0.000 C 
ATOM      6  C   UNL     1       1.957   8.277  18.719  0.00  0.00    +0.000 C 
ATOM      7  O   UNL     1       2.189   8.675  17.592  0.00  0.00    +0.000 OA
ATOM      8  C   UNL     1       2.531   5.706  18.370  0.00  0.00    +0.000 C 
ATOM      9  C   UNL     1       2.437   4.467  19.219  0.00  0.00    +0.000 C 
ATOM     10  C   UNL     1       2.046   4.457  20.507  0.00  0.00    +0.000 C 
ATOM     11  C   UNL     1       2.036   3.114  21.179  0.00  0.00    +0.000 C 
ATOM     12  C   UNL     1       2.489   2.060  20.164  0.00  0.00    +0.000 C 
ATOM     13  S   UNL     1       2.825   2.910  18.631  0.00  0.00    +0.000 S 
ATOM     14  O   UNL     1       1.834   2.506  17.652  0.00  0.00    +0.000 OA
ATOM     15  O   UNL     1       4.241   2.798  18.368  0.00  0.00    +0.000 OA
ATOM     16  N   UNL     1       1.687   5.634  21.149  0.00  0.00    +0.000 N 
ATOM     17  H   UNL     1       1.384   5.613  22.118  0.00  0.00    +0.000 HD
ENDROOT
BRANCH   8  18
ATOM     18  C   UNL     1       3.953   5.925  17.880  0.00  0.00    +0.000 A 
ATOM     19  C   UNL     1       4.202   6.365  16.570  0.00  0.00    +0.000 A 
ATOM     20  C   UNL     1       5.507   6.621  16.149  0.00  0.00    +0.000 A 
ATOM     21  C   UNL     1       6.565   6.426  17.030  0.00  0.00    +0.000 A 
ATOM     22  F   UNL     1       7.810   6.693  16.609  0.00  0.00    +0.000 F 
ATOM     23  C   UNL     1       6.337   5.971  18.326  0.00  0.00    +0.000 A 
ATOM     24 BR   UNL     1       7.771   5.717  19.532  0.00  0.00    +0.000 Br
ATOM     25  C   UNL     1       5.037   5.715  18.751  0.00  0.00    +0.000 A 
ENDBRANCH   8  18
TORSDOF 1
ENDMDL
MODEL 4
REMARK VINA RESULT:      -7.5      3.748      5.889
REMARK  Name = 
REMARK  2 active torsions:
REMARK  status: ('A' for Active; 'I' for Inactive)
REMARK    1  A    between atoms: C_1  and  N_2
REMARK    2  A    between atoms: C_8  and  C_9
REMARK                            x       y       z     vdW  Elec       q    Type
REMARK                         _______ _______ _______ _____ _____    ______ ____
ROOT
ATOM      1  C   UNL     1       0.697   1.916  19.194  0.00  0.00    +0.000 C 
ATOM      2  N   UNL     1       1.905   2.676  18.976  0.00  0.00    +0.000 N 
ATOM      3  C   UNL     1       3.175   2.368  19.595  0.00  0.00    +0.000 C 
ATOM      4  C   UNL     1       4.026   3.472  19.046  0.00  0.00    +0.000 C 
ATOM      5  C   UNL     1       3.329   4.288  18.236  0.00  0.00    +0.000 C 
ATOM      6  C   UNL     1       1.960   3.781  18.153  0.00  0.00    +0.000 C 
ATOM      7  O   UNL     1       1.068   4.263  17.478  0.00  0.00    +0.000 OA
ATOM      8  C   UNL     1       3.884   5.524  17.589  0.00  0.00    +0.000 C 
ATOM      9  C   UNL     1       5.348   5.643  17.922  0.00  0.00    +0.000 C 
ATOM     10  C   UNL     1       6.014   4.795  18.727  0.00  0.00    +0.000 C 
ATOM     11  C   UNL     1       7.469   5.101  18.940  0.00  0.00    +0.000 C 
ATOM     12  C   UNL     1       7.825   6.355  18.137  0.00  0.00    +0.000 C 
ATOM     13  S   UNL     1       6.339   6.889  17.303  0.00  0.00    +0.000 S 
ATOM     14  O   UNL     1       6.517   6.698  15.876  0.00  0.00    +0.000 OA
ATOM     15  O   UNL     1       5.962   8.169  17.856  0.00  0.00    +0.000 OA
ATOM     16  N   UNL     1       5.366   3.717  19.316  0.00  0.00    +0.000 N 
ATOM     17  H   UNL     1       5.882   3.079  19.913  0.00  0.00    +0.000 HD
ENDROOT
BRANCH   8  18
ATOM     18  C   UNL     1       3.120   6.758  18.044  0.00  0.00    +0.000 A 
ATOM     19  C   UNL     1       2.853   7.807  17.149  0.00  0.00    +0.000 A 
ATOM     20  C   UNL     1       2.100   8.907  17.559  0.00  0.00    +0.000 A 
ATOM     21  C   UNL     1       1.624   8.967  18.865  0.00  0.00    +0.000 A 
ATOM     22  F   UNL     1       0.889  10.026  19.232  0.00  0.00    +0.000 F 
ATOM     23  C   UNL     1       1.897   7.945  19.769  0.00  0.00    +0.000 A 
ATOM     24 BR   UNL     1       1.240   8.016  21.541  0.00  0.00    +0.000 Br
ATOM     25  C   UNL     1       2.647   6.845  19.365  0.00  0.00    +0.000 A 
ENDBRANCH   8  18
TORSDOF 1
ENDMDL
MODEL 5
REMARK VINA RESULT:      -7.4      3.260      4.911
REMARK  Name = 
REMARK  2 active torsions:
REMARK  status: ('A' for Active; 'I' for Inactive)
REMARK    1  A    between atoms: C_1  and  N_2
REMARK    2  A    between atoms: C_8  and  C_9
REMARK                            x       y       z     vdW  Elec       q    Type
REMARK                         _______ _______ _______ _____ _____    ______ ____
ROOT
ATOM      1  C   UNL     1       0.312  10.005  19.563  0.00  0.00    +0.000 C 
ATOM      2  N   UNL     1       1.367   9.161  19.055  0.00  0.00    +0.000 N 
ATOM      3  C   UNL     1       2.068   9.403  17.814  0.00  0.00    +0.000 C 
ATOM      4  C   UNL     1       2.997   8.229  17.786  0.00  0.00    +0.000 C 
ATOM      5  C   UNL     1       2.837   7.436  18.859  0.00  0.00    +0.000 C 
ATOM      6  C   UNL     1       1.806   8.028  19.709  0.00  0.00    +0.000 C 
ATOM      7  O   UNL     1       1.432   7.586  20.780  0.00  0.00    +0.000 OA
ATOM      8  C   UNL     1       3.573   6.146  19.083  0.00  0.00    +0.000 C 
ATOM      9  C   UNL     1       4.566   5.942  17.970  0.00  0.00    +0.000 C 
ATOM     10  C   UNL     1       4.706   6.769  16.917  0.00  0.00    +0.000 C 
ATOM     11  C   UNL     1       5.747   6.376  15.910  0.00  0.00    +0.000 C 
ATOM     12  C   UNL     1       6.410   5.076  16.377  0.00  0.00    +0.000 C 
ATOM     13  S   UNL     1       5.640   4.615  17.920  0.00  0.00    +0.000 S 
ATOM     14  O   UNL     1       6.619   4.749  18.982  0.00  0.00    +0.000 OA
ATOM     15  O   UNL     1       4.923   3.380  17.701  0.00  0.00    +0.000 OA
ATOM     16  N   UNL     1       3.917   7.905  16.796  0.00  0.00    +0.000 N 
ATOM     17  H   UNL     1       4.040   8.526  16.003  0.00  0.00    +0.000 HD
ENDROOT
BRANCH   8  18
ATOM     18  C   UNL     1       2.601   4.981  19.167  0.00  0.00    +0.000 A 
ATOM     19  C   UNL     1       1.897   4.549  18.031  0.00  0.00    +0.000 A 
ATOM     20  C   UNL     1       1.053   3.441  18.104  0.00  0.00    +0.000 A 
ATOM     21  C   UNL     1       0.901   2.771  19.313  0.00  0.00    +0.000 A 
ATOM     22  F   UNL     1       0.096   1.699  19.357  0.00  0.00    +0.000 F 
ATOM     23  C   UNL     1       1.576   3.198  20.454  0.00  0.00    +0.000 A 
ATOM     24 BR   UNL     1       1.383   2.281  22.096  0.00  0.00    +0.000 Br
ATOM     25  C   UNL     1       2.419   4.302  20.385  0.00  0.00    +0.000 A 
ENDBRANCH   8  18
TORSDOF 1
ENDMDL
MODEL 6
REMARK VINA RESULT:      -6.8      3.627      5.146
REMARK  Name = 
REMARK  2 active torsions:
REMARK  status: ('A' for Active; 'I' for Inactive)
REMARK    1  A    between atoms: C_1  and  N_2
REMARK    2  A    between atoms: C_8  and  C_9
REMARK                            x       y       z     vdW  Elec       q    Type
REMARK                         _______ _______ _______ _____ _____    ______ ____
ROOT
ATOM      1  C   UNL     1       7.345   5.433  15.765  0.00  0.00    +0.000 C 
ATOM      2  N   UNL     1       6.253   4.900  16.544  0.00  0.00    +0.000 N 
ATOM      3  C   UNL     1       5.538   3.688  16.207  0.00  0.00    +0.000 C 
ATOM      4  C   UNL     1       4.528   3.646  17.312  0.00  0.00    +0.000 C 
ATOM      5  C   UNL     1       4.656   4.690  18.150  0.00  0.00    +0.000 C 
ATOM      6  C   UNL     1       5.780   5.504  17.690  0.00  0.00    +0.000 C 
ATOM      7  O   UNL     1       6.194   6.510  18.236  0.00  0.00    +0.000 OA
ATOM      8  C   UNL     1       3.748   4.964  19.313  0.00  0.00    +0.000 C 
ATOM      9  C   UNL     1       2.747   3.847  19.436  0.00  0.00    +0.000 C 
ATOM     10  C   UNL     1       2.661   2.808  18.584  0.00  0.00    +0.000 C 
ATOM     11  C   UNL     1       1.581   1.807  18.878  0.00  0.00    +0.000 C 
ATOM     12  C   UNL     1       0.833   2.254  20.137  0.00  0.00    +0.000 C 
ATOM     13  S   UNL     1       1.590   3.773  20.691  0.00  0.00    +0.000 S 
ATOM     14  O   UNL     1       2.263   3.521  21.951  0.00  0.00    +0.000 OA
ATOM     15  O   UNL     1       0.612   4.827  20.552  0.00  0.00    +0.000 OA
ATOM     16  N   UNL     1       3.528   2.701  17.505  0.00  0.00    +0.000 N 
ATOM     17  H   UNL     1       3.459   1.908  16.875  0.00  0.00    +0.000 HD
ENDROOT
BRANCH   8  18
ATOM     18  C   UNL     1       3.050   6.305  19.146  0.00  0.00    +0.000 A 
ATOM     19  C   UNL     1       2.913   6.890  17.876  0.00  0.00    +0.000 A 
ATOM     20  C   UNL     1       2.219   8.090  17.725  0.00  0.00    +0.000 A 
ATOM     21  C   UNL     1       1.672   8.714  18.842  0.00  0.00    +0.000 A 
ATOM     22  F   UNL     1       0.995   9.859  18.671  0.00  0.00    +0.000 F 
ATOM     23  C   UNL     1       1.815   8.157  20.110  0.00  0.00    +0.000 A 
ATOM     24 BR   UNL     1       1.061   8.994  21.629  0.00  0.00    +0.000 Br
ATOM     25  C   UNL     1       2.506   6.960  20.265  0.00  0.00    +0.000 A 
ENDBRANCH   8  18
TORSDOF 1
ENDMDL
MODEL 7
REMARK VINA RESULT:      -6.8      3.657      5.893
REMARK  Name = 
REMARK  2 active torsions:
REMARK  status: ('A' for Active; 'I' for Inactive)
REMARK    1  A    between atoms: C_1  and  N_2
REMARK    2  A    between atoms: C_8  and  C_9
REMARK                            x       y       z     vdW  Elec       q    Type
REMARK                         _______ _______ _______ _____ _____    ______ ____
ROOT
ATOM      1  C   UNL     1       0.779   1.286  18.957  0.00  0.00    +0.000 C 
ATOM      2  N   UNL     1       1.902   2.145  18.667  0.00  0.00    +0.000 N 
ATOM      3  C   UNL     1       3.278   1.793  18.940  0.00  0.00    +0.000 C 
ATOM      4  C   UNL     1       3.979   3.034  18.479  0.00  0.00    +0.000 C 
ATOM      5  C   UNL     1       3.116   3.955  18.016  0.00  0.00    +0.000 C 
ATOM      6  C   UNL     1       1.768   3.396  18.104  0.00  0.00    +0.000 C 
ATOM      7  O   UNL     1       0.748   3.952  17.739  0.00  0.00    +0.000 OA
ATOM      8  C   UNL     1       3.505   5.328  17.549  0.00  0.00    +0.000 C 
ATOM      9  C   UNL     1       5.004   5.462  17.599  0.00  0.00    +0.000 C 
ATOM     10  C   UNL     1       5.837   4.509  18.056  0.00  0.00    +0.000 C 
ATOM     11  C   UNL     1       7.298   4.850  18.034  0.00  0.00    +0.000 C 
ATOM     12  C   UNL     1       7.460   6.261  17.460  0.00  0.00    +0.000 C 
ATOM     13  S   UNL     1       5.825   6.865  17.073  0.00  0.00    +0.000 S 
ATOM     14  O   UNL     1       5.705   6.981  15.632  0.00  0.00    +0.000 OA
ATOM     15  O   UNL     1       5.551   7.981  17.948  0.00  0.00    +0.000 OA
ATOM     16  N   UNL     1       5.342   3.297  18.520  0.00  0.00    +0.000 N 
ATOM     17  H   UNL     1       5.981   2.582  18.853  0.00  0.00    +0.000 HD
ENDROOT
BRANCH   8  18
ATOM     18  C   UNL     1       2.834   6.395  18.398  0.00  0.00    +0.000 A 
ATOM     19  C   UNL     1       2.589   6.178  19.763  0.00  0.00    +0.000 A 
ATOM     20  C   UNL     1       2.027   7.186  20.547  0.00  0.00    +0.000 A 
ATOM     21  C   UNL     1       1.697   8.406  19.966  0.00  0.00    +0.000 A 
ATOM     22  F   UNL     1       1.172   9.366  20.742  0.00  0.00    +0.000 F 
ATOM     23  C   UNL     1       1.915   8.630  18.609  0.00  0.00    +0.000 A 
ATOM     24 BR   UNL     1       1.481  10.292  17.818  0.00  0.00    +0.000 Br
ATOM     25  C   UNL     1       2.475   7.629  17.824  0.00  0.00    +0.000 A 
ENDBRANCH   8  18
TORSDOF 1
ENDMDL
MODEL 8
REMARK VINA RESULT:      -6.6      3.523      5.829
REMARK  Name = 
REMARK  2 active torsions:
REMARK  status: ('A' for Active; 'I' for Inactive)
REMARK    1  A    between atoms: C_1  and  N_2
REMARK    2  A    between atoms: C_8  and  C_9
REMARK                            x       y       z     vdW  Elec       q    Type
REMARK                         _______ _______ _______ _____ _____    ______ ____
ROOT
ATOM      1  C   UNL     1       1.311   2.286  21.538  0.00  0.00    +0.000 C 
ATOM      2  N   UNL     1       2.309   2.856  20.665  0.00  0.00    +0.000 N 
ATOM      3  C   UNL     1       3.730   2.624  20.803  0.00  0.00    +0.000 C 
ATOM      4  C   UNL     1       4.259   3.464  19.681  0.00  0.00    +0.000 C 
ATOM      5  C   UNL     1       3.272   4.083  19.009  0.00  0.00    +0.000 C 
ATOM      6  C   UNL     1       1.999   3.688  19.610  0.00  0.00    +0.000 C 
ATOM      7  O   UNL     1       0.898   4.040  19.227  0.00  0.00    +0.000 OA
ATOM      8  C   UNL     1       3.487   5.047  17.878  0.00  0.00    +0.000 C 
ATOM      9  C   UNL     1       4.958   5.130  17.570  0.00  0.00    +0.000 C 
ATOM     10  C   UNL     1       5.915   4.481  18.258  0.00  0.00    +0.000 C 
ATOM     11  C   UNL     1       7.325   4.712  17.795  0.00  0.00    +0.000 C 
ATOM     12  C   UNL     1       7.294   5.667  16.598  0.00  0.00    +0.000 C 
ATOM     13  S   UNL     1       5.583   6.076  16.292  0.00  0.00    +0.000 S 
ATOM     14  O   UNL     1       5.190   5.491  15.024  0.00  0.00    +0.000 OA
ATOM     15  O   UNL     1       5.413   7.484  16.562  0.00  0.00    +0.000 OA
ATOM     16  N   UNL     1       5.588   3.661  19.329  0.00  0.00    +0.000 N 
ATOM     17  H   UNL     1       6.318   3.168  19.833  0.00  0.00    +0.000 HD
ENDROOT
BRANCH   8  18
ATOM     18  C   UNL     1       2.924   6.416  18.225  0.00  0.00    +0.000 A 
ATOM     19  C   UNL     1       2.755   7.396  17.233  0.00  0.00    +0.000 A 
ATOM     20  C   UNL     1       2.182   8.627  17.550  0.00  0.00    +0.000 A 
ATOM     21  C   UNL     1       1.790   8.887  18.859  0.00  0.00    +0.000 A 
ATOM     22  F   UNL     1       1.228  10.073  19.138  0.00  0.00    +0.000 F 
ATOM     23  C   UNL     1       1.970   7.935  19.858  0.00  0.00    +0.000 A 
ATOM     24 BR   UNL     1       1.426   8.279  21.636  0.00  0.00    +0.000 Br
ATOM     25  C   UNL     1       2.540   6.705  19.547  0.00  0.00    +0.000 A 
ENDBRANCH   8  18
TORSDOF 1
ENDMDL
MODEL 9
REMARK VINA RESULT:      -6.3      6.075      8.251
REMARK  Name = 
REMARK  2 active torsions:
REMARK  status: ('A' for Active; 'I' for Inactive)
REMARK    1  A    between atoms: C_1  and  N_2
REMARK    2  A    between atoms: C_8  and  C_9
REMARK                            x       y       z     vdW  Elec       q    Type
REMARK                         _______ _______ _______ _____ _____    ______ ____
ROOT
ATOM      1  C   UNL     1       1.171  15.492  22.220  0.00  0.00    +0.000 C 
ATOM      2  N   UNL     1       0.211  14.734  21.454  0.00  0.00    +0.000 N 
ATOM      3  C   UNL     1      -1.221  14.848  21.616  0.00  0.00    +0.000 C 
ATOM      4  C   UNL     1      -1.696  13.837  20.618  0.00  0.00    +0.000 C 
ATOM      5  C   UNL     1      -0.672  13.237  19.986  0.00  0.00    +0.000 C 
ATOM      6  C   UNL     1       0.572  13.816  20.490  0.00  0.00    +0.000 C 
ATOM      7  O   UNL     1       1.692  13.524  20.111  0.00  0.00    +0.000 OA
ATOM      8  C   UNL     1      -0.822  12.132  18.981  0.00  0.00    +0.000 C 
ATOM      9  C   UNL     1      -2.285  11.877  18.738  0.00  0.00    +0.000 C 
ATOM     10  C   UNL     1      -3.283  12.512  19.382  0.00  0.00    +0.000 C 
ATOM     11  C   UNL     1      -4.675  12.099  19.000  0.00  0.00    +0.000 C 
ATOM     12  C   UNL     1      -4.583  11.017  17.920  0.00  0.00    +0.000 C 
ATOM     13  S   UNL     1      -2.850  10.735  17.600  0.00  0.00    +0.000 S 
ATOM     14  O   UNL     1      -2.546  11.201  16.260  0.00  0.00    +0.000 OA
ATOM     15  O   UNL     1      -2.538   9.389  18.023  0.00  0.00    +0.000 OA
ATOM     16  N   UNL     1      -3.008  13.478  20.339  0.00  0.00    +0.000 N 
ATOM     17  H   UNL     1      -3.770  13.957  20.811  0.00  0.00    +0.000 HD
ENDROOT
BRANCH   8  18
ATOM     18  C   UNL     1      -0.122  10.870  19.461  0.00  0.00    +0.000 A 
ATOM     19  C   UNL     1      -0.428  10.311  20.713  0.00  0.00    +0.000 A 
ATOM     20  C   UNL     1       0.175   9.121  21.119  0.00  0.00    +0.000 A 
ATOM     21  C   UNL     1       1.094   8.495  20.282  0.00  0.00    +0.000 A 
ATOM     22  F   UNL     1       1.650   7.343  20.687  0.00  0.00    +0.000 F 
ATOM     23  C   UNL     1       1.424   9.047  19.048  0.00  0.00    +0.000 A 
ATOM     24 BR   UNL     1       2.662   8.193  17.902  0.00  0.00    +0.000 Br
ATOM     25  C   UNL     1       0.824  10.233  18.638  0.00  0.00    +0.000 A 
ENDBRANCH   8  18
TORSDOF 1
ENDMDL
