MODEL 1
REMARK VINA RESULT:      -9.4      0.000      0.000
REMARK  Name = 
REMARK  6 active torsions:
REMARK  status: ('A' for Active; 'I' for Inactive)
REMARK    1  A    between atoms: O_1  and  C_2
REMARK    2  A    between atoms: C_8  and  O_9
REMARK    3  A    between atoms: O_9  and  C_10
REMARK    4  A    between atoms: C_16  and  C_17
REMARK    5  A    between atoms: C_17  and  N_18
REMARK    6  A    between atoms: N_18  and  C_19
REMARK                            x       y       z     vdW  Elec       q    Type
REMARK                         _______ _______ _______ _____ _____    ______ ____
ROOT
ATOM      1  C   UNL     1       4.117   4.916  19.420  0.00  0.00    +0.000 A 
ATOM      2  C   UNL     1       4.347   3.539  19.557  0.00  0.00    +0.000 A 
ATOM      3  C   UNL     1       3.466   2.742  20.289  0.00  0.00    +0.000 A 
ATOM      4  C   UNL     1       2.315   3.305  20.830  0.00  0.00    +0.000 A 
ATOM      5 CL   UNL     1       1.235   2.327  21.743  0.00  0.00    +0.000 Cl
ATOM      6  C   UNL     1       2.035   4.658  20.640  0.00  0.00    +0.000 A 
ATOM      7  C   UNL     1       2.936   5.484  19.941  0.00  0.00    +0.000 A 
ENDROOT
BRANCH   1   8
ATOM      8  O   UNL     1       4.979   5.761  18.754  0.00  0.00    +0.000 OA
BRANCH   8  15
ATOM      9  C   UNL     1       6.741   4.713  17.366  0.00  0.00    +0.000 A 
ATOM     10  C   UNL     1       7.224   4.448  16.082  0.00  0.00    +0.000 A 
ATOM     11  C   UNL     1       6.519   4.915  14.973  0.00  0.00    +0.000 A 
ATOM     12 CL   UNL     1       7.133   4.623  13.391  0.00  0.00    +0.000 Cl
ATOM     13  C   UNL     1       5.336   5.631  15.134  0.00  0.00    +0.000 A 
ATOM     14  C   UNL     1       4.846   5.875  16.420  0.00  0.00    +0.000 A 
ATOM     15  C   UNL     1       5.533   5.402  17.545  0.00  0.00    +0.000 A 
BRANCH   9  16
ATOM     16  O   UNL     1       7.474   4.306  18.446  0.00  0.00    +0.000 OA
ATOM     17  H   UNL     1       7.597   5.053  19.055  0.00  0.00    +0.000 HD
ENDBRANCH   9  16
ENDBRANCH   8  15
ENDBRANCH   1   8
BRANCH   7  18
ATOM     18  C   UNL     1       2.619   6.959  19.795  0.00  0.00    +0.000 C 
BRANCH  18  19
ATOM     19  N   UNL     1       1.975   7.480  21.003  0.00  0.00    +0.000 N 
ATOM     20  H   UNL     1       2.612   7.529  21.791  0.00  0.00    +0.000 HD
BRANCH  19  21
ATOM     21  C   UNL     1       1.184   8.637  20.884  0.00  0.00    +0.000 A 
ATOM     22  C   UNL     1       0.956   9.281  19.665  0.00  0.00    +0.000 A 
ATOM     23  C   UNL     1       0.099  10.384  19.571  0.00  0.00    +0.000 A 
ATOM     24  C   UNL     1      -0.575  10.870  20.697  0.00  0.00    +0.000 A 
ATOM     25  C   UNL     1      -1.445  11.971  20.612  0.00  0.00    +0.000 A 
ATOM     26  C   UNL     1      -2.116  12.440  21.740  0.00  0.00    +0.000 A 
ATOM     27  C   UNL     1      -1.927  11.815  22.969  0.00  0.00    +0.000 A 
ATOM     28  C   UNL     1      -1.067  10.715  23.066  0.00  0.00    +0.000 A 
ATOM     29  C   UNL     1      -0.385  10.224  21.937  0.00  0.00    +0.000 A 
ATOM     30  C   UNL     1       0.479   9.108  22.006  0.00  0.00    +0.000 A 
ENDBRANCH  19  21
ENDBRANCH  18  19
ENDBRANCH   7  18
TORSDOF 6
ENDMDL
MODEL 2
REMARK VINA RESULT:      -9.1      0.611      1.628
REMARK  Name = 
REMARK  6 active torsions:
REMARK  status: ('A' for Active; 'I' for Inactive)
REMARK    1  A    between atoms: O_1  and  C_2
REMARK    2  A    between atoms: C_8  and  O_9
REMARK    3  A    between atoms: O_9  and  C_10
REMARK    4  A    between atoms: C_16  and  C_17
REMARK    5  A    between atoms: C_17  and  N_18
REMARK    6  A    between atoms: N_18  and  C_19
REMARK                            x       y       z     vdW  Elec       q    Type
REMARK                         _______ _______ _______ _____ _____    ______ ____
ROOT
ATOM      1  C   UNL     1       4.032   4.972  19.419  0.00  0.00    +0.000 A 
ATOM      2  C   UNL     1       4.289   3.605  19.591  0.00  0.00    +0.000 A 
ATOM      3  C   UNL     1       3.412   2.806  20.327  0.00  0.00    +0.000 A 
ATOM      4  C   UNL     1       2.242   3.358  20.837  0.00  0.00    +0.000 A 
ATOM      5 CL   UNL     1       1.168   2.378  21.757  0.00  0.00    +0.000 Cl
ATOM      6  C   UNL     1       1.937   4.700  20.613  0.00  0.00    +0.000 A 
ATOM      7  C   UNL     1       2.832   5.528  19.908  0.00  0.00    +0.000 A 
ENDROOT
BRANCH   1   8
ATOM      8  O   UNL     1       4.888   5.820  18.746  0.00  0.00    +0.000 OA
BRANCH   8  15
ATOM      9  C   UNL     1       6.656   4.743  17.388  0.00  0.00    +0.000 A 
ATOM     10  C   UNL     1       7.155   4.469  16.113  0.00  0.00    +0.000 A 
ATOM     11  C   UNL     1       6.476   4.945  14.992  0.00  0.00    +0.000 A 
ATOM     12 CL   UNL     1       7.111   4.643  13.420  0.00  0.00    +0.000 Cl
ATOM     13  C   UNL     1       5.301   5.680  15.133  0.00  0.00    +0.000 A 
ATOM     14  C   UNL     1       4.794   5.933  16.410  0.00  0.00    +0.000 A 
ATOM     15  C   UNL     1       5.456   5.451  17.546  0.00  0.00    +0.000 A 
BRANCH   9  16
ATOM     16  O   UNL     1       7.365   4.327  18.481  0.00  0.00    +0.000 OA
ATOM     17  H   UNL     1       6.892   4.579  19.290  0.00  0.00    +0.000 HD
ENDBRANCH   9  16
ENDBRANCH   8  15
ENDBRANCH   1   8
BRANCH   7  18
ATOM     18  C   UNL     1       2.488   6.992  19.724  0.00  0.00    +0.000 C 
BRANCH  18  19
ATOM     19  N   UNL     1       2.056   7.594  20.987  0.00  0.00    +0.000 N 
ATOM     20  H   UNL     1       2.835   7.804  21.603  0.00  0.00    +0.000 HD
BRANCH  19  21
ATOM     21  C   UNL     1       1.120   8.642  20.935  0.00  0.00    +0.000 A 
ATOM     22  C   UNL     1       0.669   9.316  22.074  0.00  0.00    +0.000 A 
ATOM     23  C   UNL     1      -0.203  10.408  21.978  0.00  0.00    +0.000 A 
ATOM     24  C   UNL     1      -0.639  10.874  20.733  0.00  0.00    +0.000 A 
ATOM     25  C   UNL     1      -1.506  11.976  20.625  0.00  0.00    +0.000 A 
ATOM     26  C   UNL     1      -1.928  12.435  19.379  0.00  0.00    +0.000 A 
ATOM     27  C   UNL     1      -1.487  11.799  18.221  0.00  0.00    +0.000 A 
ATOM     28  C   UNL     1      -0.620  10.704  18.315  0.00  0.00    +0.000 A 
ATOM     29  C   UNL     1      -0.180  10.230  19.565  0.00  0.00    +0.000 A 
ATOM     30  C   UNL     1       0.705   9.135  19.686  0.00  0.00    +0.000 A 
ENDBRANCH  19  21
ENDBRANCH  18  19
ENDBRANCH   7  18
TORSDOF 6
ENDMDL
MODEL 3
REMARK VINA RESULT:      -8.9      1.317      1.676
REMARK  Name = 
REMARK  6 active torsions:
REMARK  status: ('A' for Active; 'I' for Inactive)
REMARK    1  A    between atoms: O_1  and  C_2
REMARK    2  A    between atoms: C_8  and  O_9
REMARK    3  A    between atoms: O_9  and  C_10
REMARK    4  A    between atoms: C_16  and  C_17
REMARK    5  A    between atoms: C_17  and  N_18
REMARK    6  A    between atoms: N_18  and  C_19
REMARK                            x       y       z     vdW  Elec       q    Type
REMARK                         _______ _______ _______ _____ _____    ______ ____
ROOT
ATOM      1  C   UNL     1       4.259   4.833  18.576  0.00  0.00    +0.000 A 
ATOM      2  C   UNL     1       4.807   3.751  19.280  0.00  0.00    +0.000 A 
ATOM      3  C   UNL     1       4.013   2.989  20.139  0.00  0.00    +0.000 A 
ATOM      4  C   UNL     1       2.654   3.264  20.245  0.00  0.00    +0.000 A 
ATOM      5 CL   UNL     1       1.678   2.335  21.314  0.00  0.00    +0.000 Cl
ATOM      6  C   UNL     1       2.080   4.291  19.497  0.00  0.00    +0.000 A 
ATOM      7  C   UNL     1       2.876   5.096  18.658  0.00  0.00    +0.000 A 
ENDROOT
BRANCH   1   8
ATOM      8  O   UNL     1       5.005   5.652  17.755  0.00  0.00    +0.000 OA
BRANCH   8  15
ATOM      9  C   UNL     1       6.763   5.552  16.014  0.00  0.00    +0.000 A 
ATOM     10  C   UNL     1       7.165   5.042  14.777  0.00  0.00    +0.000 A 
ATOM     11  C   UNL     1       6.309   4.195  14.072  0.00  0.00    +0.000 A 
ATOM     12 CL   UNL     1       6.786   3.597  12.529  0.00  0.00    +0.000 Cl
ATOM     13  C   UNL     1       5.066   3.847  14.594  0.00  0.00    +0.000 A 
ATOM     14  C   UNL     1       4.678   4.344  15.842  0.00  0.00    +0.000 A 
ATOM     15  C   UNL     1       5.529   5.184  16.570  0.00  0.00    +0.000 A 
BRANCH   9  16
ATOM     16  O   UNL     1       7.582   6.432  16.665  0.00  0.00    +0.000 OA
ATOM     17  H   UNL     1       7.539   7.299  16.230  0.00  0.00    +0.000 HD
ENDBRANCH   9  16
ENDBRANCH   8  15
ENDBRANCH   1   8
BRANCH   7  18
ATOM     18  C   UNL     1       2.225   6.231  17.896  0.00  0.00    +0.000 C 
BRANCH  18  19
ATOM     19  N   UNL     1       2.817   7.519  18.263  0.00  0.00    +0.000 N 
ATOM     20  H   UNL     1       3.330   7.942  17.497  0.00  0.00    +0.000 HD
BRANCH  19  21
ATOM     21  C   UNL     1       2.009   8.450  18.941  0.00  0.00    +0.000 A 
ATOM     22  C   UNL     1       1.368   9.511  18.297  0.00  0.00    +0.000 A 
ATOM     23  C   UNL     1       0.507  10.372  18.990  0.00  0.00    +0.000 A 
ATOM     24  C   UNL     1       0.246  10.187  20.352  0.00  0.00    +0.000 A 
ATOM     25  C   UNL     1      -0.624  11.039  21.054  0.00  0.00    +0.000 A 
ATOM     26  C   UNL     1      -0.881  10.839  22.409  0.00  0.00    +0.000 A 
ATOM     27  C   UNL     1      -0.273   9.783  23.082  0.00  0.00    +0.000 A 
ATOM     28  C   UNL     1       0.591   8.924  22.392  0.00  0.00    +0.000 A 
ATOM     29  C   UNL     1       0.859   9.108  21.023  0.00  0.00    +0.000 A 
ATOM     30  C   UNL     1       1.718   8.248  20.302  0.00  0.00    +0.000 A 
ENDBRANCH  19  21
ENDBRANCH  18  19
ENDBRANCH   7  18
TORSDOF 6
ENDMDL
MODEL 4
REMARK VINA RESULT:      -8.8      1.931      4.735
REMARK  Name = 
REMARK  6 active torsions:
REMARK  status: ('A' for Active; 'I' for Inactive)
REMARK    1  A    between atoms: O_1  and  C_2
REMARK    2  A    between atoms: C_8  and  O_9
REMARK    3  A    between atoms: O_9  and  C_10
REMARK    4  A    between atoms: C_16  and  C_17
REMARK    5  A    between atoms: C_17  and  N_18
REMARK    6  A    between atoms: N_18  and  C_19
REMARK                            x       y       z     vdW  Elec       q    Type
REMARK                         _______ _______ _______ _____ _____    ______ ____
ROOT
ATOM      1  C   UNL     1       4.911   5.100  17.233  0.00  0.00    +0.000 A 
ATOM      2  C   UNL     1       6.260   4.716  17.212  0.00  0.00    +0.000 A 
ATOM      3  C   UNL     1       7.271   5.672  17.318  0.00  0.00    +0.000 A 
ATOM      4  C   UNL     1       6.938   7.008  17.514  0.00  0.00    +0.000 A 
ATOM      5 CL   UNL     1       8.183   8.188  17.631  0.00  0.00    +0.000 Cl
ATOM      6  C   UNL     1       5.602   7.396  17.610  0.00  0.00    +0.000 A 
ATOM      7  C   UNL     1       4.570   6.449  17.462  0.00  0.00    +0.000 A 
ENDROOT
BRANCH   1   8
ATOM      8  O   UNL     1       3.871   4.207  17.081  0.00  0.00    +0.000 OA
BRANCH   8  15
ATOM      9  C   UNL     1       1.793   3.635  18.299  0.00  0.00    +0.000 A 
ATOM     10  C   UNL     1       1.215   3.163  19.480  0.00  0.00    +0.000 A 
ATOM     11  C   UNL     1       2.033   2.816  20.555  0.00  0.00    +0.000 A 
ATOM     12 CL   UNL     1       1.320   2.272  22.025  0.00  0.00    +0.000 Cl
ATOM     13  C   UNL     1       3.418   2.927  20.458  0.00  0.00    +0.000 A 
ATOM     14  C   UNL     1       3.992   3.379  19.267  0.00  0.00    +0.000 A 
ATOM     15  C   UNL     1       3.187   3.719  18.172  0.00  0.00    +0.000 A 
BRANCH   9  16
ATOM     16  O   UNL     1       0.979   4.033  17.275  0.00  0.00    +0.000 OA
ATOM     17  H   UNL     1       1.348   3.732  16.430  0.00  0.00    +0.000 HD
ENDBRANCH   9  16
ENDBRANCH   8  15
ENDBRANCH   1   8
BRANCH   7  18
ATOM     18  C   UNL     1       3.130   6.916  17.527  0.00  0.00    +0.000 C 
BRANCH  18  19
ATOM     19  N   UNL     1       2.649   6.948  18.910  0.00  0.00    +0.000 N 
ATOM     20  H   UNL     1       3.362   6.665  19.575  0.00  0.00    +0.000 HD
BRANCH  19  21
ATOM     21  C   UNL     1       1.941   8.085  19.339  0.00  0.00    +0.000 A 
ATOM     22  C   UNL     1       1.583   9.126  18.479  0.00  0.00    +0.000 A 
ATOM     23  C   UNL     1       0.809  10.206  18.923  0.00  0.00    +0.000 A 
ATOM     24  C   UNL     1       0.352  10.269  20.244  0.00  0.00    +0.000 A 
ATOM     25  C   UNL     1      -0.433  11.343  20.698  0.00  0.00    +0.000 A 
ATOM     26  C   UNL     1      -0.888  11.390  22.015  0.00  0.00    +0.000 A 
ATOM     27  C   UNL     1      -0.565  10.363  22.897  0.00  0.00    +0.000 A 
ATOM     28  C   UNL     1       0.212   9.286  22.456  0.00  0.00    +0.000 A 
ATOM     29  C   UNL     1       0.677   9.219  21.129  0.00  0.00    +0.000 A 
ATOM     30  C   UNL     1       1.452   8.136  20.656  0.00  0.00    +0.000 A 
ENDBRANCH  19  21
ENDBRANCH  18  19
ENDBRANCH   7  18
TORSDOF 6
ENDMDL
MODEL 5
REMARK VINA RESULT:      -8.7      1.997      2.676
REMARK  Name = 
REMARK  6 active torsions:
REMARK  status: ('A' for Active; 'I' for Inactive)
REMARK    1  A    between atoms: O_1  and  C_2
REMARK    2  A    between atoms: C_8  and  O_9
REMARK    3  A    between atoms: O_9  and  C_10
REMARK    4  A    between atoms: C_16  and  C_17
REMARK    5  A    between atoms: C_17  and  N_18
REMARK    6  A    between atoms: N_18  and  C_19
REMARK                            x       y       z     vdW  Elec       q    Type
REMARK                         _______ _______ _______ _____ _____    ______ ____
ROOT
ATOM      1  C   UNL     1       4.022   3.719  18.603  0.00  0.00    +0.000 A 
ATOM      2  C   UNL     1       4.386   2.669  19.459  0.00  0.00    +0.000 A 
ATOM      3  C   UNL     1       3.558   2.301  20.521  0.00  0.00    +0.000 A 
ATOM      4  C   UNL     1       2.333   2.936  20.691  0.00  0.00    +0.000 A 
ATOM      5 CL   UNL     1       1.318   2.493  22.007  0.00  0.00    +0.000 Cl
ATOM      6  C   UNL     1       1.925   3.933  19.805  0.00  0.00    +0.000 A 
ATOM      7  C   UNL     1       2.767   4.344  18.754  0.00  0.00    +0.000 A 
ENDROOT
BRANCH   1   8
ATOM      8  O   UNL     1       4.823   4.160  17.571  0.00  0.00    +0.000 OA
BRANCH   8  15
ATOM      9  C   UNL     1       5.902   6.269  16.850  0.00  0.00    +0.000 A 
ATOM     10  C   UNL     1       6.855   7.254  17.120  0.00  0.00    +0.000 A 
ATOM     11  C   UNL     1       7.637   7.156  18.271  0.00  0.00    +0.000 A 
ATOM     12 CL   UNL     1       8.839   8.348  18.586  0.00  0.00    +0.000 Cl
ATOM     13  C   UNL     1       7.469   6.093  19.155  0.00  0.00    +0.000 A 
ATOM     14  C   UNL     1       6.500   5.121  18.890  0.00  0.00    +0.000 A 
ATOM     15  C   UNL     1       5.696   5.211  17.747  0.00  0.00    +0.000 A 
BRANCH   9  16
ATOM     16  O   UNL     1       5.187   6.340  15.686  0.00  0.00    +0.000 OA
ATOM     17  H   UNL     1       4.303   5.964  15.825  0.00  0.00    +0.000 HD
ENDBRANCH   9  16
ENDBRANCH   8  15
ENDBRANCH   1   8
BRANCH   7  18
ATOM     18  C   UNL     1       2.309   5.462  17.840  0.00  0.00    +0.000 C 
BRANCH  18  19
ATOM     19  N   UNL     1       2.967   6.725  18.182  0.00  0.00    +0.000 N 
ATOM     20  H   UNL     1       3.594   7.046  17.451  0.00  0.00    +0.000 HD
BRANCH  19  21
ATOM     21  C   UNL     1       2.174   7.766  18.698  0.00  0.00    +0.000 A 
ATOM     22  C   UNL     1       1.493   8.677  17.886  0.00  0.00    +0.000 A 
ATOM     23  C   UNL     1       0.649   9.652  18.431  0.00  0.00    +0.000 A 
ATOM     24  C   UNL     1       0.444   9.736  19.813  0.00  0.00    +0.000 A 
ATOM     25  C   UNL     1      -0.409  10.704  20.371  0.00  0.00    +0.000 A 
ATOM     26  C   UNL     1      -0.610  10.772  21.748  0.00  0.00    +0.000 A 
ATOM     27  C   UNL     1       0.039   9.872  22.589  0.00  0.00    +0.000 A 
ATOM     28  C   UNL     1       0.887   8.899  22.045  0.00  0.00    +0.000 A 
ATOM     29  C   UNL     1       1.098   8.813  20.656  0.00  0.00    +0.000 A 
ATOM     30  C   UNL     1       1.939   7.833  20.082  0.00  0.00    +0.000 A 
ENDBRANCH  19  21
ENDBRANCH  18  19
ENDBRANCH   7  18
TORSDOF 6
ENDMDL
MODEL 6
REMARK VINA RESULT:      -8.6      1.838      5.063
REMARK  Name = 
REMARK  6 active torsions:
REMARK  status: ('A' for Active; 'I' for Inactive)
REMARK    1  A    between atoms: O_1  and  C_2
REMARK    2  A    between atoms: C_8  and  O_9
REMARK    3  A    between atoms: O_9  and  C_10
REMARK    4  A    between atoms: C_16  and  C_17
REMARK    5  A    between atoms: C_17  and  N_18
REMARK    6  A    between atoms: N_18  and  C_19
REMARK                            x       y       z     vdW  Elec       q    Type
REMARK                         _______ _______ _______ _____ _____    ______ ____
ROOT
ATOM      1  C   UNL     1       3.568   5.222  17.334  0.00  0.00    +0.000 A 
ATOM      2  C   UNL     1       4.017   4.019  16.770  0.00  0.00    +0.000 A 
ATOM      3  C   UNL     1       5.202   3.979  16.035  0.00  0.00    +0.000 A 
ATOM      4  C   UNL     1       5.978   5.127  15.916  0.00  0.00    +0.000 A 
ATOM      5 CL   UNL     1       7.432   5.081  14.998  0.00  0.00    +0.000 Cl
ATOM      6  C   UNL     1       5.582   6.313  16.532  0.00  0.00    +0.000 A 
ATOM      7  C   UNL     1       4.367   6.380  17.242  0.00  0.00    +0.000 A 
ENDROOT
BRANCH   1   8
ATOM      8  O   UNL     1       2.380   5.333  18.026  0.00  0.00    +0.000 OA
BRANCH   8  15
ATOM      9  C   UNL     1       1.261   3.340  18.976  0.00  0.00    +0.000 A 
ATOM     10  C   UNL     1       0.990   2.574  20.113  0.00  0.00    +0.000 A 
ATOM     11  C   UNL     1       1.500   2.972  21.347  0.00  0.00    +0.000 A 
ATOM     12 CL   UNL     1       1.134   2.052  22.756  0.00  0.00    +0.000 Cl
ATOM     13  C   UNL     1       2.285   4.118  21.455  0.00  0.00    +0.000 A 
ATOM     14  C   UNL     1       2.571   4.869  20.312  0.00  0.00    +0.000 A 
ATOM     15  C   UNL     1       2.078   4.476  19.061  0.00  0.00    +0.000 A 
BRANCH   9  16
ATOM     16  O   UNL     1       0.701   2.975  17.783  0.00  0.00    +0.000 OA
ATOM     17  H   UNL     1       0.220   3.730  17.406  0.00  0.00    +0.000 HD
ENDBRANCH   9  16
ENDBRANCH   8  15
ENDBRANCH   1   8
BRANCH   7  18
ATOM     18  C   UNL     1       3.948   7.700  17.858  0.00  0.00    +0.000 C 
BRANCH  18  19
ATOM     19  N   UNL     1       2.574   8.042  17.483  0.00  0.00    +0.000 N 
ATOM     20  H   UNL     1       2.064   7.246  17.114  0.00  0.00    +0.000 HD
BRANCH  19  21
ATOM     21  C   UNL     1       1.808   8.793  18.392  0.00  0.00    +0.000 A 
ATOM     22  C   UNL     1       0.936   9.810  17.993  0.00  0.00    +0.000 A 
ATOM     23  C   UNL     1       0.128  10.483  18.918  0.00  0.00    +0.000 A 
ATOM     24  C   UNL     1       0.153  10.146  20.275  0.00  0.00    +0.000 A 
ATOM     25  C   UNL     1      -0.660  10.809  21.211  0.00  0.00    +0.000 A 
ATOM     26  C   UNL     1      -0.631  10.459  22.560  0.00  0.00    +0.000 A 
ATOM     27  C   UNL     1       0.213   9.440  22.993  0.00  0.00    +0.000 A 
ATOM     28  C   UNL     1       1.025   8.769  22.070  0.00  0.00    +0.000 A 
ATOM     29  C   UNL     1       1.005   9.106  20.704  0.00  0.00    +0.000 A 
ATOM     30  C   UNL     1       1.805   8.436  19.752  0.00  0.00    +0.000 A 
ENDBRANCH  19  21
ENDBRANCH  18  19
ENDBRANCH   7  18
TORSDOF 6
ENDMDL
MODEL 7
REMARK VINA RESULT:      -8.5      1.668      1.742
REMARK  Name = 
REMARK  6 active torsions:
REMARK  status: ('A' for Active; 'I' for Inactive)
REMARK    1  A    between atoms: O_1  and  C_2
REMARK    2  A    between atoms: C_8  and  O_9
REMARK    3  A    between atoms: O_9  and  C_10
REMARK    4  A    between atoms: C_16  and  C_17
REMARK    5  A    between atoms: C_17  and  N_18
REMARK    6  A    between atoms: N_18  and  C_19
REMARK                            x       y       z     vdW  Elec       q    Type
REMARK                         _______ _______ _______ _____ _____    ______ ____
ROOT
ATOM      1  C   UNL     1       2.962   3.988  18.364  0.00  0.00    +0.000 A 
ATOM      2  C   UNL     1       2.839   2.605  18.556  0.00  0.00    +0.000 A 
ATOM      3  C   UNL     1       2.272   2.100  19.727  0.00  0.00    +0.000 A 
ATOM      4  C   UNL     1       1.763   2.976  20.680  0.00  0.00    +0.000 A 
ATOM      5 CL   UNL     1       1.076   2.355  22.129  0.00  0.00    +0.000 Cl
ATOM      6  C   UNL     1       1.813   4.354  20.470  0.00  0.00    +0.000 A 
ATOM      7  C   UNL     1       2.421   4.880  19.313  0.00  0.00    +0.000 A 
ENDROOT
BRANCH   1   8
ATOM      8  O   UNL     1       3.561   4.544  17.252  0.00  0.00    +0.000 OA
BRANCH   8  15
ATOM      9  C   UNL     1       5.875   4.913  18.051  0.00  0.00    +0.000 A 
ATOM     10  C   UNL     1       6.965   5.782  18.133  0.00  0.00    +0.000 A 
ATOM     11  C   UNL     1       6.876   7.052  17.563  0.00  0.00    +0.000 A 
ATOM     12 CL   UNL     1       8.205   8.139  17.697  0.00  0.00    +0.000 Cl
ATOM     13  C   UNL     1       5.716   7.456  16.906  0.00  0.00    +0.000 A 
ATOM     14  C   UNL     1       4.636   6.575  16.809  0.00  0.00    +0.000 A 
ATOM     15  C   UNL     1       4.713   5.291  17.363  0.00  0.00    +0.000 A 
BRANCH   9  16
ATOM     16  O   UNL     1       5.950   3.696  18.670  0.00  0.00    +0.000 OA
ATOM     17  H   UNL     1       5.073   3.280  18.677  0.00  0.00    +0.000 HD
ENDBRANCH   9  16
ENDBRANCH   8  15
ENDBRANCH   1   8
BRANCH   7  18
ATOM     18  C   UNL     1       2.497   6.383  19.142  0.00  0.00    +0.000 C 
BRANCH  18  19
ATOM     19  N   UNL     1       2.371   7.066  20.432  0.00  0.00    +0.000 N 
ATOM     20  H   UNL     1       3.265   7.176  20.900  0.00  0.00    +0.000 HD
BRANCH  19  21
ATOM     21  C   UNL     1       1.593   8.236  20.489  0.00  0.00    +0.000 A 
ATOM     22  C   UNL     1       1.325   9.026  19.368  0.00  0.00    +0.000 A 
ATOM     23  C   UNL     1       0.480  10.140  19.445  0.00  0.00    +0.000 A 
ATOM     24  C   UNL     1      -0.141  10.490  20.649  0.00  0.00    +0.000 A 
ATOM     25  C   UNL     1      -0.999  11.601  20.736  0.00  0.00    +0.000 A 
ATOM     26  C   UNL     1      -1.618  11.935  21.939  0.00  0.00    +0.000 A 
ATOM     27  C   UNL     1      -1.388  11.162  23.074  0.00  0.00    +0.000 A 
ATOM     28  C   UNL     1      -0.539  10.050  23.000  0.00  0.00    +0.000 A 
ATOM     29  C   UNL     1       0.090   9.696  21.792  0.00  0.00    +0.000 A 
ATOM     30  C   UNL     1       0.940   8.572  21.688  0.00  0.00    +0.000 A 
ENDBRANCH  19  21
ENDBRANCH  18  19
ENDBRANCH   7  18
TORSDOF 6
ENDMDL
MODEL 8
REMARK VINA RESULT:      -8.5      1.778      4.605
REMARK  Name = 
REMARK  6 active torsions:
REMARK  status: ('A' for Active; 'I' for Inactive)
REMARK    1  A    between atoms: O_1  and  C_2
REMARK    2  A    between atoms: C_8  and  O_9
REMARK    3  A    between atoms: O_9  and  C_10
REMARK    4  A    between atoms: C_16  and  C_17
REMARK    5  A    between atoms: C_17  and  N_18
REMARK    6  A    between atoms: N_18  and  C_19
REMARK                            x       y       z     vdW  Elec       q    Type
REMARK                         _______ _______ _______ _____ _____    ______ ____
ROOT
ATOM      1  C   UNL     1       4.724   4.746  17.419  0.00  0.00    +0.000 A 
ATOM      2  C   UNL     1       6.067   4.430  17.170  0.00  0.00    +0.000 A 
ATOM      3  C   UNL     1       7.025   5.439  17.063  0.00  0.00    +0.000 A 
ATOM      4  C   UNL     1       6.656   6.763  17.273  0.00  0.00    +0.000 A 
ATOM      5 CL   UNL     1       7.834   8.009  17.129  0.00  0.00    +0.000 Cl
ATOM      6  C   UNL     1       5.339   7.087  17.594  0.00  0.00    +0.000 A 
ATOM      7  C   UNL     1       4.352   6.084  17.663  0.00  0.00    +0.000 A 
ENDROOT
BRANCH   1   8
ATOM      8  O   UNL     1       3.726   3.796  17.483  0.00  0.00    +0.000 OA
BRANCH   8  15
ATOM      9  C   UNL     1       3.858   2.858  19.770  0.00  0.00    +0.000 A 
ATOM     10  C   UNL     1       3.172   2.481  20.928  0.00  0.00    +0.000 A 
ATOM     11  C   UNL     1       1.787   2.632  20.986  0.00  0.00    +0.000 A 
ATOM     12 CL   UNL     1       0.936   2.132  22.396  0.00  0.00    +0.000 Cl
ATOM     13  C   UNL     1       1.085   3.164  19.907  0.00  0.00    +0.000 A 
ATOM     14  C   UNL     1       1.778   3.559  18.759  0.00  0.00    +0.000 A 
ATOM     15  C   UNL     1       3.171   3.427  18.689  0.00  0.00    +0.000 A 
BRANCH   9  16
ATOM     16  O   UNL     1       5.207   2.645  19.700  0.00  0.00    +0.000 OA
ATOM     17  H   UNL     1       5.670   3.329  20.210  0.00  0.00    +0.000 HD
ENDBRANCH   9  16
ENDBRANCH   8  15
ENDBRANCH   1   8
BRANCH   7  18
ATOM     18  C   UNL     1       2.922   6.480  17.969  0.00  0.00    +0.000 C 
BRANCH  18  19
ATOM     19  N   UNL     1       2.761   6.819  19.385  0.00  0.00    +0.000 N 
ATOM     20  H   UNL     1       3.643   6.809  19.887  0.00  0.00    +0.000 HD
BRANCH  19  21
ATOM     21  C   UNL     1       1.973   7.936  19.713  0.00  0.00    +0.000 A 
ATOM     22  C   UNL     1       1.565   8.883  18.769  0.00  0.00    +0.000 A 
ATOM     23  C   UNL     1       0.714   9.940  19.116  0.00  0.00    +0.000 A 
ATOM     24  C   UNL     1       0.227  10.074  20.420  0.00  0.00    +0.000 A 
ATOM     25  C   UNL     1      -0.635  11.125  20.777  0.00  0.00    +0.000 A 
ATOM     26  C   UNL     1      -1.119  11.243  22.079  0.00  0.00    +0.000 A 
ATOM     27  C   UNL     1      -0.747  10.310  23.044  0.00  0.00    +0.000 A 
ATOM     28  C   UNL     1       0.107   9.256  22.700  0.00  0.00    +0.000 A 
ATOM     29  C   UNL     1       0.601   9.119  21.389  0.00  0.00    +0.000 A 
ATOM     30  C   UNL     1       1.455   8.056  21.014  0.00  0.00    +0.000 A 
ENDBRANCH  19  21
ENDBRANCH  18  19
ENDBRANCH   7  18
TORSDOF 6
ENDMDL
MODEL 9
REMARK VINA RESULT:      -8.5      1.267      1.878
REMARK  Name = 
REMARK  6 active torsions:
REMARK  status: ('A' for Active; 'I' for Inactive)
REMARK    1  A    between atoms: O_1  and  C_2
REMARK    2  A    between atoms: C_8  and  O_9
REMARK    3  A    between atoms: O_9  and  C_10
REMARK    4  A    between atoms: C_16  and  C_17
REMARK    5  A    between atoms: C_17  and  N_18
REMARK    6  A    between atoms: N_18  and  C_19
REMARK                            x       y       z     vdW  Elec       q    Type
REMARK                         _______ _______ _______ _____ _____    ______ ____
ROOT
ATOM      1  C   UNL     1       4.266   4.847  18.592  0.00  0.00    +0.000 A 
ATOM      2  C   UNL     1       4.753   3.719  19.268  0.00  0.00    +0.000 A 
ATOM      3  C   UNL     1       3.918   2.979  20.106  0.00  0.00    +0.000 A 
ATOM      4  C   UNL     1       2.576   3.323  20.219  0.00  0.00    +0.000 A 
ATOM      5 CL   UNL     1       1.549   2.419  21.261  0.00  0.00    +0.000 Cl
ATOM      6  C   UNL     1       2.059   4.398  19.497  0.00  0.00    +0.000 A 
ATOM      7  C   UNL     1       2.899   5.181  18.681  0.00  0.00    +0.000 A 
ENDROOT
BRANCH   1   8
ATOM      8  O   UNL     1       5.056   5.646  17.794  0.00  0.00    +0.000 OA
BRANCH   8  15
ATOM      9  C   UNL     1       6.765   5.578  16.003  0.00  0.00    +0.000 A 
ATOM     10  C   UNL     1       7.144   5.068  14.759  0.00  0.00    +0.000 A 
ATOM     11  C   UNL     1       6.291   4.193  14.086  0.00  0.00    +0.000 A 
ATOM     12 CL   UNL     1       6.739   3.594  12.535  0.00  0.00    +0.000 Cl
ATOM     13  C   UNL     1       5.073   3.817  14.647  0.00  0.00    +0.000 A 
ATOM     14  C   UNL     1       4.708   4.313  15.901  0.00  0.00    +0.000 A 
ATOM     15  C   UNL     1       5.558   5.182  16.598  0.00  0.00    +0.000 A 
BRANCH   9  16
ATOM     16  O   UNL     1       7.579   6.485  16.623  0.00  0.00    +0.000 OA
ATOM     17  H   UNL     1       8.325   6.022  17.036  0.00  0.00    +0.000 HD
ENDBRANCH   9  16
ENDBRANCH   8  15
ENDBRANCH   1   8
BRANCH   7  18
ATOM     18  C   UNL     1       2.310   6.370  17.948  0.00  0.00    +0.000 C 
BRANCH  18  19
ATOM     19  N   UNL     1       2.749   7.630  18.553  0.00  0.00    +0.000 N 
ATOM     20  H   UNL     1       3.147   8.268  17.871  0.00  0.00    +0.000 HD
BRANCH  19  21
ATOM     21  C   UNL     1       1.872   8.278  19.441  0.00  0.00    +0.000 A 
ATOM     22  C   UNL     1       1.678   7.857  20.760  0.00  0.00    +0.000 A 
ATOM     23  C   UNL     1       0.858   8.572  21.641  0.00  0.00    +0.000 A 
ATOM     24  C   UNL     1       0.218   9.748  21.235  0.00  0.00    +0.000 A 
ATOM     25  C   UNL     1      -0.599  10.480  22.114  0.00  0.00    +0.000 A 
ATOM     26  C   UNL     1      -1.225  11.654  21.699  0.00  0.00    +0.000 A 
ATOM     27  C   UNL     1      -1.043  12.114  20.398  0.00  0.00    +0.000 A 
ATOM     28  C   UNL     1      -0.227  11.397  19.514  0.00  0.00    +0.000 A 
ATOM     29  C   UNL     1       0.416  10.212  19.917  0.00  0.00    +0.000 A 
ATOM     30  C   UNL     1       1.254   9.477  19.048  0.00  0.00    +0.000 A 
ENDBRANCH  19  21
ENDBRANCH  18  19
ENDBRANCH   7  18
TORSDOF 6
ENDMDL
