MODEL 1
REMARK VINA RESULT:      -8.1      0.000      0.000
REMARK  Name = 
REMARK  8 active torsions:
REMARK  status: ('A' for Active; 'I' for Inactive)
REMARK    1  A    between atoms: C_2  and  C_19
REMARK    2  A    between atoms: N_3  and  C_4
REMARK    3  A    between atoms: C_4  and  C_5
REMARK    4  A    between atoms: C_5  and  C_6
REMARK    5  A    between atoms: C_6  and  N_7
REMARK    6  A    between atoms: N_7  and  C_8
REMARK    7  A    between atoms: N_7  and  C_14
REMARK    8  A    between atoms: C_8  and  C_9
REMARK                            x       y       z     vdW  Elec       q    Type
REMARK                         _______ _______ _______ _____ _____    ______ ____
ROOT
ATOM      1  O   UNL     1       3.156   4.246  20.293  0.00  0.00    +0.000 OA
ATOM      2  C   UNL     1       3.028   5.042  19.358  0.00  0.00    +0.000 C 
ATOM      3  N   UNL     1       3.460   4.718  18.087  0.00  0.00    +0.000 N 
ATOM      4  H   UNL     1       3.333   5.394  17.344  0.00  0.00    +0.000 HD
ENDROOT
BRANCH   2   5
ATOM      5  C   UNL     1       2.429   6.357  19.537  0.00  0.00    +0.000 A 
ATOM      6  C   UNL     1       2.500   7.399  18.636  0.00  0.00    +0.000 A 
ATOM      7  C   UNL     1       1.817   8.582  19.069  0.00  0.00    +0.000 A 
ATOM      8  C   UNL     1       1.272   8.420  20.330  0.00  0.00    +0.000 A 
ATOM      9  S   UNL     1       1.544   6.824  20.917  0.00  0.00    +0.000 S 
ATOM     10  C   UNL     1       0.541   9.450  21.094  0.00  0.00    +0.000 A 
ATOM     11  C   UNL     1       0.034   9.213  22.387  0.00  0.00    +0.000 A 
ATOM     12  C   UNL     1      -0.648  10.206  23.100  0.00  0.00    +0.000 A 
ATOM     13  C   UNL     1      -0.843  11.455  22.534  0.00  0.00    +0.000 A 
ATOM     14  C   UNL     1      -0.348  11.715  21.259  0.00  0.00    +0.000 A 
ATOM     15  C   UNL     1       0.348  10.730  20.534  0.00  0.00    +0.000 A 
ATOM     16  S   UNL     1       0.949  11.267  18.936  0.00  0.00    +0.000 S 
ATOM     17  C   UNL     1       1.733   9.804  18.223  0.00  0.00    +0.000 C 
ENDBRANCH   2   5
BRANCH   3  18
ATOM     18  C   UNL     1       4.056   3.434  17.776  0.00  0.00    +0.000 C 
BRANCH  18  19
ATOM     19  C   UNL     1       4.457   3.292  16.308  0.00  0.00    +0.000 C 
BRANCH  19  20
ATOM     20  C   UNL     1       5.149   4.527  15.717  0.00  0.00    +0.000 C 
BRANCH  20  21
ATOM     21  N   UNL     1       6.595   4.413  15.419  0.00  0.00    +0.000 NA
BRANCH  21  22
ATOM     22  C   UNL     1       7.387   5.192  16.404  0.00  0.00    +0.000 C 
ATOM     23  C   UNL     1       6.720   6.526  16.776  0.00  0.00    +0.000 C 
ATOM     24  C   UNL     1       7.458   6.985  18.023  0.00  0.00    +0.000 C 
ATOM     25  C   UNL     1       7.898   5.711  18.733  0.00  0.00    +0.000 C 
ATOM     26  C   UNL     1       7.557   4.554  17.793  0.00  0.00    +0.000 C 
ENDBRANCH  21  22
BRANCH  21  27
ATOM     27  C   UNL     1       6.928   4.765  14.016  0.00  0.00    +0.000 C 
BRANCH  27  28
ATOM     28  C   UNL     1       6.290   3.898  12.981  0.00  0.00    +0.000 A 
ATOM     29  C   UNL     1       6.759   2.881  12.173  0.00  0.00    +0.000 A 
ATOM     30  C   UNL     1       5.629   2.346  11.511  0.00  0.00    +0.000 A 
ATOM     31  C   UNL     1       4.558   3.117  11.894  0.00  0.00    +0.000 A 
ATOM     32  O   UNL     1       4.951   4.073  12.773  0.00  0.00    +0.000 OA
ENDBRANCH  27  28
ENDBRANCH  21  27
ENDBRANCH  20  21
ENDBRANCH  19  20
ENDBRANCH  18  19
ENDBRANCH   3  18
TORSDOF 8
ENDMDL
MODEL 2
REMARK VINA RESULT:      -8.0      3.921      6.538
REMARK  Name = 
REMARK  8 active torsions:
REMARK  status: ('A' for Active; 'I' for Inactive)
REMARK    1  A    between atoms: C_2  and  C_19
REMARK    2  A    between atoms: N_3  and  C_4
REMARK    3  A    between atoms: C_4  and  C_5
REMARK    4  A    between atoms: C_5  and  C_6
REMARK    5  A    between atoms: C_6  and  N_7
REMARK    6  A    between atoms: N_7  and  C_8
REMARK    7  A    between atoms: N_7  and  C_14
REMARK    8  A    between atoms: C_8  and  C_9
REMARK                            x       y       z     vdW  Elec       q    Type
REMARK                         _______ _______ _______ _____ _____    ______ ____
ROOT
ATOM      1  O   UNL     1       1.499  11.549  19.547  0.00  0.00    +0.000 OA
ATOM      2  C   UNL     1       0.496  11.056  19.022  0.00  0.00    +0.000 C 
ATOM      3  N   UNL     1       0.610  10.045  18.087  0.00  0.00    +0.000 N 
ATOM      4  H   UNL     1      -0.236   9.662  17.683  0.00  0.00    +0.000 HD
ENDROOT
BRANCH   2   5
ATOM      5  C   UNL     1      -0.849  11.508  19.346  0.00  0.00    +0.000 A 
ATOM      6  C   UNL     1      -1.240  12.060  20.549  0.00  0.00    +0.000 A 
ATOM      7  C   UNL     1      -2.628  12.418  20.593  0.00  0.00    +0.000 A 
ATOM      8  C   UNL     1      -3.276  12.082  19.419  0.00  0.00    +0.000 A 
ATOM      9  S   UNL     1      -2.174  11.411  18.278  0.00  0.00    +0.000 S 
ATOM     10  C   UNL     1      -4.713  12.269  19.141  0.00  0.00    +0.000 A 
ATOM     11  C   UNL     1      -5.305  11.878  17.923  0.00  0.00    +0.000 A 
ATOM     12  C   UNL     1      -6.672  12.055  17.683  0.00  0.00    +0.000 A 
ATOM     13  C   UNL     1      -7.478  12.630  18.651  0.00  0.00    +0.000 A 
ATOM     14  C   UNL     1      -6.918  13.020  19.865  0.00  0.00    +0.000 A 
ATOM     15  C   UNL     1      -5.546  12.841  20.125  0.00  0.00    +0.000 A 
ATOM     16  S   UNL     1      -5.024  13.359  21.757  0.00  0.00    +0.000 S 
ATOM     17  C   UNL     1      -3.240  13.072  21.782  0.00  0.00    +0.000 C 
ENDBRANCH   2   5
BRANCH   3  18
ATOM     18  C   UNL     1       1.892   9.496  17.693  0.00  0.00    +0.000 C 
BRANCH  18  19
ATOM     19  C   UNL     1       2.137   8.086  18.230  0.00  0.00    +0.000 C 
BRANCH  19  20
ATOM     20  C   UNL     1       3.509   7.500  17.870  0.00  0.00    +0.000 C 
BRANCH  20  21
ATOM     21  N   UNL     1       3.707   6.051  18.104  0.00  0.00    +0.000 NA
BRANCH  21  22
ATOM     22  C   UNL     1       4.830   5.544  17.277  0.00  0.00    +0.000 C 
ATOM     23  C   UNL     1       4.580   4.125  16.745  0.00  0.00    +0.000 C 
ATOM     24  C   UNL     1       5.626   3.936  15.658  0.00  0.00    +0.000 C 
ATOM     25  C   UNL     1       5.876   5.324  15.083  0.00  0.00    +0.000 C 
ATOM     26  C   UNL     1       5.101   6.304  15.966  0.00  0.00    +0.000 C 
ENDBRANCH  21  22
BRANCH  21  27
ATOM     27  C   UNL     1       2.464   5.259  17.922  0.00  0.00    +0.000 C 
BRANCH  27  28
ATOM     28  C   UNL     1       2.086   4.403  19.085  0.00  0.00    +0.000 A 
ATOM     29  C   UNL     1       2.189   4.560  20.453  0.00  0.00    +0.000 A 
ATOM     30  C   UNL     1       1.510   3.462  21.032  0.00  0.00    +0.000 A 
ATOM     31  C   UNL     1       1.107   2.666  19.987  0.00  0.00    +0.000 A 
ATOM     32  O   UNL     1       1.465   3.220  18.801  0.00  0.00    +0.000 OA
ENDBRANCH  27  28
ENDBRANCH  21  27
ENDBRANCH  20  21
ENDBRANCH  19  20
ENDBRANCH  18  19
ENDBRANCH   3  18
TORSDOF 8
ENDMDL
MODEL 3
REMARK VINA RESULT:      -7.9      3.652      6.187
REMARK  Name = 
REMARK  8 active torsions:
REMARK  status: ('A' for Active; 'I' for Inactive)
REMARK    1  A    between atoms: C_2  and  C_19
REMARK    2  A    between atoms: N_3  and  C_4
REMARK    3  A    between atoms: C_4  and  C_5
REMARK    4  A    between atoms: C_5  and  C_6
REMARK    5  A    between atoms: C_6  and  N_7
REMARK    6  A    between atoms: N_7  and  C_8
REMARK    7  A    between atoms: N_7  and  C_14
REMARK    8  A    between atoms: C_8  and  C_9
REMARK                            x       y       z     vdW  Elec       q    Type
REMARK                         _______ _______ _______ _____ _____    ______ ____
ROOT
ATOM      1  O   UNL     1       2.125  11.272  18.298  0.00  0.00    +0.000 OA
ATOM      2  C   UNL     1       1.174  10.520  18.531  0.00  0.00    +0.000 C 
ATOM      3  N   UNL     1       1.318   9.148  18.447  0.00  0.00    +0.000 N 
ATOM      4  H   UNL     1       0.517   8.563  18.650  0.00  0.00    +0.000 HD
ENDROOT
BRANCH   2   5
ATOM      5  C   UNL     1      -0.140  11.025  18.897  0.00  0.00    +0.000 A 
ATOM      6  C   UNL     1      -0.466  11.612  20.103  0.00  0.00    +0.000 A 
ATOM      7  C   UNL     1      -1.837  12.020  20.192  0.00  0.00    +0.000 A 
ATOM      8  C   UNL     1      -2.541  11.686  19.050  0.00  0.00    +0.000 A 
ATOM      9  S   UNL     1      -1.508  10.957  17.882  0.00  0.00    +0.000 S 
ATOM     10  C   UNL     1      -3.980  11.920  18.823  0.00  0.00    +0.000 A 
ATOM     11  C   UNL     1      -4.632  11.529  17.636  0.00  0.00    +0.000 A 
ATOM     12  C   UNL     1      -6.001  11.750  17.444  0.00  0.00    +0.000 A 
ATOM     13  C   UNL     1      -6.748  12.371  18.431  0.00  0.00    +0.000 A 
ATOM     14  C   UNL     1      -6.129  12.762  19.615  0.00  0.00    +0.000 A 
ATOM     15  C   UNL     1      -4.755  12.538  19.827  0.00  0.00    +0.000 A 
ATOM     16  S   UNL     1      -4.153  13.066  21.427  0.00  0.00    +0.000 S 
ATOM     17  C   UNL     1      -2.380  12.716  21.391  0.00  0.00    +0.000 C 
ENDBRANCH   2   5
BRANCH   3  18
ATOM     18  C   UNL     1       2.581   8.522  18.109  0.00  0.00    +0.000 C 
BRANCH  18  19
ATOM     19  C   UNL     1       2.493   6.999  18.012  0.00  0.00    +0.000 C 
BRANCH  19  20
ATOM     20  C   UNL     1       3.323   6.247  19.061  0.00  0.00    +0.000 C 
BRANCH  20  21
ATOM     21  N   UNL     1       3.837   4.910  18.686  0.00  0.00    +0.000 NA
BRANCH  21  22
ATOM     22  C   UNL     1       2.923   3.850  19.181  0.00  0.00    +0.000 C 
ATOM     23  C   UNL     1       2.093   4.303  20.392  0.00  0.00    +0.000 C 
ATOM     24  C   UNL     1       0.996   3.258  20.513  0.00  0.00    +0.000 C 
ATOM     25  C   UNL     1       0.738   2.766  19.095  0.00  0.00    +0.000 C 
ATOM     26  C   UNL     1       1.810   3.410  18.214  0.00  0.00    +0.000 C 
ENDBRANCH  21  22
BRANCH  21  27
ATOM     27  C   UNL     1       5.243   4.690  19.105  0.00  0.00    +0.000 C 
BRANCH  27  28
ATOM     28  C   UNL     1       6.237   5.621  18.493  0.00  0.00    +0.000 A 
ATOM     29  C   UNL     1       6.287   6.301  17.292  0.00  0.00    +0.000 A 
ATOM     30  C   UNL     1       7.417   7.149  17.361  0.00  0.00    +0.000 A 
ATOM     31  C   UNL     1       8.028   6.877  18.562  0.00  0.00    +0.000 A 
ATOM     32  O   UNL     1       7.328   5.940  19.249  0.00  0.00    +0.000 OA
ENDBRANCH  27  28
ENDBRANCH  21  27
ENDBRANCH  20  21
ENDBRANCH  19  20
ENDBRANCH  18  19
ENDBRANCH   3  18
TORSDOF 8
ENDMDL
MODEL 4
REMARK VINA RESULT:      -7.9      3.938      6.324
REMARK  Name = 
REMARK  8 active torsions:
REMARK  status: ('A' for Active; 'I' for Inactive)
REMARK    1  A    between atoms: C_2  and  C_19
REMARK    2  A    between atoms: N_3  and  C_4
REMARK    3  A    between atoms: C_4  and  C_5
REMARK    4  A    between atoms: C_5  and  C_6
REMARK    5  A    between atoms: C_6  and  N_7
REMARK    6  A    between atoms: N_7  and  C_8
REMARK    7  A    between atoms: N_7  and  C_14
REMARK    8  A    between atoms: C_8  and  C_9
REMARK                            x       y       z     vdW  Elec       q    Type
REMARK                         _______ _______ _______ _____ _____    ______ ____
ROOT
ATOM      1  O   UNL     1       1.152  11.424  19.543  0.00  0.00    +0.000 OA
ATOM      2  C   UNL     1       0.329  10.917  18.775  0.00  0.00    +0.000 C 
ATOM      3  N   UNL     1       0.716   9.970  17.847  0.00  0.00    +0.000 N 
ATOM      4  H   UNL     1       0.011   9.572  17.237  0.00  0.00    +0.000 HD
ENDROOT
BRANCH   2   5
ATOM      5  C   UNL     1      -1.078  11.286  18.796  0.00  0.00    +0.000 A 
ATOM      6  C   UNL     1      -1.961  11.136  17.746  0.00  0.00    +0.000 A 
ATOM      7  C   UNL     1      -3.290  11.583  18.043  0.00  0.00    +0.000 A 
ATOM      8  C   UNL     1      -3.374  12.111  19.319  0.00  0.00    +0.000 A 
ATOM      9  S   UNL     1      -1.864  11.985  20.137  0.00  0.00    +0.000 S 
ATOM     10  C   UNL     1      -4.580  12.700  19.932  0.00  0.00    +0.000 A 
ATOM     11  C   UNL     1      -4.579  13.240  21.234  0.00  0.00    +0.000 A 
ATOM     12  C   UNL     1      -5.731  13.804  21.794  0.00  0.00    +0.000 A 
ATOM     13  C   UNL     1      -6.910  13.837  21.069  0.00  0.00    +0.000 A 
ATOM     14  C   UNL     1      -6.936  13.314  19.779  0.00  0.00    +0.000 A 
ATOM     15  C   UNL     1      -5.783  12.751  19.198  0.00  0.00    +0.000 A 
ATOM     16  S   UNL     1      -6.002  12.177  17.517  0.00  0.00    +0.000 S 
ATOM     17  C   UNL     1      -4.404  11.465  17.063  0.00  0.00    +0.000 C 
ENDBRANCH   2   5
BRANCH   3  18
ATOM     18  C   UNL     1       2.085   9.505  17.739  0.00  0.00    +0.000 C 
BRANCH  18  19
ATOM     19  C   UNL     1       2.317   8.148  18.403  0.00  0.00    +0.000 C 
BRANCH  19  20
ATOM     20  C   UNL     1       3.442   7.317  17.772  0.00  0.00    +0.000 C 
BRANCH  20  21
ATOM     21  N   UNL     1       3.648   5.949  18.300  0.00  0.00    +0.000 NA
BRANCH  21  22
ATOM     22  C   UNL     1       4.925   5.388  17.791  0.00  0.00    +0.000 C 
ATOM     23  C   UNL     1       4.739   4.562  16.509  0.00  0.00    +0.000 C 
ATOM     24  C   UNL     1       6.146   4.395  15.958  0.00  0.00    +0.000 C 
ATOM     25  C   UNL     1       6.908   5.640  16.391  0.00  0.00    +0.000 C 
ATOM     26  C   UNL     1       5.977   6.411  17.329  0.00  0.00    +0.000 C 
ENDBRANCH  21  22
BRANCH  21  27
ATOM     27  C   UNL     1       2.493   5.051  18.049  0.00  0.00    +0.000 C 
BRANCH  27  28
ATOM     28  C   UNL     1       2.087   4.207  19.212  0.00  0.00    +0.000 A 
ATOM     29  C   UNL     1       1.747   4.492  20.519  0.00  0.00    +0.000 A 
ATOM     30  C   UNL     1       1.308   3.274  21.091  0.00  0.00    +0.000 A 
ATOM     31  C   UNL     1       1.483   2.312  20.125  0.00  0.00    +0.000 A 
ATOM     32  O   UNL     1       1.971   2.865  18.986  0.00  0.00    +0.000 OA
ENDBRANCH  27  28
ENDBRANCH  21  27
ENDBRANCH  20  21
ENDBRANCH  19  20
ENDBRANCH  18  19
ENDBRANCH   3  18
TORSDOF 8
ENDMDL
MODEL 5
REMARK VINA RESULT:      -7.9      4.033      6.144
REMARK  Name = 
REMARK  8 active torsions:
REMARK  status: ('A' for Active; 'I' for Inactive)
REMARK    1  A    between atoms: C_2  and  C_19
REMARK    2  A    between atoms: N_3  and  C_4
REMARK    3  A    between atoms: C_4  and  C_5
REMARK    4  A    between atoms: C_5  and  C_6
REMARK    5  A    between atoms: C_6  and  N_7
REMARK    6  A    between atoms: N_7  and  C_8
REMARK    7  A    between atoms: N_7  and  C_14
REMARK    8  A    between atoms: C_8  and  C_9
REMARK                            x       y       z     vdW  Elec       q    Type
REMARK                         _______ _______ _______ _____ _____    ______ ____
ROOT
ATOM      1  O   UNL     1       0.345   9.834  20.185  0.00  0.00    +0.000 OA
ATOM      2  C   UNL     1      -0.078  10.355  19.149  0.00  0.00    +0.000 C 
ATOM      3  N   UNL     1       0.709  10.420  18.015  0.00  0.00    +0.000 N 
ATOM      4  H   UNL     1       0.326  10.851  17.183  0.00  0.00    +0.000 HD
ENDROOT
BRANCH   2   5
ATOM      5  C   UNL     1      -1.411  10.932  19.062  0.00  0.00    +0.000 A 
ATOM      6  C   UNL     1      -2.302  10.737  18.027  0.00  0.00    +0.000 A 
ATOM      7  C   UNL     1      -3.547  11.426  18.202  0.00  0.00    +0.000 A 
ATOM      8  C   UNL     1      -3.552  12.177  19.363  0.00  0.00    +0.000 A 
ATOM      9  S   UNL     1      -2.083  11.968  20.237  0.00  0.00    +0.000 S 
ATOM     10  C   UNL     1      -4.653  13.041  19.828  0.00  0.00    +0.000 A 
ATOM     11  C   UNL     1      -4.574  13.795  21.016  0.00  0.00    +0.000 A 
ATOM     12  C   UNL     1      -5.626  14.617  21.435  0.00  0.00    +0.000 A 
ATOM     13  C   UNL     1      -6.783  14.702  20.679  0.00  0.00    +0.000 A 
ATOM     14  C   UNL     1      -6.885  13.971  19.498  0.00  0.00    +0.000 A 
ATOM     15  C   UNL     1      -5.832  13.146  19.059  0.00  0.00    +0.000 A 
ATOM     16  S   UNL     1      -6.131  12.326  17.497  0.00  0.00    +0.000 S 
ATOM     17  C   UNL     1      -4.661  11.309  17.223  0.00  0.00    +0.000 C 
ENDBRANCH   2   5
BRANCH   3  18
ATOM     18  C   UNL     1       2.048   9.865  17.970  0.00  0.00    +0.000 C 
BRANCH  18  19
ATOM     19  C   UNL     1       2.074   8.374  17.635  0.00  0.00    +0.000 C 
BRANCH  19  20
ATOM     20  C   UNL     1       2.450   7.466  18.813  0.00  0.00    +0.000 C 
BRANCH  20  21
ATOM     21  N   UNL     1       2.677   6.033  18.515  0.00  0.00    +0.000 NA
BRANCH  21  22
ATOM     22  C   UNL     1       1.815   5.185  19.376  0.00  0.00    +0.000 C 
ATOM     23  C   UNL     1       1.446   3.850  18.711  0.00  0.00    +0.000 C 
ATOM     24  C   UNL     1       0.899   2.999  19.845  0.00  0.00    +0.000 C 
ATOM     25  C   UNL     1       1.626   3.467  21.099  0.00  0.00    +0.000 C 
ATOM     26  C   UNL     1       2.446   4.692  20.690  0.00  0.00    +0.000 C 
ENDBRANCH  21  22
BRANCH  21  27
ATOM     27  C   UNL     1       4.109   5.646  18.588  0.00  0.00    +0.000 C 
BRANCH  27  28
ATOM     28  C   UNL     1       4.714   5.225  17.290  0.00  0.00    +0.000 A 
ATOM     29  C   UNL     1       4.942   3.997  16.702  0.00  0.00    +0.000 A 
ATOM     30  C   UNL     1       5.409   4.262  15.393  0.00  0.00    +0.000 A 
ATOM     31  C   UNL     1       5.511   5.629  15.292  0.00  0.00    +0.000 A 
ATOM     32  O   UNL     1       5.107   6.222  16.443  0.00  0.00    +0.000 OA
ENDBRANCH  27  28
ENDBRANCH  21  27
ENDBRANCH  20  21
ENDBRANCH  19  20
ENDBRANCH  18  19
ENDBRANCH   3  18
TORSDOF 8
ENDMDL
MODEL 6
REMARK VINA RESULT:      -7.9      3.714      6.149
REMARK  Name = 
REMARK  8 active torsions:
REMARK  status: ('A' for Active; 'I' for Inactive)
REMARK    1  A    between atoms: C_2  and  C_19
REMARK    2  A    between atoms: N_3  and  C_4
REMARK    3  A    between atoms: C_4  and  C_5
REMARK    4  A    between atoms: C_5  and  C_6
REMARK    5  A    between atoms: C_6  and  N_7
REMARK    6  A    between atoms: N_7  and  C_8
REMARK    7  A    between atoms: N_7  and  C_14
REMARK    8  A    between atoms: C_8  and  C_9
REMARK                            x       y       z     vdW  Elec       q    Type
REMARK                         _______ _______ _______ _____ _____    ______ ____
ROOT
ATOM      1  O   UNL     1       1.227  10.184  20.087  0.00  0.00    +0.000 OA
ATOM      2  C   UNL     1       0.578  10.172  19.036  0.00  0.00    +0.000 C 
ATOM      3  N   UNL     1       1.125   9.669  17.871  0.00  0.00    +0.000 N 
ATOM      4  H   UNL     1       0.560   9.672  17.031  0.00  0.00    +0.000 HD
ENDROOT
BRANCH   2   5
ATOM      5  C   UNL     1      -0.781  10.687  18.960  0.00  0.00    +0.000 A 
ATOM      6  C   UNL     1      -1.651  10.497  17.907  0.00  0.00    +0.000 A 
ATOM      7  C   UNL     1      -2.930  11.117  18.098  0.00  0.00    +0.000 A 
ATOM      8  C   UNL     1      -2.983  11.810  19.294  0.00  0.00    +0.000 A 
ATOM      9  S   UNL     1      -1.515  11.632  20.175  0.00  0.00    +0.000 S 
ATOM     10  C   UNL     1      -4.131  12.597  19.785  0.00  0.00    +0.000 A 
ATOM     11  C   UNL     1      -4.100  13.296  21.008  0.00  0.00    +0.000 A 
ATOM     12  C   UNL     1      -5.195  14.046  21.452  0.00  0.00    +0.000 A 
ATOM     13  C   UNL     1      -6.348  14.109  20.687  0.00  0.00    +0.000 A 
ATOM     14  C   UNL     1      -6.402  13.431  19.473  0.00  0.00    +0.000 A 
ATOM     15  C   UNL     1      -5.305  12.680  19.008  0.00  0.00    +0.000 A 
ATOM     16  S   UNL     1      -5.548  11.921  17.405  0.00  0.00    +0.000 S 
ATOM     17  C   UNL     1      -4.028  10.992  17.102  0.00  0.00    +0.000 C 
ENDBRANCH   2   5
BRANCH   3  18
ATOM     18  C   UNL     1       2.462   9.112  17.821  0.00  0.00    +0.000 C 
BRANCH  18  19
ATOM     19  C   UNL     1       2.578   7.757  18.519  0.00  0.00    +0.000 C 
BRANCH  19  20
ATOM     20  C   UNL     1       2.881   6.583  17.579  0.00  0.00    +0.000 C 
BRANCH  20  21
ATOM     21  N   UNL     1       3.219   5.284  18.207  0.00  0.00    +0.000 NA
BRANCH  21  22
ATOM     22  C   UNL     1       1.984   4.586  18.643  0.00  0.00    +0.000 C 
ATOM     23  C   UNL     1       1.970   3.103  18.240  0.00  0.00    +0.000 C 
ATOM     24  C   UNL     1       0.849   2.496  19.067  0.00  0.00    +0.000 C 
ATOM     25  C   UNL     1       0.797   3.311  20.352  0.00  0.00    +0.000 C 
ATOM     26  C   UNL     1       1.769   4.477  20.163  0.00  0.00    +0.000 C 
ENDBRANCH  21  22
BRANCH  21  27
ATOM     27  C   UNL     1       4.217   5.411  19.299  0.00  0.00    +0.000 C 
BRANCH  27  28
ATOM     28  C   UNL     1       5.632   5.169  18.890  0.00  0.00    +0.000 A 
ATOM     29  C   UNL     1       6.219   4.691  17.735  0.00  0.00    +0.000 A 
ATOM     30  C   UNL     1       7.616   4.841  17.907  0.00  0.00    +0.000 A 
ATOM     31  C   UNL     1       7.796   5.324  19.181  0.00  0.00    +0.000 A 
ATOM     32  O   UNL     1       6.599   5.511  19.792  0.00  0.00    +0.000 OA
ENDBRANCH  27  28
ENDBRANCH  21  27
ENDBRANCH  20  21
ENDBRANCH  19  20
ENDBRANCH  18  19
ENDBRANCH   3  18
TORSDOF 8
ENDMDL
MODEL 7
REMARK VINA RESULT:      -7.8      3.306      5.712
REMARK  Name = 
REMARK  8 active torsions:
REMARK  status: ('A' for Active; 'I' for Inactive)
REMARK    1  A    between atoms: C_2  and  C_19
REMARK    2  A    between atoms: N_3  and  C_4
REMARK    3  A    between atoms: C_4  and  C_5
REMARK    4  A    between atoms: C_5  and  C_6
REMARK    5  A    between atoms: C_6  and  N_7
REMARK    6  A    between atoms: N_7  and  C_8
REMARK    7  A    between atoms: N_7  and  C_14
REMARK    8  A    between atoms: C_8  and  C_9
REMARK                            x       y       z     vdW  Elec       q    Type
REMARK                         _______ _______ _______ _____ _____    ______ ____
ROOT
ATOM      1  O   UNL     1       2.284   9.885  17.438  0.00  0.00    +0.000 OA
ATOM      2  C   UNL     1       1.388   9.365  18.109  0.00  0.00    +0.000 C 
ATOM      3  N   UNL     1       1.466   8.039  18.490  0.00  0.00    +0.000 N 
ATOM      4  H   UNL     1       0.714   7.649  19.045  0.00  0.00    +0.000 HD
ENDROOT
BRANCH   2   5
ATOM      5  C   UNL     1       0.207  10.105  18.529  0.00  0.00    +0.000 A 
ATOM      6  C   UNL     1       0.063  10.769  19.730  0.00  0.00    +0.000 A 
ATOM      7  C   UNL     1      -1.207  11.417  19.880  0.00  0.00    +0.000 A 
ATOM      8  C   UNL     1      -2.026  11.186  18.790  0.00  0.00    +0.000 A 
ATOM      9  S   UNL     1      -1.209  10.256  17.593  0.00  0.00    +0.000 S 
ATOM     10  C   UNL     1      -3.413  11.666  18.634  0.00  0.00    +0.000 A 
ATOM     11  C   UNL     1      -4.192  11.370  17.499  0.00  0.00    +0.000 A 
ATOM     12  C   UNL     1      -5.510  11.826  17.374  0.00  0.00    +0.000 A 
ATOM     13  C   UNL     1      -6.076  12.593  18.378  0.00  0.00    +0.000 A 
ATOM     14  C   UNL     1      -5.328  12.896  19.513  0.00  0.00    +0.000 A 
ATOM     15  C   UNL     1      -4.004  12.437  19.657  0.00  0.00    +0.000 A 
ATOM     16  S   UNL     1      -3.224  12.887  21.203  0.00  0.00    +0.000 S 
ATOM     17  C   UNL     1      -1.547  12.226  21.082  0.00  0.00    +0.000 C 
ENDBRANCH   2   5
BRANCH   3  18
ATOM     18  C   UNL     1       2.599   7.202  18.150  0.00  0.00    +0.000 C 
BRANCH  18  19
ATOM     19  C   UNL     1       3.408   6.755  19.367  0.00  0.00    +0.000 C 
BRANCH  19  20
ATOM     20  C   UNL     1       3.966   5.329  19.270  0.00  0.00    +0.000 C 
BRANCH  20  21
ATOM     21  N   UNL     1       3.838   4.641  17.965  0.00  0.00    +0.000 NA
BRANCH  21  22
ATOM     22  C   UNL     1       2.954   3.456  18.092  0.00  0.00    +0.000 C 
ATOM     23  C   UNL     1       3.060   2.784  19.470  0.00  0.00    +0.000 C 
ATOM     24  C   UNL     1       1.856   1.859  19.535  0.00  0.00    +0.000 C 
ATOM     25  C   UNL     1       0.778   2.526  18.691  0.00  0.00    +0.000 C 
ATOM     26  C   UNL     1       1.441   3.729  18.017  0.00  0.00    +0.000 C 
ENDBRANCH  21  22
BRANCH  21  27
ATOM     27  C   UNL     1       5.150   4.309  17.354  0.00  0.00    +0.000 C 
BRANCH  27  28
ATOM     28  C   UNL     1       6.275   5.207  17.751  0.00  0.00    +0.000 A 
ATOM     29  C   UNL     1       6.720   6.431  17.291  0.00  0.00    +0.000 A 
ATOM     30  C   UNL     1       7.742   6.841  18.180  0.00  0.00    +0.000 A 
ATOM     31  C   UNL     1       7.910   5.811  19.074  0.00  0.00    +0.000 A 
ATOM     32  O   UNL     1       7.035   4.808  18.813  0.00  0.00    +0.000 OA
ENDBRANCH  27  28
ENDBRANCH  21  27
ENDBRANCH  20  21
ENDBRANCH  19  20
ENDBRANCH  18  19
ENDBRANCH   3  18
TORSDOF 8
ENDMDL
MODEL 8
REMARK VINA RESULT:      -7.7      3.646      5.754
REMARK  Name = 
REMARK  8 active torsions:
REMARK  status: ('A' for Active; 'I' for Inactive)
REMARK    1  A    between atoms: C_2  and  C_19
REMARK    2  A    between atoms: N_3  and  C_4
REMARK    3  A    between atoms: C_4  and  C_5
REMARK    4  A    between atoms: C_5  and  C_6
REMARK    5  A    between atoms: C_6  and  N_7
REMARK    6  A    between atoms: N_7  and  C_8
REMARK    7  A    between atoms: N_7  and  C_14
REMARK    8  A    between atoms: C_8  and  C_9
REMARK                            x       y       z     vdW  Elec       q    Type
REMARK                         _______ _______ _______ _____ _____    ______ ____
ROOT
ATOM      1  O   UNL     1       1.086   9.187  20.203  0.00  0.00    +0.000 OA
ATOM      2  C   UNL     1       0.613   9.849  19.275  0.00  0.00    +0.000 C 
ATOM      3  N   UNL     1       1.230   9.880  18.039  0.00  0.00    +0.000 N 
ATOM      4  H   UNL     1       0.809  10.430  17.301  0.00  0.00    +0.000 HD
ENDROOT
BRANCH   2   5
ATOM      5  C   UNL     1      -0.604  10.634  19.426  0.00  0.00    +0.000 A 
ATOM      6  C   UNL     1      -0.866  11.516  20.454  0.00  0.00    +0.000 A 
ATOM      7  C   UNL     1      -2.145  12.156  20.351  0.00  0.00    +0.000 A 
ATOM      8  C   UNL     1      -2.851  11.703  19.253  0.00  0.00    +0.000 A 
ATOM      9  S   UNL     1      -1.921  10.574  18.345  0.00  0.00    +0.000 S 
ATOM     10  C   UNL     1      -4.216  12.117  18.872  0.00  0.00    +0.000 A 
ATOM     11  C   UNL     1      -4.879  11.591  17.746  0.00  0.00    +0.000 A 
ATOM     12  C   UNL     1      -6.178  11.989  17.408  0.00  0.00    +0.000 A 
ATOM     13  C   UNL     1      -6.840  12.925  18.184  0.00  0.00    +0.000 A 
ATOM     14  C   UNL     1      -6.208  13.458  19.304  0.00  0.00    +0.000 A 
ATOM     15  C   UNL     1      -4.905  13.060  19.663  0.00  0.00    +0.000 A 
ATOM     16  S   UNL     1      -4.282  13.817  21.160  0.00  0.00    +0.000 S 
ATOM     17  C   UNL     1      -2.601  13.177  21.333  0.00  0.00    +0.000 C 
ENDBRANCH   2   5
BRANCH   3  18
ATOM     18  C   UNL     1       2.436   9.128  17.758  0.00  0.00    +0.000 C 
BRANCH  18  19
ATOM     19  C   UNL     1       2.210   7.616  17.713  0.00  0.00    +0.000 C 
BRANCH  19  20
ATOM     20  C   UNL     1       3.086   6.814  18.683  0.00  0.00    +0.000 C 
BRANCH  20  21
ATOM     21  N   UNL     1       3.513   5.464  18.250  0.00  0.00    +0.000 NA
BRANCH  21  22
ATOM     22  C   UNL     1       2.839   4.424  19.066  0.00  0.00    +0.000 C 
ATOM     23  C   UNL     1       2.159   5.002  20.317  0.00  0.00    +0.000 C 
ATOM     24  C   UNL     1       1.244   3.889  20.800  0.00  0.00    +0.000 C 
ATOM     25  C   UNL     1       0.831   3.123  19.550  0.00  0.00    +0.000 C 
ATOM     26  C   UNL     1       1.655   3.702  18.398  0.00  0.00    +0.000 C 
ENDBRANCH  21  22
BRANCH  21  27
ATOM     27  C   UNL     1       4.989   5.302  18.228  0.00  0.00    +0.000 C 
BRANCH  27  28
ATOM     28  C   UNL     1       5.551   4.826  16.929  0.00  0.00    +0.000 A 
ATOM     29  C   UNL     1       5.028   4.103  15.875  0.00  0.00    +0.000 A 
ATOM     30  C   UNL     1       6.015   4.106  14.862  0.00  0.00    +0.000 A 
ATOM     31  C   UNL     1       7.104   4.758  15.389  0.00  0.00    +0.000 A 
ATOM     32  O   UNL     1       6.838   5.185  16.649  0.00  0.00    +0.000 OA
ENDBRANCH  27  28
ENDBRANCH  21  27
ENDBRANCH  20  21
ENDBRANCH  19  20
ENDBRANCH  18  19
ENDBRANCH   3  18
TORSDOF 8
ENDMDL
MODEL 9
REMARK VINA RESULT:      -7.7      2.896      5.514
REMARK  Name = 
REMARK  8 active torsions:
REMARK  status: ('A' for Active; 'I' for Inactive)
REMARK    1  A    between atoms: C_2  and  C_19
REMARK    2  A    between atoms: N_3  and  C_4
REMARK    3  A    between atoms: C_4  and  C_5
REMARK    4  A    between atoms: C_5  and  C_6
REMARK    5  A    between atoms: C_6  and  N_7
REMARK    6  A    between atoms: N_7  and  C_8
REMARK    7  A    between atoms: N_7  and  C_14
REMARK    8  A    between atoms: C_8  and  C_9
REMARK                            x       y       z     vdW  Elec       q    Type
REMARK                         _______ _______ _______ _____ _____    ______ ____
ROOT
ATOM      1  O   UNL     1       2.496  10.389  17.528  0.00  0.00    +0.000 OA
ATOM      2  C   UNL     1       1.753   9.811  18.326  0.00  0.00    +0.000 C 
ATOM      3  N   UNL     1       1.904   8.463  18.587  0.00  0.00    +0.000 N 
ATOM      4  H   UNL     1       1.278   8.025  19.252  0.00  0.00    +0.000 HD
ENDROOT
BRANCH   2   5
ATOM      5  C   UNL     1       0.680  10.503  19.025  0.00  0.00    +0.000 A 
ATOM      6  C   UNL     1       0.762  11.025  20.300  0.00  0.00    +0.000 A 
ATOM      7  C   UNL     1      -0.448  11.657  20.741  0.00  0.00    +0.000 A 
ATOM      8  C   UNL     1      -1.447  11.558  19.791  0.00  0.00    +0.000 A 
ATOM      9  S   UNL     1      -0.872  10.768  18.372  0.00  0.00    +0.000 S 
ATOM     10  C   UNL     1      -2.828  12.059  19.934  0.00  0.00    +0.000 A 
ATOM     11  C   UNL     1      -3.798  11.899  18.925  0.00  0.00    +0.000 A 
ATOM     12  C   UNL     1      -5.106  12.373  19.083  0.00  0.00    +0.000 A 
ATOM     13  C   UNL     1      -5.471  13.022  20.251  0.00  0.00    +0.000 A 
ATOM     14  C   UNL     1      -4.532  13.189  21.265  0.00  0.00    +0.000 A 
ATOM     15  C   UNL     1      -3.215  12.710  21.124  0.00  0.00    +0.000 A 
ATOM     16  S   UNL     1      -2.169  12.976  22.552  0.00  0.00    +0.000 S 
ATOM     17  C   UNL     1      -0.555  12.325  22.067  0.00  0.00    +0.000 C 
ENDBRANCH   2   5
BRANCH   3  18
ATOM     18  C   UNL     1       2.945   7.667  17.968  0.00  0.00    +0.000 C 
BRANCH  18  19
ATOM     19  C   UNL     1       2.817   6.172  18.260  0.00  0.00    +0.000 C 
BRANCH  19  20
ATOM     20  C   UNL     1       3.710   5.670  19.403  0.00  0.00    +0.000 C 
BRANCH  20  21
ATOM     21  N   UNL     1       4.790   4.720  19.049  0.00  0.00    +0.000 NA
BRANCH  21  22
ATOM     22  C   UNL     1       5.205   4.915  17.637  0.00  0.00    +0.000 C 
ATOM     23  C   UNL     1       6.732   4.982  17.473  0.00  0.00    +0.000 C 
ATOM     24  C   UNL     1       6.961   4.812  15.980  0.00  0.00    +0.000 C 
ATOM     25  C   UNL     1       5.815   3.941  15.484  0.00  0.00    +0.000 C 
ATOM     26  C   UNL     1       4.858   3.774  16.666  0.00  0.00    +0.000 C 
ENDBRANCH  21  22
BRANCH  21  27
ATOM     27  C   UNL     1       4.443   3.309  19.349  0.00  0.00    +0.000 C 
BRANCH  27  28
ATOM     28  C   UNL     1       3.067   3.100  19.891  0.00  0.00    +0.000 A 
ATOM     29  C   UNL     1       2.534   3.126  21.165  0.00  0.00    +0.000 A 
ATOM     30  C   UNL     1       1.133   3.004  21.013  0.00  0.00    +0.000 A 
ATOM     31  C   UNL     1       0.906   2.833  19.668  0.00  0.00    +0.000 A 
ATOM     32  O   UNL     1       2.075   2.873  18.981  0.00  0.00    +0.000 OA
ENDBRANCH  27  28
ENDBRANCH  21  27
ENDBRANCH  20  21
ENDBRANCH  19  20
ENDBRANCH  18  19
ENDBRANCH   3  18
TORSDOF 8
ENDMDL
