MODEL 1
REMARK VINA RESULT:      -6.9      0.000      0.000
REMARK  Name = 
REMARK  10 active torsions:
REMARK  status: ('A' for Active; 'I' for Inactive)
REMARK    1  A    between atoms: C_1  and  C_2
REMARK    2  A    between atoms: C_2  and  C_3
REMARK    3  A    between atoms: C_4  and  C_5
REMARK    4  A    between atoms: C_8  and  O_9
REMARK    5  A    between atoms: O_9  and  C_10
REMARK    6  A    between atoms: C_15  and  S_16
REMARK    7  A    between atoms: S_16  and  C_17
REMARK    8  A    between atoms: C_17  and  C_18
REMARK    9  A    between atoms: C_18  and  C_19
REMARK   10  A    between atoms: C_19  and  O_21
REMARK                            x       y       z     vdW  Elec       q    Type
REMARK                         _______ _______ _______ _____ _____    ______ ____
ROOT
ATOM      1  C   UNL     1       3.268   3.802  19.424  0.00  0.00    +0.000 A 
ATOM      2  C   UNL     1       2.559   4.137  20.581  0.00  0.00    +0.000 A 
ATOM      3  C   UNL     1       2.274   3.195  21.716  0.00  0.00    +0.000 C 
ATOM      4  N   UNL     1       2.025   5.358  20.783  0.00  0.00    +0.000 NA
ATOM      5  C   UNL     1       2.175   6.361  19.907  0.00  0.00    +0.000 A 
ATOM      6  C   UNL     1       1.599   7.623  20.165  0.00  0.00    +0.000 A 
ATOM      7  C   UNL     1       1.768   8.688  19.274  0.00  0.00    +0.000 A 
ATOM      8  C   UNL     1       2.512   8.522  18.122  0.00  0.00    +0.000 A 
ATOM      9  C   UNL     1       3.078   7.278  17.853  0.00  0.00    +0.000 A 
ATOM     10  C   UNL     1       2.920   6.159  18.722  0.00  0.00    +0.000 A 
ATOM     11  C   UNL     1       3.466   4.843  18.484  0.00  0.00    +0.000 A 
ENDROOT
BRANCH   1  13
ATOM     12  C   UNL     1       3.042   1.556  18.248  0.00  0.00    +0.000 C 
ATOM     13  C   UNL     1       3.790   2.393  19.275  0.00  0.00    +0.000 C 
ENDBRANCH   1  13
BRANCH   6  14
ATOM     14  O   UNL     1       0.832   7.995  21.250  0.00  0.00    +0.000 OA
ATOM     15  C   UNL     1       1.276   9.071  22.067  0.00  0.00    +0.000 C 
ENDBRANCH   6  14
BRANCH  11  16
ATOM     16  S   UNL     1       4.584   4.648  17.057  0.00  0.00    +0.000 S 
BRANCH  16  17
ATOM     17  C   UNL     1       6.286   4.847  17.705  0.00  0.00    +0.000 C 
BRANCH  17  18
ATOM     18  C   UNL     1       6.426   5.435  19.102  0.00  0.00    +0.000 C 
BRANCH  18  19
ATOM     19  C   UNL     1       7.832   5.977  19.271  0.00  0.00    +0.000 C 
ATOM     20  O   UNL     1       8.282   6.953  18.691  0.00  0.00    +0.000 OA
BRANCH  19  21
ATOM     21  O   UNL     1       8.567   5.266  20.146  0.00  0.00    +0.000 OA
ATOM     22  H   UNL     1       8.305   4.329  20.220  0.00  0.00    +0.000 HD
ENDBRANCH  19  21
ENDBRANCH  18  19
ENDBRANCH  17  18
ENDBRANCH  16  17
ENDBRANCH  11  16
TORSDOF 7
ENDMDL
MODEL 2
REMARK VINA RESULT:      -6.6      1.278      1.344
REMARK  Name = 
REMARK  10 active torsions:
REMARK  status: ('A' for Active; 'I' for Inactive)
REMARK    1  A    between atoms: C_1  and  C_2
REMARK    2  A    between atoms: C_2  and  C_3
REMARK    3  A    between atoms: C_4  and  C_5
REMARK    4  A    between atoms: C_8  and  O_9
REMARK    5  A    between atoms: O_9  and  C_10
REMARK    6  A    between atoms: C_15  and  S_16
REMARK    7  A    between atoms: S_16  and  C_17
REMARK    8  A    between atoms: C_17  and  C_18
REMARK    9  A    between atoms: C_18  and  C_19
REMARK   10  A    between atoms: C_19  and  O_21
REMARK                            x       y       z     vdW  Elec       q    Type
REMARK                         _______ _______ _______ _____ _____    ______ ____
ROOT
ATOM      1  C   UNL     1       3.354   4.355  19.086  0.00  0.00    +0.000 A 
ATOM      2  C   UNL     1       2.674   4.586  20.284  0.00  0.00    +0.000 A 
ATOM      3  C   UNL     1       2.497   3.573  21.379  0.00  0.00    +0.000 C 
ATOM      4  N   UNL     1       2.072   5.758  20.570  0.00  0.00    +0.000 NA
ATOM      5  C   UNL     1       2.121   6.810  19.741  0.00  0.00    +0.000 A 
ATOM      6  C   UNL     1       1.477   8.017  20.087  0.00  0.00    +0.000 A 
ATOM      7  C   UNL     1       1.541   9.134  19.246  0.00  0.00    +0.000 A 
ATOM      8  C   UNL     1       2.245   9.074  18.059  0.00  0.00    +0.000 A 
ATOM      9  C   UNL     1       2.877   7.885  17.704  0.00  0.00    +0.000 A 
ATOM     10  C   UNL     1       2.827   6.716  18.520  0.00  0.00    +0.000 A 
ATOM     11  C   UNL     1       3.446   5.452  18.194  0.00  0.00    +0.000 A 
ENDROOT
BRANCH   1  13
ATOM     12  C   UNL     1       3.096   2.070  17.995  0.00  0.00    +0.000 C 
ATOM     13  C   UNL     1       3.958   2.993  18.844  0.00  0.00    +0.000 C 
ENDBRANCH   1  13
BRANCH   6  14
ATOM     14  O   UNL     1       0.734   8.285  21.218  0.00  0.00    +0.000 OA
ATOM     15  C   UNL     1      -0.156   9.393  21.207  0.00  0.00    +0.000 C 
ENDBRANCH   6  14
BRANCH  11  16
ATOM     16  S   UNL     1       4.514   5.402  16.716  0.00  0.00    +0.000 S 
BRANCH  16  17
ATOM     17  C   UNL     1       5.760   6.727  16.937  0.00  0.00    +0.000 C 
BRANCH  17  18
ATOM     18  C   UNL     1       7.010   6.371  17.729  0.00  0.00    +0.000 C 
BRANCH  18  19
ATOM     19  C   UNL     1       7.415   4.948  17.399  0.00  0.00    +0.000 C 
ATOM     20  O   UNL     1       7.881   4.581  16.331  0.00  0.00    +0.000 OA
BRANCH  19  21
ATOM     21  O   UNL     1       7.212   4.094  18.418  0.00  0.00    +0.000 OA
ATOM     22  H   UNL     1       7.881   3.385  18.486  0.00  0.00    +0.000 HD
ENDBRANCH  19  21
ENDBRANCH  18  19
ENDBRANCH  17  18
ENDBRANCH  16  17
ENDBRANCH  11  16
TORSDOF 7
ENDMDL
MODEL 3
REMARK VINA RESULT:      -6.6      1.250      1.626
REMARK  Name = 
REMARK  10 active torsions:
REMARK  status: ('A' for Active; 'I' for Inactive)
REMARK    1  A    between atoms: C_1  and  C_2
REMARK    2  A    between atoms: C_2  and  C_3
REMARK    3  A    between atoms: C_4  and  C_5
REMARK    4  A    between atoms: C_8  and  O_9
REMARK    5  A    between atoms: O_9  and  C_10
REMARK    6  A    between atoms: C_15  and  S_16
REMARK    7  A    between atoms: S_16  and  C_17
REMARK    8  A    between atoms: C_17  and  C_18
REMARK    9  A    between atoms: C_18  and  C_19
REMARK   10  A    between atoms: C_19  and  O_21
REMARK                            x       y       z     vdW  Elec       q    Type
REMARK                         _______ _______ _______ _____ _____    ______ ____
ROOT
ATOM      1  C   UNL     1       3.177   3.920  19.519  0.00  0.00    +0.000 A 
ATOM      2  C   UNL     1       2.439   4.264  20.654  0.00  0.00    +0.000 A 
ATOM      3  C   UNL     1       2.122   3.331  21.788  0.00  0.00    +0.000 C 
ATOM      4  N   UNL     1       1.901   5.487  20.834  0.00  0.00    +0.000 NA
ATOM      5  C   UNL     1       2.076   6.483  19.954  0.00  0.00    +0.000 A 
ATOM      6  C   UNL     1       1.494   7.748  20.189  0.00  0.00    +0.000 A 
ATOM      7  C   UNL     1       1.688   8.807  19.295  0.00  0.00    +0.000 A 
ATOM      8  C   UNL     1       2.462   8.632  18.164  0.00  0.00    +0.000 A 
ATOM      9  C   UNL     1       3.034   7.385  17.919  0.00  0.00    +0.000 A 
ATOM     10  C   UNL     1       2.851   6.273  18.792  0.00  0.00    +0.000 A 
ATOM     11  C   UNL     1       3.402   4.954  18.578  0.00  0.00    +0.000 A 
ENDROOT
BRANCH   1  13
ATOM     12  C   UNL     1       2.951   1.653  18.385  0.00  0.00    +0.000 C 
ATOM     13  C   UNL     1       3.701   2.509  19.395  0.00  0.00    +0.000 C 
ENDBRANCH   1  13
BRANCH   6  14
ATOM     14  O   UNL     1       0.699   8.129  21.250  0.00  0.00    +0.000 OA
ATOM     15  C   UNL     1       1.075   9.268  22.013  0.00  0.00    +0.000 C 
ENDBRANCH   6  14
BRANCH  11  16
ATOM     16  S   UNL     1       4.557   4.748  17.182  0.00  0.00    +0.000 S 
BRANCH  16  17
ATOM     17  C   UNL     1       6.241   4.737  17.905  0.00  0.00    +0.000 C 
BRANCH  17  18
ATOM     18  C   UNL     1       7.395   4.443  16.956  0.00  0.00    +0.000 C 
BRANCH  18  19
ATOM     19  C   UNL     1       7.448   5.524  15.894  0.00  0.00    +0.000 C 
ATOM     20  O   UNL     1       7.413   5.325  14.690  0.00  0.00    +0.000 OA
BRANCH  19  21
ATOM     21  O   UNL     1       7.540   6.763  16.410  0.00  0.00    +0.000 OA
ATOM     22  H   UNL     1       8.421   6.983  16.769  0.00  0.00    +0.000 HD
ENDBRANCH  19  21
ENDBRANCH  18  19
ENDBRANCH  17  18
ENDBRANCH  16  17
ENDBRANCH  11  16
TORSDOF 7
ENDMDL
MODEL 4
REMARK VINA RESULT:      -6.5      3.762      5.632
REMARK  Name = 
REMARK  10 active torsions:
REMARK  status: ('A' for Active; 'I' for Inactive)
REMARK    1  A    between atoms: C_1  and  C_2
REMARK    2  A    between atoms: C_2  and  C_3
REMARK    3  A    between atoms: C_4  and  C_5
REMARK    4  A    between atoms: C_8  and  O_9
REMARK    5  A    between atoms: O_9  and  C_10
REMARK    6  A    between atoms: C_15  and  S_16
REMARK    7  A    between atoms: S_16  and  C_17
REMARK    8  A    between atoms: C_17  and  C_18
REMARK    9  A    between atoms: C_18  and  C_19
REMARK   10  A    between atoms: C_19  and  O_21
REMARK                            x       y       z     vdW  Elec       q    Type
REMARK                         _______ _______ _______ _____ _____    ______ ____
ROOT
ATOM      1  C   UNL     1       4.634   6.062  17.143  0.00  0.00    +0.000 A 
ATOM      2  C   UNL     1       3.509   6.413  17.893  0.00  0.00    +0.000 A 
ATOM      3  C   UNL     1       3.032   7.820  18.118  0.00  0.00    +0.000 C 
ATOM      4  N   UNL     1       2.741   5.506  18.528  0.00  0.00    +0.000 NA
ATOM      5  C   UNL     1       2.972   4.188  18.447  0.00  0.00    +0.000 A 
ATOM      6  C   UNL     1       2.137   3.277  19.128  0.00  0.00    +0.000 A 
ATOM      7  C   UNL     1       2.348   1.897  19.032  0.00  0.00    +0.000 A 
ATOM      8  C   UNL     1       3.380   1.401  18.260  0.00  0.00    +0.000 A 
ATOM      9  C   UNL     1       4.216   2.292  17.591  0.00  0.00    +0.000 A 
ATOM     10  C   UNL     1       4.051   3.706  17.671  0.00  0.00    +0.000 A 
ATOM     11  C   UNL     1       4.898   4.676  17.016  0.00  0.00    +0.000 A 
ENDROOT
BRANCH   1  13
ATOM     12  C   UNL     1       6.744   7.482  17.244  0.00  0.00    +0.000 C 
ATOM     13  C   UNL     1       5.453   7.159  16.506  0.00  0.00    +0.000 C 
ENDBRANCH   1  13
BRANCH   6  14
ATOM     14  O   UNL     1       1.058   3.562  19.938  0.00  0.00    +0.000 OA
ATOM     15  C   UNL     1       1.025   3.021  21.252  0.00  0.00    +0.000 C 
ENDBRANCH   6  14
BRANCH  11  16
ATOM     16  S   UNL     1       6.161   4.040  15.865  0.00  0.00    +0.000 S 
BRANCH  16  17
ATOM     17  C   UNL     1       5.449   4.194  14.183  0.00  0.00    +0.000 C 
BRANCH  17  18
ATOM     18  C   UNL     1       6.317   3.728  13.023  0.00  0.00    +0.000 C 
BRANCH  18  19
ATOM     19  C   UNL     1       5.453   2.973  12.032  0.00  0.00    +0.000 C 
ATOM     20  O   UNL     1       4.388   3.371  11.586  0.00  0.00    +0.000 OA
BRANCH  19  21
ATOM     21  O   UNL     1       5.978   1.788  11.673  0.00  0.00    +0.000 OA
ATOM     22  H   UNL     1       6.904   1.837  11.367  0.00  0.00    +0.000 HD
ENDBRANCH  19  21
ENDBRANCH  18  19
ENDBRANCH  17  18
ENDBRANCH  16  17
ENDBRANCH  11  16
TORSDOF 7
ENDMDL
MODEL 5
REMARK VINA RESULT:      -6.4      0.966      1.070
REMARK  Name = 
REMARK  10 active torsions:
REMARK  status: ('A' for Active; 'I' for Inactive)
REMARK    1  A    between atoms: C_1  and  C_2
REMARK    2  A    between atoms: C_2  and  C_3
REMARK    3  A    between atoms: C_4  and  C_5
REMARK    4  A    between atoms: C_8  and  O_9
REMARK    5  A    between atoms: O_9  and  C_10
REMARK    6  A    between atoms: C_15  and  S_16
REMARK    7  A    between atoms: S_16  and  C_17
REMARK    8  A    between atoms: C_17  and  C_18
REMARK    9  A    between atoms: C_18  and  C_19
REMARK   10  A    between atoms: C_19  and  O_21
REMARK                            x       y       z     vdW  Elec       q    Type
REMARK                         _______ _______ _______ _____ _____    ______ ____
ROOT
ATOM      1  C   UNL     1       2.764   3.598  19.419  0.00  0.00    +0.000 A 
ATOM      2  C   UNL     1       2.329   4.073  20.659  0.00  0.00    +0.000 A 
ATOM      3  C   UNL     1       2.138   3.225  21.884  0.00  0.00    +0.000 C 
ATOM      4  N   UNL     1       2.003   5.363  20.874  0.00  0.00    +0.000 NA
ATOM      5  C   UNL     1       2.118   6.300  19.923  0.00  0.00    +0.000 A 
ATOM      6  C   UNL     1       1.766   7.639  20.199  0.00  0.00    +0.000 A 
ATOM      7  C   UNL     1       1.905   8.635  19.226  0.00  0.00    +0.000 A 
ATOM      8  C   UNL     1       2.397   8.323  17.974  0.00  0.00    +0.000 A 
ATOM      9  C   UNL     1       2.739   7.003  17.688  0.00  0.00    +0.000 A 
ATOM     10  C   UNL     1       2.600   5.951  18.641  0.00  0.00    +0.000 A 
ATOM     11  C   UNL     1       2.919   4.564  18.395  0.00  0.00    +0.000 A 
ENDROOT
BRANCH   1  13
ATOM     12  C   UNL     1       4.474   1.731  19.684  0.00  0.00    +0.000 C 
ATOM     13  C   UNL     1       3.064   2.126  19.271  0.00  0.00    +0.000 C 
ENDBRANCH   1  13
BRANCH   6  14
ATOM     14  O   UNL     1       1.266   8.157  21.376  0.00  0.00    +0.000 OA
ATOM     15  C   UNL     1       0.019   8.838  21.350  0.00  0.00    +0.000 C 
ENDBRANCH   6  14
BRANCH  11  16
ATOM     16  S   UNL     1       3.722   4.161  16.808  0.00  0.00    +0.000 S 
BRANCH  16  17
ATOM     17  C   UNL     1       5.454   4.742  16.944  0.00  0.00    +0.000 C 
BRANCH  17  18
ATOM     18  C   UNL     1       6.012   4.918  18.350  0.00  0.00    +0.000 C 
BRANCH  18  19
ATOM     19  C   UNL     1       7.522   4.793  18.301  0.00  0.00    +0.000 C 
ATOM     20  O   UNL     1       8.151   4.241  17.411  0.00  0.00    +0.000 OA
BRANCH  19  21
ATOM     21  O   UNL     1       8.131   5.361  19.358  0.00  0.00    +0.000 OA
ATOM     22  H   UNL     1       8.834   4.813  19.756  0.00  0.00    +0.000 HD
ENDBRANCH  19  21
ENDBRANCH  18  19
ENDBRANCH  17  18
ENDBRANCH  16  17
ENDBRANCH  11  16
TORSDOF 7
ENDMDL
MODEL 6
REMARK VINA RESULT:      -6.3      3.889      5.815
REMARK  Name = 
REMARK  10 active torsions:
REMARK  status: ('A' for Active; 'I' for Inactive)
REMARK    1  A    between atoms: C_1  and  C_2
REMARK    2  A    between atoms: C_2  and  C_3
REMARK    3  A    between atoms: C_4  and  C_5
REMARK    4  A    between atoms: C_8  and  O_9
REMARK    5  A    between atoms: O_9  and  C_10
REMARK    6  A    between atoms: C_15  and  S_16
REMARK    7  A    between atoms: S_16  and  C_17
REMARK    8  A    between atoms: C_17  and  C_18
REMARK    9  A    between atoms: C_18  and  C_19
REMARK   10  A    between atoms: C_19  and  O_21
REMARK                            x       y       z     vdW  Elec       q    Type
REMARK                         _______ _______ _______ _____ _____    ______ ____
ROOT
ATOM      1  C   UNL     1       6.575   5.316  17.670  0.00  0.00    +0.000 A 
ATOM      2  C   UNL     1       6.534   5.089  19.048  0.00  0.00    +0.000 A 
ATOM      3  C   UNL     1       7.513   5.650  20.040  0.00  0.00    +0.000 C 
ATOM      4  N   UNL     1       5.609   4.302  19.633  0.00  0.00    +0.000 NA
ATOM      5  C   UNL     1       4.625   3.714  18.937  0.00  0.00    +0.000 A 
ATOM      6  C   UNL     1       3.678   2.901  19.596  0.00  0.00    +0.000 A 
ATOM      7  C   UNL     1       2.629   2.301  18.890  0.00  0.00    +0.000 A 
ATOM      8  C   UNL     1       2.500   2.501  17.529  0.00  0.00    +0.000 A 
ATOM      9  C   UNL     1       3.435   3.295  16.868  0.00  0.00    +0.000 A 
ATOM     10  C   UNL     1       4.529   3.913  17.542  0.00  0.00    +0.000 A 
ATOM     11  C   UNL     1       5.538   4.729  16.905  0.00  0.00    +0.000 A 
ENDROOT
BRANCH   1  13
ATOM     12  C   UNL     1       7.480   7.671  17.335  0.00  0.00    +0.000 C 
ATOM     13  C   UNL     1       7.679   6.180  17.110  0.00  0.00    +0.000 C 
ENDBRANCH   1  13
BRANCH   6  14
ATOM     14  O   UNL     1       3.624   2.582  20.937  0.00  0.00    +0.000 OA
ATOM     15  C   UNL     1       2.404   2.774  21.639  0.00  0.00    +0.000 C 
ENDBRANCH   6  14
BRANCH  11  16
ATOM     16  S   UNL     1       5.293   5.137  15.145  0.00  0.00    +0.000 S 
BRANCH  16  17
ATOM     17  C   UNL     1       5.935   3.711  14.191  0.00  0.00    +0.000 C 
BRANCH  17  18
ATOM     18  C   UNL     1       6.334   3.973  12.745  0.00  0.00    +0.000 C 
BRANCH  18  19
ATOM     19  C   UNL     1       5.728   2.899  11.864  0.00  0.00    +0.000 C 
ATOM     20  O   UNL     1       4.583   2.905  11.437  0.00  0.00    +0.000 OA
BRANCH  19  21
ATOM     21  O   UNL     1       6.589   1.904  11.580  0.00  0.00    +0.000 OA
ATOM     22  H   UNL     1       7.166   2.082  10.812  0.00  0.00    +0.000 HD
ENDBRANCH  19  21
ENDBRANCH  18  19
ENDBRANCH  17  18
ENDBRANCH  16  17
ENDBRANCH  11  16
TORSDOF 7
ENDMDL
MODEL 7
REMARK VINA RESULT:      -6.3      3.117      4.672
REMARK  Name = 
REMARK  10 active torsions:
REMARK  status: ('A' for Active; 'I' for Inactive)
REMARK    1  A    between atoms: C_1  and  C_2
REMARK    2  A    between atoms: C_2  and  C_3
REMARK    3  A    between atoms: C_4  and  C_5
REMARK    4  A    between atoms: C_8  and  O_9
REMARK    5  A    between atoms: O_9  and  C_10
REMARK    6  A    between atoms: C_15  and  S_16
REMARK    7  A    between atoms: S_16  and  C_17
REMARK    8  A    between atoms: C_17  and  C_18
REMARK    9  A    between atoms: C_18  and  C_19
REMARK   10  A    between atoms: C_19  and  O_21
REMARK                            x       y       z     vdW  Elec       q    Type
REMARK                         _______ _______ _______ _____ _____    ______ ____
ROOT
ATOM      1  C   UNL     1       3.690   5.892  18.649  0.00  0.00    +0.000 A 
ATOM      2  C   UNL     1       3.723   6.914  17.698  0.00  0.00    +0.000 A 
ATOM      3  C   UNL     1       4.553   6.895  16.445  0.00  0.00    +0.000 C 
ATOM      4  N   UNL     1       3.020   8.058  17.828  0.00  0.00    +0.000 NA
ATOM      5  C   UNL     1       2.197   8.279  18.862  0.00  0.00    +0.000 A 
ATOM      6  C   UNL     1       1.480   9.491  18.951  0.00  0.00    +0.000 A 
ATOM      7  C   UNL     1       0.595   9.728  20.009  0.00  0.00    +0.000 A 
ATOM      8  C   UNL     1       0.404   8.770  20.986  0.00  0.00    +0.000 A 
ATOM      9  C   UNL     1       1.113   7.574  20.912  0.00  0.00    +0.000 A 
ATOM     10  C   UNL     1       2.037   7.294  19.862  0.00  0.00    +0.000 A 
ATOM     11  C   UNL     1       2.813   6.080  19.745  0.00  0.00    +0.000 A 
ENDROOT
BRANCH   1  13
ATOM     12  C   UNL     1       5.940   4.766  19.038  0.00  0.00    +0.000 C 
ATOM     13  C   UNL     1       4.548   4.669  18.430  0.00  0.00    +0.000 C 
ENDBRANCH   1  13
BRANCH   6  14
ATOM     14  O   UNL     1       1.522  10.565  18.086  0.00  0.00    +0.000 OA
ATOM     15  C   UNL     1       1.861  11.846  18.599  0.00  0.00    +0.000 C 
ENDBRANCH   6  14
BRANCH  11  16
ATOM     16  S   UNL     1       2.454   4.742  20.930  0.00  0.00    +0.000 S 
BRANCH  16  17
ATOM     17  C   UNL     1       0.905   3.948  20.356  0.00  0.00    +0.000 C 
BRANCH  17  18
ATOM     18  C   UNL     1       1.036   2.588  19.685  0.00  0.00    +0.000 C 
BRANCH  18  19
ATOM     19  C   UNL     1       1.504   2.785  18.257  0.00  0.00    +0.000 C 
ATOM     20  O   UNL     1       1.186   3.720  17.538  0.00  0.00    +0.000 OA
BRANCH  19  21
ATOM     21  O   UNL     1       2.328   1.809  17.834  0.00  0.00    +0.000 OA
ATOM     22  H   UNL     1       2.498   1.114  18.499  0.00  0.00    +0.000 HD
ENDBRANCH  19  21
ENDBRANCH  18  19
ENDBRANCH  17  18
ENDBRANCH  16  17
ENDBRANCH  11  16
TORSDOF 7
ENDMDL
MODEL 8
REMARK VINA RESULT:      -6.3      1.910      3.088
REMARK  Name = 
REMARK  10 active torsions:
REMARK  status: ('A' for Active; 'I' for Inactive)
REMARK    1  A    between atoms: C_1  and  C_2
REMARK    2  A    between atoms: C_2  and  C_3
REMARK    3  A    between atoms: C_4  and  C_5
REMARK    4  A    between atoms: C_8  and  O_9
REMARK    5  A    between atoms: O_9  and  C_10
REMARK    6  A    between atoms: C_15  and  S_16
REMARK    7  A    between atoms: S_16  and  C_17
REMARK    8  A    between atoms: C_17  and  C_18
REMARK    9  A    between atoms: C_18  and  C_19
REMARK   10  A    between atoms: C_19  and  O_21
REMARK                            x       y       z     vdW  Elec       q    Type
REMARK                         _______ _______ _______ _____ _____    ______ ____
ROOT
ATOM      1  C   UNL     1       4.624   4.171  16.978  0.00  0.00    +0.000 A 
ATOM      2  C   UNL     1       3.970   3.162  17.690  0.00  0.00    +0.000 A 
ATOM      3  C   UNL     1       4.154   1.689  17.456  0.00  0.00    +0.000 C 
ATOM      4  N   UNL     1       3.067   3.417  18.658  0.00  0.00    +0.000 NA
ATOM      5  C   UNL     1       2.764   4.664  19.045  0.00  0.00    +0.000 A 
ATOM      6  C   UNL     1       1.814   4.879  20.067  0.00  0.00    +0.000 A 
ATOM      7  C   UNL     1       1.505   6.172  20.502  0.00  0.00    +0.000 A 
ATOM      8  C   UNL     1       2.134   7.266  19.939  0.00  0.00    +0.000 A 
ATOM      9  C   UNL     1       3.066   7.066  18.924  0.00  0.00    +0.000 A 
ATOM     10  C   UNL     1       3.402   5.768  18.437  0.00  0.00    +0.000 A 
ATOM     11  C   UNL     1       4.345   5.502  17.375  0.00  0.00    +0.000 A 
ENDROOT
BRANCH   1  13
ATOM     12  C   UNL     1       5.171   4.242  14.493  0.00  0.00    +0.000 C 
ATOM     13  C   UNL     1       5.586   3.779  15.882  0.00  0.00    +0.000 C 
ENDBRANCH   1  13
BRANCH   6  14
ATOM     14  O   UNL     1       1.085   3.932  20.757  0.00  0.00    +0.000 OA
ATOM     15  C   UNL     1       1.746   3.131  21.727  0.00  0.00    +0.000 C 
ENDBRANCH   6  14
BRANCH  11  16
ATOM     16  S   UNL     1       5.302   6.915  16.734  0.00  0.00    +0.000 S 
BRANCH  16  17
ATOM     17  C   UNL     1       7.069   6.461  16.905  0.00  0.00    +0.000 C 
BRANCH  17  18
ATOM     18  C   UNL     1       7.721   6.728  18.254  0.00  0.00    +0.000 C 
BRANCH  18  19
ATOM     19  C   UNL     1       7.726   5.446  19.063  0.00  0.00    +0.000 C 
ATOM     20  O   UNL     1       7.557   5.378  20.271  0.00  0.00    +0.000 OA
BRANCH  19  21
ATOM     21  O   UNL     1       7.940   4.351  18.311  0.00  0.00    +0.000 OA
ATOM     22  H   UNL     1       7.607   4.423  17.396  0.00  0.00    +0.000 HD
ENDBRANCH  19  21
ENDBRANCH  18  19
ENDBRANCH  17  18
ENDBRANCH  16  17
ENDBRANCH  11  16
TORSDOF 7
ENDMDL
MODEL 9
REMARK VINA RESULT:      -6.3      2.578      4.999
REMARK  Name = 
REMARK  10 active torsions:
REMARK  status: ('A' for Active; 'I' for Inactive)
REMARK    1  A    between atoms: C_1  and  C_2
REMARK    2  A    between atoms: C_2  and  C_3
REMARK    3  A    between atoms: C_4  and  C_5
REMARK    4  A    between atoms: C_8  and  O_9
REMARK    5  A    between atoms: O_9  and  C_10
REMARK    6  A    between atoms: C_15  and  S_16
REMARK    7  A    between atoms: S_16  and  C_17
REMARK    8  A    between atoms: C_17  and  C_18
REMARK    9  A    between atoms: C_18  and  C_19
REMARK   10  A    between atoms: C_19  and  O_21
REMARK                            x       y       z     vdW  Elec       q    Type
REMARK                         _______ _______ _______ _____ _____    ______ ____
ROOT
ATOM      1  C   UNL     1       2.469   4.946  18.299  0.00  0.00    +0.000 A 
ATOM      2  C   UNL     1       3.017   6.211  18.524  0.00  0.00    +0.000 A 
ATOM      3  C   UNL     1       2.386   7.281  19.370  0.00  0.00    +0.000 C 
ATOM      4  N   UNL     1       4.176   6.616  17.968  0.00  0.00    +0.000 NA
ATOM      5  C   UNL     1       4.918   5.814  17.192  0.00  0.00    +0.000 A 
ATOM      6  C   UNL     1       6.126   6.283  16.635  0.00  0.00    +0.000 A 
ATOM      7  C   UNL     1       6.927   5.451  15.844  0.00  0.00    +0.000 A 
ATOM      8  C   UNL     1       6.546   4.145  15.600  0.00  0.00    +0.000 A 
ATOM      9  C   UNL     1       5.351   3.674  16.137  0.00  0.00    +0.000 A 
ATOM     10  C   UNL     1       4.495   4.490  16.935  0.00  0.00    +0.000 A 
ATOM     11  C   UNL     1       3.236   4.062  17.501  0.00  0.00    +0.000 A 
ENDROOT
BRANCH   1  13
ATOM     12  C   UNL     1       1.237   4.212  20.402  0.00  0.00    +0.000 C 
ATOM     13  C   UNL     1       1.143   4.605  18.935  0.00  0.00    +0.000 C 
ENDBRANCH   1  13
BRANCH   6  14
ATOM     14  O   UNL     1       6.684   7.539  16.761  0.00  0.00    +0.000 OA
ATOM     15  C   UNL     1       7.736   7.731  17.697  0.00  0.00    +0.000 C 
ENDBRANCH   6  14
BRANCH  11  16
ATOM     16  S   UNL     1       2.799   2.300  17.327  0.00  0.00    +0.000 S 
BRANCH  16  17
ATOM     17  C   UNL     1       3.243   1.500  18.915  0.00  0.00    +0.000 C 
BRANCH  17  18
ATOM     18  C   UNL     1       4.594   1.864  19.514  0.00  0.00    +0.000 C 
BRANCH  18  19
ATOM     19  C   UNL     1       4.505   1.771  21.025  0.00  0.00    +0.000 C 
ATOM     20  O   UNL     1       3.531   2.087  21.691  0.00  0.00    +0.000 OA
BRANCH  19  21
ATOM     21  O   UNL     1       5.629   1.294  21.589  0.00  0.00    +0.000 OA
ATOM     22  H   UNL     1       6.388   1.230  20.977  0.00  0.00    +0.000 HD
ENDBRANCH  19  21
ENDBRANCH  18  19
ENDBRANCH  17  18
ENDBRANCH  16  17
ENDBRANCH  11  16
TORSDOF 7
ENDMDL
