MODEL 1
REMARK VINA RESULT:      -7.9      0.000      0.000
REMARK  Name = 
REMARK  12 active torsions:
REMARK  status: ('A' for Active; 'I' for Inactive)
REMARK    1  A    between atoms: C_1  and  O_2
REMARK    2  A    between atoms: O_2  and  C_3
REMARK    3  A    between atoms: C_6  and  C_7
REMARK    4  A    between atoms: C_12  and  N_13
REMARK    5  A    between atoms: N_16  and  C_17
REMARK    6  A    between atoms: C_17  and  C_18
REMARK    7  A    between atoms: C_18  and  O_19
REMARK    8  A    between atoms: O_19  and  C_20
REMARK    9  A    between atoms: C_20  and  C_21
REMARK   10  A    between atoms: C_21  and  C_22
REMARK   11  A    between atoms: N_24  and  C_25
REMARK   12  A    between atoms: C_25  and  C_26
REMARK                            x       y       z     vdW  Elec       q    Type
REMARK                         _______ _______ _______ _____ _____    ______ ____
ROOT
ATOM      1  N   UNL     1       4.758   5.243  17.871  0.00  0.00    +0.000 N 
ATOM      2  C   UNL     1       5.619   5.831  18.906  0.00  0.00    +0.000 C 
ATOM      3  C   UNL     1       7.093   5.526  18.576  0.00  0.00    +0.000 C 
ATOM      4  N   UNL     1       7.549   5.993  17.234  0.00  0.00    +0.000 NA
ATOM      5  C   UNL     1       6.663   5.350  16.243  0.00  0.00    +0.000 C 
ATOM      6  C   UNL     1       5.153   5.555  16.479  0.00  0.00    +0.000 C 
ENDROOT
BRANCH   1  12
ATOM      7  C   UNL     1       2.471   4.864  18.824  0.00  0.00    +0.000 A 
ATOM      8  C   UNL     1       1.449   3.905  19.062  0.00  0.00    +0.000 A 
ATOM      9  C   UNL     1       1.575   2.565  18.702  0.00  0.00    +0.000 A 
ATOM     10  C   UNL     1       2.742   2.135  18.105  0.00  0.00    +0.000 A 
ATOM     11  C   UNL     1       3.767   3.050  17.865  0.00  0.00    +0.000 A 
ATOM     12  C   UNL     1       3.681   4.426  18.202  0.00  0.00    +0.000 A 
BRANCH   7  16
ATOM     13  C   UNL     1       1.263   8.858  19.947  0.00  0.00    +0.000 A 
ATOM     14  C   UNL     1       1.795   8.619  18.681  0.00  0.00    +0.000 A 
ATOM     15  C   UNL     1       2.291   7.352  18.343  0.00  0.00    +0.000 A 
ATOM     16  C   UNL     1       2.180   6.269  19.227  0.00  0.00    +0.000 A 
ATOM     17  C   UNL     1       1.715   6.556  20.525  0.00  0.00    +0.000 A 
ATOM     18  C   UNL     1       1.283   7.835  20.888  0.00  0.00    +0.000 A 
BRANCH  13  20
ATOM     19  C   UNL     1       1.140  11.093  19.185  0.00  0.00    +0.000 C 
ATOM     20  O   UNL     1       0.775  10.118  20.158  0.00  0.00    +0.000 OA
ENDBRANCH  13  20
ENDBRANCH   7  16
ENDBRANCH   1  12
BRANCH   4  21
ATOM     21  C   UNL     1       7.533   7.475  17.083  0.00  0.00    +0.000 C 
BRANCH  21  22
ATOM     22  C   UNL     1       8.313   8.111  18.229  0.00  0.00    +0.000 C 
BRANCH  22  23
ATOM     23  O   UNL     1       8.807   9.430  18.018  0.00  0.00    +0.000 OA
BRANCH  23  24
ATOM     24  C   UNL     1       9.054  10.098  19.273  0.00  0.00    +0.000 C 
BRANCH  24  25
ATOM     25  C   UNL     1      10.249  11.071  19.292  0.00  0.00    +0.000 C 
BRANCH  25  26
ATOM     26  C   UNL     1      10.083  12.350  18.483  0.00  0.00    +0.000 C 
ATOM     27  O   UNL     1      10.639  12.502  17.396  0.00  0.00    +0.000 OA
ATOM     28  N   UNL     1       9.211  13.274  19.008  0.00  0.00    +0.000 N 
ATOM     29  H   UNL     1       8.900  13.195  19.964  0.00  0.00    +0.000 HD
BRANCH  28  30
ATOM     30  C   UNL     1       8.669  14.358  18.216  0.00  0.00    +0.000 C 
BRANCH  30  31
ATOM     31  C   UNL     1       9.507  15.585  18.362  0.00  0.00    +0.000 A 
ATOM     32  C   UNL     1       9.842  16.046  19.637  0.00  0.00    +0.000 A 
ATOM     33  C   UNL     1      10.580  17.209  19.745  0.00  0.00    +0.000 A 
ATOM     34  N   UNL     1      10.994  17.933  18.681  0.00  0.00    +0.000 NA
ATOM     35  C   UNL     1      10.650  17.471  17.459  0.00  0.00    +0.000 A 
ATOM     36  C   UNL     1       9.919  16.316  17.246  0.00  0.00    +0.000 A 
ENDBRANCH  30  31
ENDBRANCH  28  30
ENDBRANCH  25  26
ENDBRANCH  24  25
ENDBRANCH  23  24
ENDBRANCH  22  23
ENDBRANCH  21  22
ENDBRANCH   4  21
TORSDOF 11
ENDMDL
MODEL 2
REMARK VINA RESULT:      -7.8      0.959      1.191
REMARK  Name = 
REMARK  12 active torsions:
REMARK  status: ('A' for Active; 'I' for Inactive)
REMARK    1  A    between atoms: C_1  and  O_2
REMARK    2  A    between atoms: O_2  and  C_3
REMARK    3  A    between atoms: C_6  and  C_7
REMARK    4  A    between atoms: C_12  and  N_13
REMARK    5  A    between atoms: N_16  and  C_17
REMARK    6  A    between atoms: C_17  and  C_18
REMARK    7  A    between atoms: C_18  and  O_19
REMARK    8  A    between atoms: O_19  and  C_20
REMARK    9  A    between atoms: C_20  and  C_21
REMARK   10  A    between atoms: C_21  and  C_22
REMARK   11  A    between atoms: N_24  and  C_25
REMARK   12  A    between atoms: C_25  and  C_26
REMARK                            x       y       z     vdW  Elec       q    Type
REMARK                         _______ _______ _______ _____ _____    ______ ____
ROOT
ATOM      1  N   UNL     1       4.829   5.567  17.790  0.00  0.00    +0.000 N 
ATOM      2  C   UNL     1       5.934   5.661  18.754  0.00  0.00    +0.000 C 
ATOM      3  C   UNL     1       7.272   5.465  18.015  0.00  0.00    +0.000 C 
ATOM      4  N   UNL     1       7.519   6.415  16.891  0.00  0.00    +0.000 NA
ATOM      5  C   UNL     1       6.391   6.253  15.951  0.00  0.00    +0.000 C 
ATOM      6  C   UNL     1       4.988   6.397  16.576  0.00  0.00    +0.000 C 
ENDROOT
BRANCH   1  12
ATOM      7  C   UNL     1       2.509   5.104  18.616  0.00  0.00    +0.000 A 
ATOM      8  C   UNL     1       1.485   4.125  18.734  0.00  0.00    +0.000 A 
ATOM      9  C   UNL     1       1.634   2.819  18.273  0.00  0.00    +0.000 A 
ATOM     10  C   UNL     1       2.826   2.443  17.690  0.00  0.00    +0.000 A 
ATOM     11  C   UNL     1       3.855   3.377  17.567  0.00  0.00    +0.000 A 
ATOM     12  C   UNL     1       3.746   4.721  18.010  0.00  0.00    +0.000 A 
BRANCH   7  16
ATOM     13  C   UNL     1       1.230   8.971  20.058  0.00  0.00    +0.000 A 
ATOM     14  C   UNL     1       1.657   8.823  18.739  0.00  0.00    +0.000 A 
ATOM     15  C   UNL     1       2.177   7.601  18.290  0.00  0.00    +0.000 A 
ATOM     16  C   UNL     1       2.192   6.471  19.120  0.00  0.00    +0.000 A 
ATOM     17  C   UNL     1       1.833   6.668  20.467  0.00  0.00    +0.000 A 
ATOM     18  C   UNL     1       1.378   7.904  20.936  0.00  0.00    +0.000 A 
BRANCH  13  20
ATOM     19  C   UNL     1      -0.379  10.633  19.568  0.00  0.00    +0.000 C 
ATOM     20  O   UNL     1       0.707  10.193  20.379  0.00  0.00    +0.000 OA
ENDBRANCH  13  20
ENDBRANCH   7  16
ENDBRANCH   1  12
BRANCH   4  21
ATOM     21  C   UNL     1       7.650   7.833  17.329  0.00  0.00    +0.000 C 
BRANCH  21  22
ATOM     22  C   UNL     1       8.497   7.897  18.595  0.00  0.00    +0.000 C 
BRANCH  22  23
ATOM     23  O   UNL     1       8.813   9.193  19.094  0.00  0.00    +0.000 OA
BRANCH  23  24
ATOM     24  C   UNL     1       8.728  10.186  18.050  0.00  0.00    +0.000 C 
BRANCH  24  25
ATOM     25  C   UNL     1       9.921  11.154  17.946  0.00  0.00    +0.000 C 
BRANCH  25  26
ATOM     26  C   UNL     1      10.051  12.178  19.065  0.00  0.00    +0.000 C 
ATOM     27  O   UNL     1      10.964  12.121  19.889  0.00  0.00    +0.000 OA
ATOM     28  N   UNL     1       9.138  13.205  19.038  0.00  0.00    +0.000 N 
ATOM     29  H   UNL     1       8.316  13.140  18.458  0.00  0.00    +0.000 HD
BRANCH  28  30
ATOM     30  C   UNL     1       9.333  14.428  19.788  0.00  0.00    +0.000 C 
BRANCH  30  31
ATOM     31  C   UNL     1      10.201  15.377  19.030  0.00  0.00    +0.000 A 
ATOM     32  C   UNL     1       9.905  15.669  17.696  0.00  0.00    +0.000 A 
ATOM     33  C   UNL     1      10.750  16.515  17.004  0.00  0.00    +0.000 A 
ATOM     34  N   UNL     1      11.856  17.075  17.544  0.00  0.00    +0.000 NA
ATOM     35  C   UNL     1      12.124  16.770  18.832  0.00  0.00    +0.000 A 
ATOM     36  C   UNL     1      11.339  15.938  19.611  0.00  0.00    +0.000 A 
ENDBRANCH  30  31
ENDBRANCH  28  30
ENDBRANCH  25  26
ENDBRANCH  24  25
ENDBRANCH  23  24
ENDBRANCH  22  23
ENDBRANCH  21  22
ENDBRANCH   4  21
TORSDOF 11
ENDMDL
MODEL 3
REMARK VINA RESULT:      -7.8      1.632      1.912
REMARK  Name = 
REMARK  12 active torsions:
REMARK  status: ('A' for Active; 'I' for Inactive)
REMARK    1  A    between atoms: C_1  and  O_2
REMARK    2  A    between atoms: O_2  and  C_3
REMARK    3  A    between atoms: C_6  and  C_7
REMARK    4  A    between atoms: C_12  and  N_13
REMARK    5  A    between atoms: N_16  and  C_17
REMARK    6  A    between atoms: C_17  and  C_18
REMARK    7  A    between atoms: C_18  and  O_19
REMARK    8  A    between atoms: O_19  and  C_20
REMARK    9  A    between atoms: C_20  and  C_21
REMARK   10  A    between atoms: C_21  and  C_22
REMARK   11  A    between atoms: N_24  and  C_25
REMARK   12  A    between atoms: C_25  and  C_26
REMARK                            x       y       z     vdW  Elec       q    Type
REMARK                         _______ _______ _______ _____ _____    ______ ____
ROOT
ATOM      1  N   UNL     1       5.138   5.643  18.213  0.00  0.00    +0.000 N 
ATOM      2  C   UNL     1       6.224   5.281  19.135  0.00  0.00    +0.000 C 
ATOM      3  C   UNL     1       7.558   5.250  18.363  0.00  0.00    +0.000 C 
ATOM      4  N   UNL     1       7.911   6.518  17.661  0.00  0.00    +0.000 NA
ATOM      5  C   UNL     1       6.797   6.810  16.737  0.00  0.00    +0.000 C 
ATOM      6  C   UNL     1       5.396   6.840  17.384  0.00  0.00    +0.000 C 
ENDROOT
BRANCH   1  12
ATOM      7  C   UNL     1       2.657   5.339  18.389  0.00  0.00    +0.000 A 
ATOM      8  C   UNL     1       1.575   4.435  18.209  0.00  0.00    +0.000 A 
ATOM      9  C   UNL     1       1.753   3.124  17.769  0.00  0.00    +0.000 A 
ATOM     10  C   UNL     1       3.030   2.669  17.510  0.00  0.00    +0.000 A 
ATOM     11  C   UNL     1       4.114   3.530  17.685  0.00  0.00    +0.000 A 
ATOM     12  C   UNL     1       3.982   4.874  18.119  0.00  0.00    +0.000 A 
BRANCH   7  16
ATOM     13  C   UNL     1       1.295   9.235  19.669  0.00  0.00    +0.000 A 
ATOM     14  C   UNL     1       1.651   9.021  18.338  0.00  0.00    +0.000 A 
ATOM     15  C   UNL     1       2.198   7.796  17.933  0.00  0.00    +0.000 A 
ATOM     16  C   UNL     1       2.310   6.721  18.827  0.00  0.00    +0.000 A 
ATOM     17  C   UNL     1       2.021   6.988  20.179  0.00  0.00    +0.000 A 
ATOM     18  C   UNL     1       1.540   8.232  20.599  0.00  0.00    +0.000 A 
BRANCH  13  20
ATOM     19  C   UNL     1       0.625  11.347  18.842  0.00  0.00    +0.000 C 
ATOM     20  O   UNL     1       0.738  10.453  19.946  0.00  0.00    +0.000 OA
ENDBRANCH  13  20
ENDBRANCH   7  16
ENDBRANCH   1  12
BRANCH   4  21
ATOM     21  C   UNL     1       8.153   7.662  18.585  0.00  0.00    +0.000 C 
BRANCH  21  22
ATOM     22  C   UNL     1       8.030   8.972  17.814  0.00  0.00    +0.000 C 
BRANCH  22  23
ATOM     23  O   UNL     1       9.136   9.867  17.884  0.00  0.00    +0.000 OA
BRANCH  23  24
ATOM     24  C   UNL     1       9.284  10.404  19.215  0.00  0.00    +0.000 C 
BRANCH  24  25
ATOM     25  C   UNL     1       9.933  11.799  19.306  0.00  0.00    +0.000 C 
BRANCH  25  26
ATOM     26  C   UNL     1       9.422  12.840  18.320  0.00  0.00    +0.000 C 
ATOM     27  O   UNL     1      10.043  13.116  17.294  0.00  0.00    +0.000 OA
ATOM     28  N   UNL     1       8.192  13.381  18.613  0.00  0.00    +0.000 N 
ATOM     29  H   UNL     1       7.788  13.259  19.529  0.00  0.00    +0.000 HD
BRANCH  28  30
ATOM     30  C   UNL     1       7.411  14.095  17.626  0.00  0.00    +0.000 C 
BRANCH  30  31
ATOM     31  C   UNL     1       6.879  15.367  18.198  0.00  0.00    +0.000 A 
ATOM     32  C   UNL     1       7.766  16.347  18.649  0.00  0.00    +0.000 A 
ATOM     33  C   UNL     1       7.248  17.496  19.216  0.00  0.00    +0.000 A 
ATOM     34  N   UNL     1       5.923  17.725  19.364  0.00  0.00    +0.000 NA
ATOM     35  C   UNL     1       5.087  16.759  18.928  0.00  0.00    +0.000 A 
ATOM     36  C   UNL     1       5.506  15.577  18.343  0.00  0.00    +0.000 A 
ENDBRANCH  30  31
ENDBRANCH  28  30
ENDBRANCH  25  26
ENDBRANCH  24  25
ENDBRANCH  23  24
ENDBRANCH  22  23
ENDBRANCH  21  22
ENDBRANCH   4  21
TORSDOF 11
ENDMDL
MODEL 4
REMARK VINA RESULT:      -7.7      1.328      1.648
REMARK  Name = 
REMARK  12 active torsions:
REMARK  status: ('A' for Active; 'I' for Inactive)
REMARK    1  A    between atoms: C_1  and  O_2
REMARK    2  A    between atoms: O_2  and  C_3
REMARK    3  A    between atoms: C_6  and  C_7
REMARK    4  A    between atoms: C_12  and  N_13
REMARK    5  A    between atoms: N_16  and  C_17
REMARK    6  A    between atoms: C_17  and  C_18
REMARK    7  A    between atoms: C_18  and  O_19
REMARK    8  A    between atoms: O_19  and  C_20
REMARK    9  A    between atoms: C_20  and  C_21
REMARK   10  A    between atoms: C_21  and  C_22
REMARK   11  A    between atoms: N_24  and  C_25
REMARK   12  A    between atoms: C_25  and  C_26
REMARK                            x       y       z     vdW  Elec       q    Type
REMARK                         _______ _______ _______ _____ _____    ______ ____
ROOT
ATOM      1  N   UNL     1       5.109   5.525  18.236  0.00  0.00    +0.000 N 
ATOM      2  C   UNL     1       6.182   5.239  19.198  0.00  0.00    +0.000 C 
ATOM      3  C   UNL     1       7.524   5.135  18.448  0.00  0.00    +0.000 C 
ATOM      4  N   UNL     1       7.894   6.336  17.644  0.00  0.00    +0.000 NA
ATOM      5  C   UNL     1       6.791   6.553  16.685  0.00  0.00    +0.000 C 
ATOM      6  C   UNL     1       5.384   6.645  17.309  0.00  0.00    +0.000 C 
ENDROOT
BRANCH   1  12
ATOM      7  C   UNL     1       2.634   5.232  18.490  0.00  0.00    +0.000 A 
ATOM      8  C   UNL     1       1.545   4.326  18.364  0.00  0.00    +0.000 A 
ATOM      9  C   UNL     1       1.709   3.004  17.954  0.00  0.00    +0.000 A 
ATOM     10  C   UNL     1       2.977   2.539  17.671  0.00  0.00    +0.000 A 
ATOM     11  C   UNL     1       4.067   3.401  17.793  0.00  0.00    +0.000 A 
ATOM     12  C   UNL     1       3.949   4.757  18.195  0.00  0.00    +0.000 A 
BRANCH   7  16
ATOM     13  C   UNL     1       1.311   9.169  19.681  0.00  0.00    +0.000 A 
ATOM     14  C   UNL     1       1.703   8.932  18.364  0.00  0.00    +0.000 A 
ATOM     15  C   UNL     1       2.237   7.691  17.991  0.00  0.00    +0.000 A 
ATOM     16  C   UNL     1       2.301   6.626  18.900  0.00  0.00    +0.000 A 
ATOM     17  C   UNL     1       1.977   6.915  20.240  0.00  0.00    +0.000 A 
ATOM     18  C   UNL     1       1.509   8.173  20.630  0.00  0.00    +0.000 A 
BRANCH  13  20
ATOM     19  C   UNL     1      -0.652  10.463  19.927  0.00  0.00    +0.000 C 
ATOM     20  O   UNL     1       0.771  10.401  19.927  0.00  0.00    +0.000 OA
ENDBRANCH  13  20
ENDBRANCH   7  16
ENDBRANCH   1  12
BRANCH   4  21
ATOM     21  C   UNL     1       8.131   7.554  18.468  0.00  0.00    +0.000 C 
BRANCH  21  22
ATOM     22  C   UNL     1       8.067   8.791  17.577  0.00  0.00    +0.000 C 
BRANCH  22  23
ATOM     23  O   UNL     1       8.242  10.053  18.214  0.00  0.00    +0.000 OA
BRANCH  23  24
ATOM     24  C   UNL     1       9.331  10.010  19.160  0.00  0.00    +0.000 C 
BRANCH  24  25
ATOM     25  C   UNL     1      10.368  11.143  19.040  0.00  0.00    +0.000 C 
BRANCH  25  26
ATOM     26  C   UNL     1      10.237  12.280  20.044  0.00  0.00    +0.000 C 
ATOM     27  O   UNL     1      11.205  12.967  20.370  0.00  0.00    +0.000 OA
ATOM     28  N   UNL     1       8.962  12.534  20.489  0.00  0.00    +0.000 N 
ATOM     29  H   UNL     1       8.225  11.863  20.334  0.00  0.00    +0.000 HD
BRANCH  28  30
ATOM     30  C   UNL     1       8.609  13.774  21.147  0.00  0.00    +0.000 C 
BRANCH  30  31
ATOM     31  C   UNL     1       8.407  14.861  20.145  0.00  0.00    +0.000 A 
ATOM     32  C   UNL     1       7.565  14.646  19.051  0.00  0.00    +0.000 A 
ATOM     33  C   UNL     1       7.431  15.653  18.115  0.00  0.00    +0.000 A 
ATOM     34  N   UNL     1       8.076  16.839  18.193  0.00  0.00    +0.000 NA
ATOM     35  C   UNL     1       8.891  17.018  19.255  0.00  0.00    +0.000 A 
ATOM     36  C   UNL     1       9.089  16.075  20.248  0.00  0.00    +0.000 A 
ENDBRANCH  30  31
ENDBRANCH  28  30
ENDBRANCH  25  26
ENDBRANCH  24  25
ENDBRANCH  23  24
ENDBRANCH  22  23
ENDBRANCH  21  22
ENDBRANCH   4  21
TORSDOF 11
ENDMDL
MODEL 5
REMARK VINA RESULT:      -7.7      0.991      1.030
REMARK  Name = 
REMARK  12 active torsions:
REMARK  status: ('A' for Active; 'I' for Inactive)
REMARK    1  A    between atoms: C_1  and  O_2
REMARK    2  A    between atoms: O_2  and  C_3
REMARK    3  A    between atoms: C_6  and  C_7
REMARK    4  A    between atoms: C_12  and  N_13
REMARK    5  A    between atoms: N_16  and  C_17
REMARK    6  A    between atoms: C_17  and  C_18
REMARK    7  A    between atoms: C_18  and  O_19
REMARK    8  A    between atoms: O_19  and  C_20
REMARK    9  A    between atoms: C_20  and  C_21
REMARK   10  A    between atoms: C_21  and  C_22
REMARK   11  A    between atoms: N_24  and  C_25
REMARK   12  A    between atoms: C_25  and  C_26
REMARK                            x       y       z     vdW  Elec       q    Type
REMARK                         _______ _______ _______ _____ _____    ______ ____
ROOT
ATOM      1  N   UNL     1       4.964   5.223  18.259  0.00  0.00    +0.000 N 
ATOM      2  C   UNL     1       6.103   4.865  19.115  0.00  0.00    +0.000 C 
ATOM      3  C   UNL     1       7.372   4.746  18.248  0.00  0.00    +0.000 C 
ATOM      4  N   UNL     1       7.715   5.965  17.459  0.00  0.00    +0.000 NA
ATOM      5  C   UNL     1       6.543   6.255  16.607  0.00  0.00    +0.000 C 
ATOM      6  C   UNL     1       5.198   6.368  17.353  0.00  0.00    +0.000 C 
ENDROOT
BRANCH   1  12
ATOM      7  C   UNL     1       2.491   5.026  18.618  0.00  0.00    +0.000 A 
ATOM      8  C   UNL     1       1.369   4.155  18.567  0.00  0.00    +0.000 A 
ATOM      9  C   UNL     1       1.471   2.814  18.201  0.00  0.00    +0.000 A 
ATOM     10  C   UNL     1       2.711   2.295  17.887  0.00  0.00    +0.000 A 
ATOM     11  C   UNL     1       3.833   3.122  17.935  0.00  0.00    +0.000 A 
ATOM     12  C   UNL     1       3.777   4.495  18.291  0.00  0.00    +0.000 A 
BRANCH   7  16
ATOM     13  C   UNL     1       1.349   9.054  19.690  0.00  0.00    +0.000 A 
ATOM     14  C   UNL     1       1.752   8.765  18.387  0.00  0.00    +0.000 A 
ATOM     15  C   UNL     1       2.229   7.489  18.054  0.00  0.00    +0.000 A 
ATOM     16  C   UNL     1       2.223   6.445  18.989  0.00  0.00    +0.000 A 
ATOM     17  C   UNL     1       1.889   6.783  20.315  0.00  0.00    +0.000 A 
ATOM     18  C   UNL     1       1.478   8.072  20.666  0.00  0.00    +0.000 A 
BRANCH  13  20
ATOM     19  C   UNL     1      -0.443  10.396  20.450  0.00  0.00    +0.000 C 
ATOM     20  O   UNL     1       0.868  10.317  19.897  0.00  0.00    +0.000 OA
ENDBRANCH  13  20
ENDBRANCH   7  16
ENDBRANCH   1  12
BRANCH   4  21
ATOM     21  C   UNL     1       8.065   7.142  18.303  0.00  0.00    +0.000 C 
BRANCH  21  22
ATOM     22  C   UNL     1       8.056   8.402  17.444  0.00  0.00    +0.000 C 
BRANCH  22  23
ATOM     23  O   UNL     1       7.868   9.642  18.121  0.00  0.00    +0.000 OA
BRANCH  23  24
ATOM     24  C   UNL     1       9.064  10.035  18.825  0.00  0.00    +0.000 C 
BRANCH  24  25
ATOM     25  C   UNL     1       9.840  11.220  18.218  0.00  0.00    +0.000 C 
BRANCH  25  26
ATOM     26  C   UNL     1       9.153  12.576  18.288  0.00  0.00    +0.000 C 
ATOM     27  O   UNL     1       8.405  12.968  17.392  0.00  0.00    +0.000 OA
ATOM     28  N   UNL     1       9.358  13.285  19.448  0.00  0.00    +0.000 N 
ATOM     29  H   UNL     1      10.093  13.018  20.085  0.00  0.00    +0.000 HD
BRANCH  28  30
ATOM     30  C   UNL     1       8.515  14.398  19.829  0.00  0.00    +0.000 C 
BRANCH  30  31
ATOM     31  C   UNL     1       9.073  15.682  19.311  0.00  0.00    +0.000 A 
ATOM     32  C   UNL     1      10.433  15.959  19.471  0.00  0.00    +0.000 A 
ATOM     33  C   UNL     1      10.916  17.173  19.023  0.00  0.00    +0.000 A 
ATOM     34  N   UNL     1      10.142  18.117  18.440  0.00  0.00    +0.000 NA
ATOM     35  C   UNL     1       8.830  17.828  18.305  0.00  0.00    +0.000 A 
ATOM     36  C   UNL     1       8.252  16.640  18.716  0.00  0.00    +0.000 A 
ENDBRANCH  30  31
ENDBRANCH  28  30
ENDBRANCH  25  26
ENDBRANCH  24  25
ENDBRANCH  23  24
ENDBRANCH  22  23
ENDBRANCH  21  22
ENDBRANCH   4  21
TORSDOF 11
ENDMDL
MODEL 6
REMARK VINA RESULT:      -7.7      1.662      2.057
REMARK  Name = 
REMARK  12 active torsions:
REMARK  status: ('A' for Active; 'I' for Inactive)
REMARK    1  A    between atoms: C_1  and  O_2
REMARK    2  A    between atoms: O_2  and  C_3
REMARK    3  A    between atoms: C_6  and  C_7
REMARK    4  A    between atoms: C_12  and  N_13
REMARK    5  A    between atoms: N_16  and  C_17
REMARK    6  A    between atoms: C_17  and  C_18
REMARK    7  A    between atoms: C_18  and  O_19
REMARK    8  A    between atoms: O_19  and  C_20
REMARK    9  A    between atoms: C_20  and  C_21
REMARK   10  A    between atoms: C_21  and  C_22
REMARK   11  A    between atoms: N_24  and  C_25
REMARK   12  A    between atoms: C_25  and  C_26
REMARK                            x       y       z     vdW  Elec       q    Type
REMARK                         _______ _______ _______ _____ _____    ______ ____
ROOT
ATOM      1  N   UNL     1       4.526   4.991  18.615  0.00  0.00    +0.000 N 
ATOM      2  C   UNL     1       5.383   6.025  19.211  0.00  0.00    +0.000 C 
ATOM      3  C   UNL     1       6.856   5.586  19.110  0.00  0.00    +0.000 C 
ATOM      4  N   UNL     1       7.334   5.290  17.728  0.00  0.00    +0.000 NA
ATOM      5  C   UNL     1       6.451   4.231  17.198  0.00  0.00    +0.000 C 
ATOM      6  C   UNL     1       4.941   4.536  17.270  0.00  0.00    +0.000 C 
ENDROOT
BRANCH   1  12
ATOM      7  C   UNL     1       2.285   5.208  19.715  0.00  0.00    +0.000 A 
ATOM      8  C   UNL     1       1.237   4.514  20.379  0.00  0.00    +0.000 A 
ATOM      9  C   UNL     1       1.283   3.144  20.632  0.00  0.00    +0.000 A 
ATOM     10  C   UNL     1       2.393   2.424  20.241  0.00  0.00    +0.000 A 
ATOM     11  C   UNL     1       3.442   3.078  19.594  0.00  0.00    +0.000 A 
ATOM     12  C   UNL     1       3.436   4.467  19.304  0.00  0.00    +0.000 A 
BRANCH   7  16
ATOM     13  C   UNL     1       1.322   9.366  19.041  0.00  0.00    +0.000 A 
ATOM     14  C   UNL     1       1.754   8.569  17.983  0.00  0.00    +0.000 A 
ATOM     15  C   UNL     1       2.174   7.250  18.208  0.00  0.00    +0.000 A 
ATOM     16  C   UNL     1       2.080   6.666  19.479  0.00  0.00    +0.000 A 
ATOM     17  C   UNL     1       1.718   7.516  20.542  0.00  0.00    +0.000 A 
ATOM     18  C   UNL     1       1.364   8.851  20.331  0.00  0.00    +0.000 A 
BRANCH  13  20
ATOM     19  C   UNL     1      -0.487  10.752  18.410  0.00  0.00    +0.000 C 
ATOM     20  O   UNL     1       0.901  10.623  18.704  0.00  0.00    +0.000 OA
ENDBRANCH  13  20
ENDBRANCH   7  16
ENDBRANCH   1  12
BRANCH   4  21
ATOM     21  C   UNL     1       7.338   6.480  16.832  0.00  0.00    +0.000 C 
BRANCH  21  22
ATOM     22  C   UNL     1       7.833   7.697  17.606  0.00  0.00    +0.000 C 
BRANCH  22  23
ATOM     23  O   UNL     1       7.310   8.964  17.218  0.00  0.00    +0.000 OA
BRANCH  23  24
ATOM     24  C   UNL     1       7.962  10.035  17.933  0.00  0.00    +0.000 C 
BRANCH  24  25
ATOM     25  C   UNL     1       9.009   9.603  18.978  0.00  0.00    +0.000 C 
BRANCH  25  26
ATOM     26  C   UNL     1       9.921  10.702  19.504  0.00  0.00    +0.000 C 
ATOM     27  O   UNL     1       9.890  11.057  20.683  0.00  0.00    +0.000 OA
ATOM     28  N   UNL     1      10.828  11.203  18.601  0.00  0.00    +0.000 N 
ATOM     29  H   UNL     1      10.724  11.013  17.616  0.00  0.00    +0.000 HD
BRANCH  28  30
ATOM     30  C   UNL     1      11.983  11.972  19.016  0.00  0.00    +0.000 C 
BRANCH  30  31
ATOM     31  C   UNL     1      11.837  13.400  18.605  0.00  0.00    +0.000 A 
ATOM     32  C   UNL     1      11.412  13.707  17.310  0.00  0.00    +0.000 A 
ATOM     33  C   UNL     1      11.330  15.035  16.941  0.00  0.00    +0.000 A 
ATOM     34  N   UNL     1      11.644  16.062  17.764  0.00  0.00    +0.000 NA
ATOM     35  C   UNL     1      12.060  15.738  19.007  0.00  0.00    +0.000 A 
ATOM     36  C   UNL     1      12.172  14.440  19.473  0.00  0.00    +0.000 A 
ENDBRANCH  30  31
ENDBRANCH  28  30
ENDBRANCH  25  26
ENDBRANCH  24  25
ENDBRANCH  23  24
ENDBRANCH  22  23
ENDBRANCH  21  22
ENDBRANCH   4  21
TORSDOF 11
ENDMDL
MODEL 7
REMARK VINA RESULT:      -7.6      1.076      1.327
REMARK  Name = 
REMARK  12 active torsions:
REMARK  status: ('A' for Active; 'I' for Inactive)
REMARK    1  A    between atoms: C_1  and  O_2
REMARK    2  A    between atoms: O_2  and  C_3
REMARK    3  A    between atoms: C_6  and  C_7
REMARK    4  A    between atoms: C_12  and  N_13
REMARK    5  A    between atoms: N_16  and  C_17
REMARK    6  A    between atoms: C_17  and  C_18
REMARK    7  A    between atoms: C_18  and  O_19
REMARK    8  A    between atoms: O_19  and  C_20
REMARK    9  A    between atoms: C_20  and  C_21
REMARK   10  A    between atoms: C_21  and  C_22
REMARK   11  A    between atoms: N_24  and  C_25
REMARK   12  A    between atoms: C_25  and  C_26
REMARK                            x       y       z     vdW  Elec       q    Type
REMARK                         _______ _______ _______ _____ _____    ______ ____
ROOT
ATOM      1  N   UNL     1       4.962   5.270  18.186  0.00  0.00    +0.000 N 
ATOM      2  C   UNL     1       6.261   4.650  18.480  0.00  0.00    +0.000 C 
ATOM      3  C   UNL     1       7.252   4.982  17.347  0.00  0.00    +0.000 C 
ATOM      4  N   UNL     1       7.450   6.438  17.088  0.00  0.00    +0.000 NA
ATOM      5  C   UNL     1       6.117   6.993  16.777  0.00  0.00    +0.000 C 
ATOM      6  C   UNL     1       5.022   6.703  17.823  0.00  0.00    +0.000 C 
ENDROOT
BRANCH   1  12
ATOM      7  C   UNL     1       2.490   5.050  18.535  0.00  0.00    +0.000 A 
ATOM      8  C   UNL     1       1.377   4.167  18.483  0.00  0.00    +0.000 A 
ATOM      9  C   UNL     1       1.495   2.826  18.122  0.00  0.00    +0.000 A 
ATOM     10  C   UNL     1       2.741   2.319  17.816  0.00  0.00    +0.000 A 
ATOM     11  C   UNL     1       3.855   3.157  17.865  0.00  0.00    +0.000 A 
ATOM     12  C   UNL     1       3.783   4.531  18.216  0.00  0.00    +0.000 A 
BRANCH   7  16
ATOM     13  C   UNL     1       1.308   9.057  19.638  0.00  0.00    +0.000 A 
ATOM     14  C   UNL     1       1.555   8.744  18.302  0.00  0.00    +0.000 A 
ATOM     15  C   UNL     1       2.044   7.480  17.944  0.00  0.00    +0.000 A 
ATOM     16  C   UNL     1       2.206   6.467  18.900  0.00  0.00    +0.000 A 
ATOM     17  C   UNL     1       2.029   6.833  20.248  0.00  0.00    +0.000 A 
ATOM     18  C   UNL     1       1.607   8.114  20.615  0.00  0.00    +0.000 A 
BRANCH  13  20
ATOM     19  C   UNL     1       1.094  11.287  18.882  0.00  0.00    +0.000 C 
ATOM     20  O   UNL     1       0.799  10.304  19.871  0.00  0.00    +0.000 OA
ENDBRANCH  13  20
ENDBRANCH   7  16
ENDBRANCH   1  12
BRANCH   4  21
ATOM     21  C   UNL     1       8.078   7.165  18.227  0.00  0.00    +0.000 C 
BRANCH  21  22
ATOM     22  C   UNL     1       8.191   8.647  17.883  0.00  0.00    +0.000 C 
BRANCH  22  23
ATOM     23  O   UNL     1       8.804   9.489  18.855  0.00  0.00    +0.000 OA
BRANCH  23  24
ATOM     24  C   UNL     1       9.011  10.818  18.331  0.00  0.00    +0.000 C 
BRANCH  24  25
ATOM     25  C   UNL     1      10.126  11.638  19.008  0.00  0.00    +0.000 C 
BRANCH  25  26
ATOM     26  C   UNL     1      10.796  12.698  18.143  0.00  0.00    +0.000 C 
ATOM     27  O   UNL     1      11.207  12.442  17.012  0.00  0.00    +0.000 OA
ATOM     28  N   UNL     1      10.830  13.964  18.677  0.00  0.00    +0.000 N 
ATOM     29  H   UNL     1      10.636  14.109  19.656  0.00  0.00    +0.000 HD
BRANCH  28  30
ATOM     30  C   UNL     1      11.094  15.134  17.868  0.00  0.00    +0.000 C 
BRANCH  30  31
ATOM     31  C   UNL     1      10.009  16.146  18.038  0.00  0.00    +0.000 A 
ATOM     32  C   UNL     1      10.325  17.507  18.023  0.00  0.00    +0.000 A 
ATOM     33  C   UNL     1       9.310  18.421  18.229  0.00  0.00    +0.000 A 
ATOM     34  N   UNL     1       8.022  18.073  18.450  0.00  0.00    +0.000 NA
ATOM     35  C   UNL     1       7.745  16.751  18.469  0.00  0.00    +0.000 A 
ATOM     36  C   UNL     1       8.688  15.759  18.269  0.00  0.00    +0.000 A 
ENDBRANCH  30  31
ENDBRANCH  28  30
ENDBRANCH  25  26
ENDBRANCH  24  25
ENDBRANCH  23  24
ENDBRANCH  22  23
ENDBRANCH  21  22
ENDBRANCH   4  21
TORSDOF 11
ENDMDL
MODEL 8
REMARK VINA RESULT:      -7.6      2.246      3.213
REMARK  Name = 
REMARK  12 active torsions:
REMARK  status: ('A' for Active; 'I' for Inactive)
REMARK    1  A    between atoms: C_1  and  O_2
REMARK    2  A    between atoms: O_2  and  C_3
REMARK    3  A    between atoms: C_6  and  C_7
REMARK    4  A    between atoms: C_12  and  N_13
REMARK    5  A    between atoms: N_16  and  C_17
REMARK    6  A    between atoms: C_17  and  C_18
REMARK    7  A    between atoms: C_18  and  O_19
REMARK    8  A    between atoms: O_19  and  C_20
REMARK    9  A    between atoms: C_20  and  C_21
REMARK   10  A    between atoms: C_21  and  C_22
REMARK   11  A    between atoms: N_24  and  C_25
REMARK   12  A    between atoms: C_25  and  C_26
REMARK                            x       y       z     vdW  Elec       q    Type
REMARK                         _______ _______ _______ _____ _____    ______ ____
ROOT
ATOM      1  N   UNL     1       4.904   5.434  17.826  0.00  0.00    +0.000 N 
ATOM      2  C   UNL     1       5.974   5.580  18.823  0.00  0.00    +0.000 C 
ATOM      3  C   UNL     1       7.341   5.447  18.123  0.00  0.00    +0.000 C 
ATOM      4  N   UNL     1       7.576   6.407  17.006  0.00  0.00    +0.000 NA
ATOM      5  C   UNL     1       6.485   6.192  16.033  0.00  0.00    +0.000 C 
ATOM      6  C   UNL     1       5.059   6.270  16.616  0.00  0.00    +0.000 C 
ENDROOT
BRANCH   1  12
ATOM      7  C   UNL     1       2.541   4.888  18.457  0.00  0.00    +0.000 A 
ATOM      8  C   UNL     1       1.569   3.855  18.564  0.00  0.00    +0.000 A 
ATOM      9  C   UNL     1       1.843   2.527  18.244  0.00  0.00    +0.000 A 
ATOM     10  C   UNL     1       3.111   2.184  17.822  0.00  0.00    +0.000 A 
ATOM     11  C   UNL     1       4.089   3.172  17.714  0.00  0.00    +0.000 A 
ATOM     12  C   UNL     1       3.855   4.539  18.016  0.00  0.00    +0.000 A 
BRANCH   7  16
ATOM     13  C   UNL     1       1.596   8.999  19.393  0.00  0.00    +0.000 A 
ATOM     14  C   UNL     1       1.688   8.053  20.413  0.00  0.00    +0.000 A 
ATOM     15  C   UNL     1       1.885   6.698  20.115  0.00  0.00    +0.000 A 
ATOM     16  C   UNL     1       2.093   6.268  18.796  0.00  0.00    +0.000 A 
ATOM     17  C   UNL     1       1.914   7.228  17.781  0.00  0.00    +0.000 A 
ATOM     18  C   UNL     1       1.650   8.569  18.072  0.00  0.00    +0.000 A 
BRANCH  13  20
ATOM     19  C   UNL     1       1.280  11.253  18.756  0.00  0.00    +0.000 C 
ATOM     20  O   UNL     1       1.440  10.295  19.798  0.00  0.00    +0.000 OA
ENDBRANCH  13  20
ENDBRANCH   7  16
ENDBRANCH   1  12
BRANCH   4  21
ATOM     21  C   UNL     1       7.628   7.830  17.445  0.00  0.00    +0.000 C 
BRANCH  21  22
ATOM     22  C   UNL     1       8.466   7.939  18.714  0.00  0.00    +0.000 C 
BRANCH  22  23
ATOM     23  O   UNL     1       8.980   9.227  19.038  0.00  0.00    +0.000 OA
BRANCH  23  24
ATOM     24  C   UNL     1       8.674  10.183  18.001  0.00  0.00    +0.000 C 
BRANCH  24  25
ATOM     25  C   UNL     1       9.487  11.491  18.033  0.00  0.00    +0.000 C 
BRANCH  25  26
ATOM     26  C   UNL     1      10.038  11.903  19.391  0.00  0.00    +0.000 C 
ATOM     27  O   UNL     1      11.181  11.606  19.741  0.00  0.00    +0.000 OA
ATOM     28  N   UNL     1       9.209  12.692  20.153  0.00  0.00    +0.000 N 
ATOM     29  H   UNL     1       8.233  12.782  19.916  0.00  0.00    +0.000 HD
BRANCH  28  30
ATOM     30  C   UNL     1       9.697  13.455  21.282  0.00  0.00    +0.000 C 
BRANCH  30  31
ATOM     31  C   UNL     1       8.915  13.131  22.512  0.00  0.00    +0.000 A 
ATOM     32  C   UNL     1       8.271  11.895  22.616  0.00  0.00    +0.000 A 
ATOM     33  C   UNL     1       7.516  11.638  23.745  0.00  0.00    +0.000 A 
ATOM     34  N   UNL     1       7.361  12.521  24.758  0.00  0.00    +0.000 NA
ATOM     35  C   UNL     1       7.987  13.711  24.629  0.00  0.00    +0.000 A 
ATOM     36  C   UNL     1       8.767  14.062  23.542  0.00  0.00    +0.000 A 
ENDBRANCH  30  31
ENDBRANCH  28  30
ENDBRANCH  25  26
ENDBRANCH  24  25
ENDBRANCH  23  24
ENDBRANCH  22  23
ENDBRANCH  21  22
ENDBRANCH   4  21
TORSDOF 11
ENDMDL
MODEL 9
REMARK VINA RESULT:      -7.6      1.731      2.490
REMARK  Name = 
REMARK  12 active torsions:
REMARK  status: ('A' for Active; 'I' for Inactive)
REMARK    1  A    between atoms: C_1  and  O_2
REMARK    2  A    between atoms: O_2  and  C_3
REMARK    3  A    between atoms: C_6  and  C_7
REMARK    4  A    between atoms: C_12  and  N_13
REMARK    5  A    between atoms: N_16  and  C_17
REMARK    6  A    between atoms: C_17  and  C_18
REMARK    7  A    between atoms: C_18  and  O_19
REMARK    8  A    between atoms: O_19  and  C_20
REMARK    9  A    between atoms: C_20  and  C_21
REMARK   10  A    between atoms: C_21  and  C_22
REMARK   11  A    between atoms: N_24  and  C_25
REMARK   12  A    between atoms: C_25  and  C_26
REMARK                            x       y       z     vdW  Elec       q    Type
REMARK                         _______ _______ _______ _____ _____    ______ ____
ROOT
ATOM      1  N   UNL     1       4.960   5.092  17.992  0.00  0.00    +0.000 N 
ATOM      2  C   UNL     1       5.806   5.656  19.054  0.00  0.00    +0.000 C 
ATOM      3  C   UNL     1       7.287   5.523  18.648  0.00  0.00    +0.000 C 
ATOM      4  N   UNL     1       7.645   6.156  17.346  0.00  0.00    +0.000 NA
ATOM      5  C   UNL     1       6.781   5.531  16.324  0.00  0.00    +0.000 C 
ATOM      6  C   UNL     1       5.269   5.571  16.627  0.00  0.00    +0.000 C 
ENDROOT
BRANCH   1  12
ATOM      7  C   UNL     1       2.680   4.441  18.804  0.00  0.00    +0.000 A 
ATOM      8  C   UNL     1       1.774   3.364  19.001  0.00  0.00    +0.000 A 
ATOM      9  C   UNL     1       2.093   2.044  18.688  0.00  0.00    +0.000 A 
ATOM     10  C   UNL     1       3.343   1.756  18.181  0.00  0.00    +0.000 A 
ATOM     11  C   UNL     1       4.259   2.790  17.983  0.00  0.00    +0.000 A 
ATOM     12  C   UNL     1       3.976   4.150  18.275  0.00  0.00    +0.000 A 
BRANCH   7  16
ATOM     13  C   UNL     1       1.606   8.498  19.833  0.00  0.00    +0.000 A 
ATOM     14  C   UNL     1       1.489   7.482  20.780  0.00  0.00    +0.000 A 
ATOM     15  C   UNL     1       1.729   6.147  20.428  0.00  0.00    +0.000 A 
ATOM     16  C   UNL     1       2.186   5.805  19.148  0.00  0.00    +0.000 A 
ATOM     17  C   UNL     1       2.217   6.836  18.189  0.00  0.00    +0.000 A 
ATOM     18  C   UNL     1       1.912   8.160  18.519  0.00  0.00    +0.000 A 
BRANCH  13  20
ATOM     19  C   UNL     1       1.056  10.735  19.299  0.00  0.00    +0.000 C 
ATOM     20  O   UNL     1       1.384   9.767  20.292  0.00  0.00    +0.000 OA
ENDBRANCH  13  20
ENDBRANCH   7  16
ENDBRANCH   1  12
BRANCH   4  21
ATOM     21  C   UNL     1       7.490   7.638  17.342  0.00  0.00    +0.000 C 
BRANCH  21  22
ATOM     22  C   UNL     1       8.380   8.245  18.422  0.00  0.00    +0.000 C 
BRANCH  22  23
ATOM     23  O   UNL     1       8.453   9.666  18.473  0.00  0.00    +0.000 OA
BRANCH  23  24
ATOM     24  C   UNL     1       9.608  10.099  19.223  0.00  0.00    +0.000 C 
BRANCH  24  25
ATOM     25  C   UNL     1       9.385  11.298  20.164  0.00  0.00    +0.000 C 
BRANCH  25  26
ATOM     26  C   UNL     1       9.441  12.676  19.518  0.00  0.00    +0.000 C 
ATOM     27  O   UNL     1      10.177  12.908  18.559  0.00  0.00    +0.000 OA
ATOM     28  N   UNL     1       8.562  13.604  20.022  0.00  0.00    +0.000 N 
ATOM     29  H   UNL     1       8.094  13.438  20.900  0.00  0.00    +0.000 HD
BRANCH  28  30
ATOM     30  C   UNL     1       8.232  14.819  19.309  0.00  0.00    +0.000 C 
BRANCH  30  31
ATOM     31  C   UNL     1       6.754  14.951  19.151  0.00  0.00    +0.000 A 
ATOM     32  C   UNL     1       5.952  15.141  20.279  0.00  0.00    +0.000 A 
ATOM     33  C   UNL     1       4.583  15.215  20.110  0.00  0.00    +0.000 A 
ATOM     34  N   UNL     1       3.970  15.107  18.909  0.00  0.00    +0.000 NA
ATOM     35  C   UNL     1       4.767  14.916  17.835  0.00  0.00    +0.000 A 
ATOM     36  C   UNL     1       6.146  14.833  17.900  0.00  0.00    +0.000 A 
ENDBRANCH  30  31
ENDBRANCH  28  30
ENDBRANCH  25  26
ENDBRANCH  24  25
ENDBRANCH  23  24
ENDBRANCH  22  23
ENDBRANCH  21  22
ENDBRANCH   4  21
TORSDOF 11
ENDMDL
