MODEL 1
REMARK VINA RESULT:     -10.1      0.000      0.000
REMARK  Name = 
REMARK  7 active torsions:
REMARK  status: ('A' for Active; 'I' for Inactive)
REMARK    1  A    between atoms: C_1  and  C_2
REMARK    2  A    between atoms: C_2  and  C_3
REMARK    3  A    between atoms: C_8  and  C_9
REMARK    4  A    between atoms: C_13  and  S_14
REMARK    5  A    between atoms: C_19  and  C_20
REMARK    6  A    between atoms: C_19  and  C_21
REMARK    7  A    between atoms: C_26  and  C_27
REMARK                            x       y       z     vdW  Elec       q    Type
REMARK                         _______ _______ _______ _____ _____    ______ ____
ROOT
ATOM      1  C   UNL     1       2.085   6.469  20.358  0.00  0.00    +0.000 A 
ATOM      2  C   UNL     1       1.332   7.343  21.157  0.00  0.00    +0.000 A 
ATOM      3  C   UNL     1       0.857   8.562  20.698  0.00  0.00    +0.000 A 
ATOM      4  C   UNL     1       1.157   8.994  19.400  0.00  0.00    +0.000 A 
ATOM      5  C   UNL     1       1.975   8.151  18.613  0.00  0.00    +0.000 A 
ATOM      6  C   UNL     1       2.453   6.884  19.044  0.00  0.00    +0.000 A 
ATOM      7  C   UNL     1       0.641  10.339  18.850  0.00  0.00    +0.000 C 
ATOM      8  C   UNL     1       1.861  11.225  18.532  0.00  0.00    +0.000 C 
ATOM      9  C   UNL     1      -0.218  10.081  17.594  0.00  0.00    +0.000 C 
ATOM     10  C   UNL     1      -0.208  11.039  19.888  0.00  0.00    +0.000 A 
ATOM     11  N   UNL     1      -0.833  12.251  19.745  0.00  0.00    +0.000 N 
ATOM     12  C   UNL     1      -1.495  12.578  20.911  0.00  0.00    +0.000 A 
ATOM     13  C   UNL     1      -2.252  13.705  21.240  0.00  0.00    +0.000 A 
ATOM     14  C   UNL     1      -2.805  13.752  22.529  0.00  0.00    +0.000 A 
ATOM     15  C   UNL     1      -2.617  12.721  23.451  0.00  0.00    +0.000 A 
ATOM     16  C   UNL     1      -1.858  11.607  23.102  0.00  0.00    +0.000 A 
ATOM     17  C   UNL     1      -1.293  11.534  21.813  0.00  0.00    +0.000 A 
ATOM     18  C   UNL     1      -0.484  10.582  21.159  0.00  0.00    +0.000 A 
ATOM     19  C   UNL     1       0.019   9.332  21.653  0.00  0.00    +0.000 C 
ATOM     20  O   UNL     1      -0.221   8.913  22.780  0.00  0.00    +0.000 OA
ATOM     21  H   UNL     1      -0.812  12.833  18.918  0.00  0.00    +0.000 HD
ENDROOT
BRANCH   6  22
ATOM     22  C   UNL     1       3.246   6.050  18.087  0.00  0.00    +0.000 A 
ATOM     23  C   UNL     1       2.813   4.771  17.669  0.00  0.00    +0.000 A 
ATOM     24  C   UNL     1       3.618   3.928  16.887  0.00  0.00    +0.000 A 
ATOM     25  C   UNL     1       4.912   4.310  16.556  0.00  0.00    +0.000 A 
ATOM     26  C   UNL     1       5.335   5.583  16.912  0.00  0.00    +0.000 A 
ATOM     27  C   UNL     1       4.484   6.466  17.585  0.00  0.00    +0.000 A 
BRANCH  26  28
ATOM     28  S   UNL     1       7.023   6.056  16.697  0.00  0.00    +0.000 S 
ATOM     29  O   UNL     1       7.462   5.544  15.415  0.00  0.00    +0.000 OA
ATOM     30  O   UNL     1       7.141   7.452  17.060  0.00  0.00    +0.000 OA
ATOM     31  F   UNL     1       7.859   5.270  17.793  0.00  0.00    +0.000 F 
ENDBRANCH  26  28
ENDBRANCH   6  22
BRANCH   1  33
ATOM     32  C   UNL     1       1.333   4.023  20.822  0.00  0.00    +0.000 C 
ATOM     33  C   UNL     1       2.405   5.106  20.957  0.00  0.00    +0.000 C 
ENDBRANCH   1  33
BRANCH  14  34
ATOM     34  C   UNL     1      -3.589  14.890  22.911  0.00  0.00    +0.000 C 
ATOM     35  N   UNL     1      -4.222  15.805  23.214  0.00  0.00    +0.000 NA
ENDBRANCH  14  34
TORSDOF 4
ENDMDL
MODEL 2
REMARK VINA RESULT:      -8.1      5.130     10.407
REMARK  Name = 
REMARK  7 active torsions:
REMARK  status: ('A' for Active; 'I' for Inactive)
REMARK    1  A    between atoms: C_1  and  C_2
REMARK    2  A    between atoms: C_2  and  C_3
REMARK    3  A    between atoms: C_8  and  C_9
REMARK    4  A    between atoms: C_13  and  S_14
REMARK    5  A    between atoms: C_19  and  C_20
REMARK    6  A    between atoms: C_19  and  C_21
REMARK    7  A    between atoms: C_26  and  C_27
REMARK                            x       y       z     vdW  Elec       q    Type
REMARK                         _______ _______ _______ _____ _____    ______ ____
ROOT
ATOM      1  C   UNL     1      -0.426  13.044  20.275  0.00  0.00    +0.000 A 
ATOM      2  C   UNL     1       0.384  12.216  19.484  0.00  0.00    +0.000 A 
ATOM      3  C   UNL     1       0.731  10.925  19.857  0.00  0.00    +0.000 A 
ATOM      4  C   UNL     1       0.309  10.408  21.087  0.00  0.00    +0.000 A 
ATOM      5  C   UNL     1      -0.448  11.261  21.921  0.00  0.00    +0.000 A 
ATOM      6  C   UNL     1      -0.844  12.577  21.557  0.00  0.00    +0.000 A 
ATOM      7  C   UNL     1       0.667   8.975  21.533  0.00  0.00    +0.000 C 
ATOM      8  C   UNL     1       1.522   9.072  22.811  0.00  0.00    +0.000 C 
ATOM      9  C   UNL     1      -0.631   8.176  21.776  0.00  0.00    +0.000 C 
ATOM     10  C   UNL     1       1.477   8.279  20.461  0.00  0.00    +0.000 A 
ATOM     11  N   UNL     1       1.963   6.997  20.512  0.00  0.00    +0.000 N 
ATOM     12  C   UNL     1       2.674   6.720  19.363  0.00  0.00    +0.000 A 
ATOM     13  C   UNL     1       3.353   5.563  18.973  0.00  0.00    +0.000 A 
ATOM     14  C   UNL     1       3.996   5.587  17.725  0.00  0.00    +0.000 A 
ATOM     15  C   UNL     1       3.961   6.712  16.898  0.00  0.00    +0.000 A 
ATOM     16  C   UNL     1       3.278   7.854  17.307  0.00  0.00    +0.000 A 
ATOM     17  C   UNL     1       2.623   7.855  18.555  0.00  0.00    +0.000 A 
ATOM     18  C   UNL     1       1.873   8.821  19.258  0.00  0.00    +0.000 A 
ATOM     19  C   UNL     1       1.539  10.162  18.871  0.00  0.00    +0.000 C 
ATOM     20  O   UNL     1       1.883  10.656  17.802  0.00  0.00    +0.000 OA
ATOM     21  H   UNL     1       1.835   6.347  21.277  0.00  0.00    +0.000 HD
ENDROOT
BRANCH   6  22
ATOM     22  C   UNL     1      -1.714  13.353  22.496  0.00  0.00    +0.000 A 
ATOM     23  C   UNL     1      -1.176  14.211  23.482  0.00  0.00    +0.000 A 
ATOM     24  C   UNL     1      -1.977  14.827  24.455  0.00  0.00    +0.000 A 
ATOM     25  C   UNL     1      -3.337  14.550  24.516  0.00  0.00    +0.000 A 
ATOM     26  C   UNL     1      -3.892  13.752  23.524  0.00  0.00    +0.000 A 
ATOM     27  C   UNL     1      -3.108  13.239  22.486  0.00  0.00    +0.000 A 
BRANCH  26  28
ATOM     28  S   UNL     1      -5.566  13.202  23.653  0.00  0.00    +0.000 S 
ATOM     29  O   UNL     1      -6.381  14.354  23.979  0.00  0.00    +0.000 OA
ATOM     30  O   UNL     1      -5.840  12.350  22.515  0.00  0.00    +0.000 OA
ATOM     31  F   UNL     1      -5.634  12.244  24.916  0.00  0.00    +0.000 F 
ENDBRANCH  26  28
ENDBRANCH   6  22
BRANCH   1  33
ATOM     32  C   UNL     1       0.046  15.584  19.971  0.00  0.00    +0.000 C 
ATOM     33  C   UNL     1      -0.839  14.375  19.662  0.00  0.00    +0.000 C 
ENDBRANCH   1  33
BRANCH  14  34
ATOM     34  C   UNL     1       4.707   4.423  17.284  0.00  0.00    +0.000 C 
ATOM     35  N   UNL     1       5.274   3.486  16.926  0.00  0.00    +0.000 NA
ENDBRANCH  14  34
TORSDOF 4
ENDMDL
MODEL 3
REMARK VINA RESULT:      -8.0      5.637     10.833
REMARK  Name = 
REMARK  7 active torsions:
REMARK  status: ('A' for Active; 'I' for Inactive)
REMARK    1  A    between atoms: C_1  and  C_2
REMARK    2  A    between atoms: C_2  and  C_3
REMARK    3  A    between atoms: C_8  and  C_9
REMARK    4  A    between atoms: C_13  and  S_14
REMARK    5  A    between atoms: C_19  and  C_20
REMARK    6  A    between atoms: C_19  and  C_21
REMARK    7  A    between atoms: C_26  and  C_27
REMARK                            x       y       z     vdW  Elec       q    Type
REMARK                         _______ _______ _______ _____ _____    ______ ____
ROOT
ATOM      1  C   UNL     1      -2.431  12.885  22.808  0.00  0.00    +0.000 A 
ATOM      2  C   UNL     1      -1.677  11.725  22.569  0.00  0.00    +0.000 A 
ATOM      3  C   UNL     1      -1.057  11.469  21.355  0.00  0.00    +0.000 A 
ATOM      4  C   UNL     1      -1.200  12.360  20.286  0.00  0.00    +0.000 A 
ATOM      5  C   UNL     1      -2.015  13.495  20.497  0.00  0.00    +0.000 A 
ATOM      6  C   UNL     1      -2.641  13.801  21.736  0.00  0.00    +0.000 A 
ATOM      7  C   UNL     1      -0.518  12.115  18.924  0.00  0.00    +0.000 C 
ATOM      8  C   UNL     1      -1.621  11.962  17.859  0.00  0.00    +0.000 C 
ATOM      9  C   UNL     1       0.423  13.294  18.603  0.00  0.00    +0.000 C 
ATOM     10  C   UNL     1       0.293  10.838  18.966  0.00  0.00    +0.000 A 
ATOM     11  N   UNL     1       1.034  10.311  17.940  0.00  0.00    +0.000 N 
ATOM     12  C   UNL     1       1.615   9.126  18.342  0.00  0.00    +0.000 A 
ATOM     13  C   UNL     1       2.437   8.236  17.647  0.00  0.00    +0.000 A 
ATOM     14  C   UNL     1       2.874   7.094  18.337  0.00  0.00    +0.000 A 
ATOM     15  C   UNL     1       2.513   6.850  19.663  0.00  0.00    +0.000 A 
ATOM     16  C   UNL     1       1.693   7.750  20.337  0.00  0.00    +0.000 A 
ATOM     17  C   UNL     1       1.241   8.905  19.667  0.00  0.00    +0.000 A 
ATOM     18  C   UNL     1       0.412   9.984  20.041  0.00  0.00    +0.000 A 
ATOM     19  C   UNL     1      -0.242  10.227  21.295  0.00  0.00    +0.000 C 
ATOM     20  O   UNL     1      -0.142   9.476  22.259  0.00  0.00    +0.000 OA
ATOM     21  H   UNL     1       1.138  10.715  17.019  0.00  0.00    +0.000 HD
ENDROOT
BRANCH   6  22
ATOM     22  C   UNL     1      -3.416  15.077  21.855  0.00  0.00    +0.000 A 
ATOM     23  C   UNL     1      -2.781  16.338  21.916  0.00  0.00    +0.000 A 
ATOM     24  C   UNL     1      -3.491  17.521  22.172  0.00  0.00    +0.000 A 
ATOM     25  C   UNL     1      -4.852  17.472  22.444  0.00  0.00    +0.000 A 
ATOM     26  C   UNL     1      -5.502  16.250  22.338  0.00  0.00    +0.000 A 
ATOM     27  C   UNL     1      -4.811  15.094  21.962  0.00  0.00    +0.000 A 
BRANCH  26  28
ATOM     28  S   UNL     1      -7.182  16.083  22.860  0.00  0.00    +0.000 S 
ATOM     29  O   UNL     1      -7.590  17.348  23.434  0.00  0.00    +0.000 OA
ATOM     30  O   UNL     1      -7.915  15.439  21.791  0.00  0.00    +0.000 OA
ATOM     31  F   UNL     1      -7.184  15.038  24.055  0.00  0.00    +0.000 F 
ENDBRANCH  26  28
ENDBRANCH   6  22
BRANCH   1  33
ATOM     32  C   UNL     1      -4.302  12.527  24.579  0.00  0.00    +0.000 C 
ATOM     33  C   UNL     1      -2.923  13.092  24.234  0.00  0.00    +0.000 C 
ENDBRANCH   1  33
BRANCH  14  34
ATOM     34  C   UNL     1       3.719   6.152  17.663  0.00  0.00    +0.000 C 
ATOM     35  N   UNL     1       4.402   5.395  17.124  0.00  0.00    +0.000 NA
ENDBRANCH  14  34
TORSDOF 4
ENDMDL
MODEL 4
REMARK VINA RESULT:      -7.9      5.113     10.240
REMARK  Name = 
REMARK  7 active torsions:
REMARK  status: ('A' for Active; 'I' for Inactive)
REMARK    1  A    between atoms: C_1  and  C_2
REMARK    2  A    between atoms: C_2  and  C_3
REMARK    3  A    between atoms: C_8  and  C_9
REMARK    4  A    between atoms: C_13  and  S_14
REMARK    5  A    between atoms: C_19  and  C_20
REMARK    6  A    between atoms: C_19  and  C_21
REMARK    7  A    between atoms: C_26  and  C_27
REMARK                            x       y       z     vdW  Elec       q    Type
REMARK                         _______ _______ _______ _____ _____    ______ ____
ROOT
ATOM      1  C   UNL     1       0.301  12.805  19.493  0.00  0.00    +0.000 A 
ATOM      2  C   UNL     1       0.911  11.694  18.891  0.00  0.00    +0.000 A 
ATOM      3  C   UNL     1       1.060  10.475  19.538  0.00  0.00    +0.000 A 
ATOM      4  C   UNL     1       0.634  10.322  20.863  0.00  0.00    +0.000 A 
ATOM      5  C   UNL     1       0.083  11.458  21.499  0.00  0.00    +0.000 A 
ATOM      6  C   UNL     1      -0.109  12.711  20.856  0.00  0.00    +0.000 A 
ATOM      7  C   UNL     1       0.774   8.982  21.613  0.00  0.00    +0.000 C 
ATOM      8  C   UNL     1       1.711   9.204  22.816  0.00  0.00    +0.000 C 
ATOM      9  C   UNL     1      -0.621   8.498  22.059  0.00  0.00    +0.000 C 
ATOM     10  C   UNL     1       1.388   7.936  20.708  0.00  0.00    +0.000 A 
ATOM     11  N   UNL     1       1.656   6.632  21.036  0.00  0.00    +0.000 N 
ATOM     12  C   UNL     1       2.238   5.988  19.963  0.00  0.00    +0.000 A 
ATOM     13  C   UNL     1       2.689   4.673  19.830  0.00  0.00    +0.000 A 
ATOM     14  C   UNL     1       3.249   4.310  18.594  0.00  0.00    +0.000 A 
ATOM     15  C   UNL     1       3.351   5.214  17.536  0.00  0.00    +0.000 A 
ATOM     16  C   UNL     1       2.895   6.520  17.691  0.00  0.00    +0.000 A 
ATOM     17  C   UNL     1       2.328   6.910  18.921  0.00  0.00    +0.000 A 
ATOM     18  C   UNL     1       1.795   8.124  19.405  0.00  0.00    +0.000 A 
ATOM     19  C   UNL     1       1.666   9.385  18.732  0.00  0.00    +0.000 C 
ATOM     20  O   UNL     1       2.022   9.564  17.572  0.00  0.00    +0.000 OA
ATOM     21  H   UNL     1       1.469   6.198  21.931  0.00  0.00    +0.000 HD
ENDROOT
BRANCH   6  22
ATOM     22  C   UNL     1      -0.777  13.815  21.615  0.00  0.00    +0.000 A 
ATOM     23  C   UNL     1      -0.050  14.896  22.162  0.00  0.00    +0.000 A 
ATOM     24  C   UNL     1      -0.649  15.855  22.994  0.00  0.00    +0.000 A 
ATOM     25  C   UNL     1      -1.982  15.723  23.362  0.00  0.00    +0.000 A 
ATOM     26  C   UNL     1      -2.724  14.697  22.794  0.00  0.00    +0.000 A 
ATOM     27  C   UNL     1      -2.153  13.817  21.869  0.00  0.00    +0.000 A 
BRANCH  26  28
ATOM     28  S   UNL     1      -4.360  14.355  23.366  0.00  0.00    +0.000 S 
ATOM     29  O   UNL     1      -4.802  15.498  24.139  0.00  0.00    +0.000 OA
ATOM     30  O   UNL     1      -5.118  13.828  22.251  0.00  0.00    +0.000 OA
ATOM     31  F   UNL     1      -4.240  13.151  24.393  0.00  0.00    +0.000 F 
ENDBRANCH  26  28
ENDBRANCH   6  22
BRANCH   1  33
ATOM     32  C   UNL     1       1.110  15.148  18.703  0.00  0.00    +0.000 C 
ATOM     33  C   UNL     1       0.079  14.021  18.604  0.00  0.00    +0.000 C 
ENDBRANCH   1  33
BRANCH  14  34
ATOM     34  C   UNL     1       3.726   2.970  18.412  0.00  0.00    +0.000 C 
ATOM     35  N   UNL     1       4.106   1.891  18.267  0.00  0.00    +0.000 NA
ENDBRANCH  14  34
TORSDOF 4
ENDMDL
MODEL 5
REMARK VINA RESULT:      -7.6      4.983      9.979
REMARK  Name = 
REMARK  7 active torsions:
REMARK  status: ('A' for Active; 'I' for Inactive)
REMARK    1  A    between atoms: C_1  and  C_2
REMARK    2  A    between atoms: C_2  and  C_3
REMARK    3  A    between atoms: C_8  and  C_9
REMARK    4  A    between atoms: C_13  and  S_14
REMARK    5  A    between atoms: C_19  and  C_20
REMARK    6  A    between atoms: C_19  and  C_21
REMARK    7  A    between atoms: C_26  and  C_27
REMARK                            x       y       z     vdW  Elec       q    Type
REMARK                         _______ _______ _______ _____ _____    ______ ____
ROOT
ATOM      1  C   UNL     1       0.396  12.831  19.387  0.00  0.00    +0.000 A 
ATOM      2  C   UNL     1       1.001  11.702  18.813  0.00  0.00    +0.000 A 
ATOM      3  C   UNL     1       1.118  10.491  19.479  0.00  0.00    +0.000 A 
ATOM      4  C   UNL     1       0.663  10.362  20.796  0.00  0.00    +0.000 A 
ATOM      5  C   UNL     1       0.117  11.514  21.406  0.00  0.00    +0.000 A 
ATOM      6  C   UNL     1      -0.043  12.761  20.743  0.00  0.00    +0.000 A 
ATOM      7  C   UNL     1       0.767   9.030  21.567  0.00  0.00    +0.000 C 
ATOM      8  C   UNL     1       1.683   9.254  22.786  0.00  0.00    +0.000 C 
ATOM      9  C   UNL     1      -0.644   8.573  21.991  0.00  0.00    +0.000 C 
ATOM     10  C   UNL     1       1.384   7.963  20.689  0.00  0.00    +0.000 A 
ATOM     11  N   UNL     1       1.625   6.659  21.040  0.00  0.00    +0.000 N 
ATOM     12  C   UNL     1       2.218   5.993  19.988  0.00  0.00    +0.000 A 
ATOM     13  C   UNL     1       2.652   4.669  19.881  0.00  0.00    +0.000 A 
ATOM     14  C   UNL     1       3.231   4.281  18.662  0.00  0.00    +0.000 A 
ATOM     15  C   UNL     1       3.368   5.169  17.594  0.00  0.00    +0.000 A 
ATOM     16  C   UNL     1       2.929   6.484  17.723  0.00  0.00    +0.000 A 
ATOM     17  C   UNL     1       2.343   6.899  18.936  0.00  0.00    +0.000 A 
ATOM     18  C   UNL     1       1.820   8.127  19.392  0.00  0.00    +0.000 A 
ATOM     19  C   UNL     1       1.723   9.380  18.700  0.00  0.00    +0.000 C 
ATOM     20  O   UNL     1       2.105   9.538  17.545  0.00  0.00    +0.000 OA
ATOM     21  H   UNL     1       1.413   6.240  21.936  0.00  0.00    +0.000 HD
ENDROOT
BRANCH   6  22
ATOM     22  C   UNL     1      -0.709  13.886  21.473  0.00  0.00    +0.000 A 
ATOM     23  C   UNL     1      -2.051  14.252  21.224  0.00  0.00    +0.000 A 
ATOM     24  C   UNL     1      -2.634  15.392  21.799  0.00  0.00    +0.000 A 
ATOM     25  C   UNL     1      -1.871  16.242  22.590  0.00  0.00    +0.000 A 
ATOM     26  C   UNL     1      -0.567  15.870  22.888  0.00  0.00    +0.000 A 
ATOM     27  C   UNL     1      -0.030  14.670  22.412  0.00  0.00    +0.000 A 
BRANCH  26  28
ATOM     28  S   UNL     1       0.514  16.993  23.720  0.00  0.00    +0.000 S 
ATOM     29  O   UNL     1       0.095  18.338  23.379  0.00  0.00    +0.000 OA
ATOM     30  O   UNL     1       0.653  16.543  25.088  0.00  0.00    +0.000 OA
ATOM     31  F   UNL     1       1.951  16.805  23.072  0.00  0.00    +0.000 F 
ENDBRANCH  26  28
ENDBRANCH   6  22
BRANCH   1  33
ATOM     32  C   UNL     1       1.115  15.245  18.738  0.00  0.00    +0.000 C 
ATOM     33  C   UNL     1       0.211  14.038  18.478  0.00  0.00    +0.000 C 
ENDBRANCH   1  33
BRANCH  14  34
ATOM     34  C   UNL     1       3.691   2.932  18.507  0.00  0.00    +0.000 C 
ATOM     35  N   UNL     1       4.065   1.849  18.379  0.00  0.00    +0.000 NA
ENDBRANCH  14  34
TORSDOF 4
ENDMDL
MODEL 6
REMARK VINA RESULT:      -7.5      5.103     10.273
REMARK  Name = 
REMARK  7 active torsions:
REMARK  status: ('A' for Active; 'I' for Inactive)
REMARK    1  A    between atoms: C_1  and  C_2
REMARK    2  A    between atoms: C_2  and  C_3
REMARK    3  A    between atoms: C_8  and  C_9
REMARK    4  A    between atoms: C_13  and  S_14
REMARK    5  A    between atoms: C_19  and  C_20
REMARK    6  A    between atoms: C_19  and  C_21
REMARK    7  A    between atoms: C_26  and  C_27
REMARK                            x       y       z     vdW  Elec       q    Type
REMARK                         _______ _______ _______ _____ _____    ______ ____
ROOT
ATOM      1  C   UNL     1      -0.450  13.155  20.248  0.00  0.00    +0.000 A 
ATOM      2  C   UNL     1       0.342  12.292  19.476  0.00  0.00    +0.000 A 
ATOM      3  C   UNL     1       0.674  11.008  19.884  0.00  0.00    +0.000 A 
ATOM      4  C   UNL     1       0.256  10.534  21.132  0.00  0.00    +0.000 A 
ATOM      5  C   UNL     1      -0.483  11.422  21.946  0.00  0.00    +0.000 A 
ATOM      6  C   UNL     1      -0.863  12.732  21.546  0.00  0.00    +0.000 A 
ATOM      7  C   UNL     1       0.598   9.110  21.618  0.00  0.00    +0.000 C 
ATOM      8  C   UNL     1       1.466   9.234  22.886  0.00  0.00    +0.000 C 
ATOM      9  C   UNL     1      -0.708   8.337  21.895  0.00  0.00    +0.000 C 
ATOM     10  C   UNL     1       1.389   8.371  20.561  0.00  0.00    +0.000 A 
ATOM     11  N   UNL     1       1.859   7.086  20.647  0.00  0.00    +0.000 N 
ATOM     12  C   UNL     1       2.556   6.764  19.500  0.00  0.00    +0.000 A 
ATOM     13  C   UNL     1       3.217   5.587  19.139  0.00  0.00    +0.000 A 
ATOM     14  C   UNL     1       3.849   5.565  17.886  0.00  0.00    +0.000 A 
ATOM     15  C   UNL     1       3.822   6.665  17.027  0.00  0.00    +0.000 A 
ATOM     16  C   UNL     1       3.158   7.828  17.406  0.00  0.00    +0.000 A 
ATOM     17  C   UNL     1       2.514   7.876  18.659  0.00  0.00    +0.000 A 
ATOM     18  C   UNL     1       1.783   8.872  19.339  0.00  0.00    +0.000 A 
ATOM     19  C   UNL     1       1.463  10.205  18.914  0.00  0.00    +0.000 C 
ATOM     20  O   UNL     1       1.806  10.662  17.829  0.00  0.00    +0.000 OA
ATOM     21  H   UNL     1       1.729   6.460  21.431  0.00  0.00    +0.000 HD
ENDROOT
BRANCH   6  22
ATOM     22  C   UNL     1      -1.715  13.547  22.469  0.00  0.00    +0.000 A 
ATOM     23  C   UNL     1      -3.091  13.760  22.229  0.00  0.00    +0.000 A 
ATOM     24  C   UNL     1      -3.859  14.639  23.009  0.00  0.00    +0.000 A 
ATOM     25  C   UNL     1      -3.257  15.387  24.013  0.00  0.00    +0.000 A 
ATOM     26  C   UNL     1      -1.919  15.152  24.297  0.00  0.00    +0.000 A 
ATOM     27  C   UNL     1      -1.189  14.186  23.597  0.00  0.00    +0.000 A 
BRANCH  26  28
ATOM     28  S   UNL     1      -1.047  16.201  25.421  0.00  0.00    +0.000 S 
ATOM     29  O   UNL     1       0.303  16.354  24.919  0.00  0.00    +0.000 OA
ATOM     30  O   UNL     1      -1.899  17.331  25.723  0.00  0.00    +0.000 OA
ATOM     31  F   UNL     1      -0.920  15.400  26.785  0.00  0.00    +0.000 F 
ENDBRANCH  26  28
ENDBRANCH   6  22
BRANCH   1  33
ATOM     32  C   UNL     1       0.282  15.365  19.088  0.00  0.00    +0.000 C 
ATOM     33  C   UNL     1      -0.851  14.473  19.599  0.00  0.00    +0.000 C 
ENDBRANCH   1  33
BRANCH  14  34
ATOM     34  C   UNL     1       4.540   4.379  17.474  0.00  0.00    +0.000 C 
ATOM     35  N   UNL     1       5.100   3.426  17.146  0.00  0.00    +0.000 NA
ENDBRANCH  14  34
TORSDOF 4
ENDMDL
MODEL 7
REMARK VINA RESULT:      -7.5      1.958      2.150
REMARK  Name = 
REMARK  7 active torsions:
REMARK  status: ('A' for Active; 'I' for Inactive)
REMARK    1  A    between atoms: C_1  and  C_2
REMARK    2  A    between atoms: C_2  and  C_3
REMARK    3  A    between atoms: C_8  and  C_9
REMARK    4  A    between atoms: C_13  and  S_14
REMARK    5  A    between atoms: C_19  and  C_20
REMARK    6  A    between atoms: C_19  and  C_21
REMARK    7  A    between atoms: C_26  and  C_27
REMARK                            x       y       z     vdW  Elec       q    Type
REMARK                         _______ _______ _______ _____ _____    ______ ____
ROOT
ATOM      1  C   UNL     1       1.808   7.076  20.606  0.00  0.00    +0.000 A 
ATOM      2  C   UNL     1       0.963   7.894  21.372  0.00  0.00    +0.000 A 
ATOM      3  C   UNL     1       0.492   9.119  20.923  0.00  0.00    +0.000 A 
ATOM      4  C   UNL     1       0.890   9.614  19.675  0.00  0.00    +0.000 A 
ATOM      5  C   UNL     1       1.797   8.829  18.929  0.00  0.00    +0.000 A 
ATOM      6  C   UNL     1       2.275   7.558  19.348  0.00  0.00    +0.000 A 
ATOM      7  C   UNL     1       0.382  10.968  19.137  0.00  0.00    +0.000 C 
ATOM      8  C   UNL     1       1.597  11.899  18.964  0.00  0.00    +0.000 C 
ATOM      9  C   UNL     1      -0.358  10.742  17.803  0.00  0.00    +0.000 C 
ATOM     10  C   UNL     1      -0.574  11.599  20.126  0.00  0.00    +0.000 A 
ATOM     11  N   UNL     1      -1.222  12.799  19.978  0.00  0.00    +0.000 N 
ATOM     12  C   UNL     1      -1.991  13.057  21.095  0.00  0.00    +0.000 A 
ATOM     13  C   UNL     1      -2.807  14.148  21.402  0.00  0.00    +0.000 A 
ATOM     14  C   UNL     1      -3.470  14.124  22.640  0.00  0.00    +0.000 A 
ATOM     15  C   UNL     1      -3.331  13.059  23.531  0.00  0.00    +0.000 A 
ATOM     16  C   UNL     1      -2.511  11.982  23.204  0.00  0.00    +0.000 A 
ATOM     17  C   UNL     1      -1.835  11.981  21.968  0.00  0.00    +0.000 A 
ATOM     18  C   UNL     1      -0.944  11.080  21.348  0.00  0.00    +0.000 A 
ATOM     19  C   UNL     1      -0.448   9.824  21.832  0.00  0.00    +0.000 C 
ATOM     20  O   UNL     1      -0.771   9.350  22.916  0.00  0.00    +0.000 OA
ATOM     21  H   UNL     1      -1.147  13.417  19.181  0.00  0.00    +0.000 HD
ENDROOT
BRANCH   6  22
ATOM     22  C   UNL     1       3.172   6.788  18.429  0.00  0.00    +0.000 A 
ATOM     23  C   UNL     1       3.869   7.407  17.367  0.00  0.00    +0.000 A 
ATOM     24  C   UNL     1       4.595   6.670  16.418  0.00  0.00    +0.000 A 
ATOM     25  C   UNL     1       4.589   5.282  16.462  0.00  0.00    +0.000 A 
ATOM     26  C   UNL     1       3.954   4.658  17.527  0.00  0.00    +0.000 A 
ATOM     27  C   UNL     1       3.336   5.402  18.536  0.00  0.00    +0.000 A 
BRANCH  26  28
ATOM     28  S   UNL     1       3.740   2.904  17.537  0.00  0.00    +0.000 S 
ATOM     29  O   UNL     1       4.147   2.421  18.841  0.00  0.00    +0.000 OA
ATOM     30  O   UNL     1       2.442   2.613  16.967  0.00  0.00    +0.000 OA
ATOM     31  F   UNL     1       4.790   2.313  16.504  0.00  0.00    +0.000 F 
ENDBRANCH  26  28
ENDBRANCH   6  22
BRANCH   1  33
ATOM     32  C   UNL     1       1.228   4.542  20.707  0.00  0.00    +0.000 C 
ATOM     33  C   UNL     1       2.117   5.698  21.174  0.00  0.00    +0.000 C 
ENDBRANCH   1  33
BRANCH  14  34
ATOM     34  C   UNL     1      -4.318  15.223  22.998  0.00  0.00    +0.000 C 
ATOM     35  N   UNL     1      -4.998  16.109  23.284  0.00  0.00    +0.000 NA
ENDBRANCH  14  34
TORSDOF 4
ENDMDL
MODEL 8
REMARK VINA RESULT:      -7.4      3.041      4.305
REMARK  Name = 
REMARK  7 active torsions:
REMARK  status: ('A' for Active; 'I' for Inactive)
REMARK    1  A    between atoms: C_1  and  C_2
REMARK    2  A    between atoms: C_2  and  C_3
REMARK    3  A    between atoms: C_8  and  C_9
REMARK    4  A    between atoms: C_13  and  S_14
REMARK    5  A    between atoms: C_19  and  C_20
REMARK    6  A    between atoms: C_19  and  C_21
REMARK    7  A    between atoms: C_26  and  C_27
REMARK                            x       y       z     vdW  Elec       q    Type
REMARK                         _______ _______ _______ _____ _____    ______ ____
ROOT
ATOM      1  C   UNL     1       2.552   7.014  18.355  0.00  0.00    +0.000 A 
ATOM      2  C   UNL     1       2.450   8.393  18.111  0.00  0.00    +0.000 A 
ATOM      3  C   UNL     1       1.858   9.273  19.005  0.00  0.00    +0.000 A 
ATOM      4  C   UNL     1       1.288   8.798  20.192  0.00  0.00    +0.000 A 
ATOM      5  C   UNL     1       1.324   7.402  20.411  0.00  0.00    +0.000 A 
ATOM      6  C   UNL     1       1.948   6.478  19.530  0.00  0.00    +0.000 A 
ATOM      7  C   UNL     1       0.628   9.745  21.215  0.00  0.00    +0.000 C 
ATOM      8  C   UNL     1      -0.861   9.366  21.326  0.00  0.00    +0.000 C 
ATOM      9  C   UNL     1       1.351   9.617  22.571  0.00  0.00    +0.000 C 
ATOM     10  C   UNL     1       0.727  11.179  20.741  0.00  0.00    +0.000 A 
ATOM     11  N   UNL     1       0.254  12.287  21.396  0.00  0.00    +0.000 N 
ATOM     12  C   UNL     1       0.506  13.418  20.647  0.00  0.00    +0.000 A 
ATOM     13  C   UNL     1       0.203  14.758  20.897  0.00  0.00    +0.000 A 
ATOM     14  C   UNL     1       0.592  15.695  19.926  0.00  0.00    +0.000 A 
ATOM     15  C   UNL     1       1.258  15.316  18.759  0.00  0.00    +0.000 A 
ATOM     16  C   UNL     1       1.550  13.974  18.531  0.00  0.00    +0.000 A 
ATOM     17  C   UNL     1       1.171  13.014  19.490  0.00  0.00    +0.000 A 
ATOM     18  C   UNL     1       1.298  11.611  19.563  0.00  0.00    +0.000 A 
ATOM     19  C   UNL     1       1.896  10.708  18.621  0.00  0.00    +0.000 C 
ATOM     20  O   UNL     1       2.409  11.079  17.571  0.00  0.00    +0.000 OA
ATOM     21  H   UNL     1      -0.219  12.287  22.290  0.00  0.00    +0.000 HD
ENDROOT
BRANCH   6  22
ATOM     22  C   UNL     1       1.988   5.031  19.915  0.00  0.00    +0.000 A 
ATOM     23  C   UNL     1       0.993   4.442  20.727  0.00  0.00    +0.000 A 
ATOM     24  C   UNL     1       1.100   3.129  21.208  0.00  0.00    +0.000 A 
ATOM     25  C   UNL     1       2.243   2.383  20.948  0.00  0.00    +0.000 A 
ATOM     26  C   UNL     1       3.207   2.925  20.109  0.00  0.00    +0.000 A 
ATOM     27  C   UNL     1       3.037   4.188  19.533  0.00  0.00    +0.000 A 
BRANCH  26  28
ATOM     28  S   UNL     1       4.764   2.117  19.897  0.00  0.00    +0.000 S 
ATOM     29  O   UNL     1       5.608   2.991  19.108  0.00  0.00    +0.000 OA
ATOM     30  O   UNL     1       5.171   1.596  21.185  0.00  0.00    +0.000 OA
ATOM     31  F   UNL     1       4.493   0.838  18.997  0.00  0.00    +0.000 F 
ENDBRANCH  26  28
ENDBRANCH   6  22
BRANCH   1  33
ATOM     32  C   UNL     1       4.842   6.560  17.207  0.00  0.00    +0.000 C 
ATOM     33  C   UNL     1       3.360   6.205  17.350  0.00  0.00    +0.000 C 
ENDBRANCH   1  33
BRANCH  14  34
ATOM     34  C   UNL     1       0.301  17.083  20.139  0.00  0.00    +0.000 C 
ATOM     35  N   UNL     1       0.071  18.200  20.309  0.00  0.00    +0.000 NA
ENDBRANCH  14  34
TORSDOF 4
ENDMDL
MODEL 9
REMARK VINA RESULT:      -7.3      6.576     10.041
REMARK  Name = 
REMARK  7 active torsions:
REMARK  status: ('A' for Active; 'I' for Inactive)
REMARK    1  A    between atoms: C_1  and  C_2
REMARK    2  A    between atoms: C_2  and  C_3
REMARK    3  A    between atoms: C_8  and  C_9
REMARK    4  A    between atoms: C_13  and  S_14
REMARK    5  A    between atoms: C_19  and  C_20
REMARK    6  A    between atoms: C_19  and  C_21
REMARK    7  A    between atoms: C_26  and  C_27
REMARK                            x       y       z     vdW  Elec       q    Type
REMARK                         _______ _______ _______ _____ _____    ______ ____
ROOT
ATOM      1  C   UNL     1      -1.044  11.818  19.115  0.00  0.00    +0.000 A 
ATOM      2  C   UNL     1       0.266  12.129  18.717  0.00  0.00    +0.000 A 
ATOM      3  C   UNL     1       0.899  13.311  19.072  0.00  0.00    +0.000 A 
ATOM      4  C   UNL     1       0.220  14.278  19.823  0.00  0.00    +0.000 A 
ATOM      5  C   UNL     1      -1.122  14.003  20.168  0.00  0.00    +0.000 A 
ATOM      6  C   UNL     1      -1.790  12.791  19.844  0.00  0.00    +0.000 A 
ATOM      7  C   UNL     1       0.893  15.601  20.245  0.00  0.00    +0.000 C 
ATOM      8  C   UNL     1       0.115  16.761  19.594  0.00  0.00    +0.000 C 
ATOM      9  C   UNL     1       0.891  15.707  21.784  0.00  0.00    +0.000 C 
ATOM     10  C   UNL     1       2.323  15.642  19.754  0.00  0.00    +0.000 A 
ATOM     11  N   UNL     1       3.221  16.660  19.948  0.00  0.00    +0.000 N 
ATOM     12  C   UNL     1       4.418  16.353  19.334  0.00  0.00    +0.000 A 
ATOM     13  C   UNL     1       5.609  17.079  19.251  0.00  0.00    +0.000 A 
ATOM     14  C   UNL     1       6.669  16.493  18.541  0.00  0.00    +0.000 A 
ATOM     15  C   UNL     1       6.552  15.237  17.944  0.00  0.00    +0.000 A 
ATOM     16  C   UNL     1       5.356  14.531  18.038  0.00  0.00    +0.000 A 
ATOM     17  C   UNL     1       4.276  15.096  18.746  0.00  0.00    +0.000 A 
ATOM     18  C   UNL     1       2.960  14.668  19.016  0.00  0.00    +0.000 A 
ATOM     19  C   UNL     1       2.309  13.450  18.624  0.00  0.00    +0.000 C 
ATOM     20  O   UNL     1       2.865  12.574  17.970  0.00  0.00    +0.000 OA
ATOM     21  H   UNL     1       3.042  17.517  20.454  0.00  0.00    +0.000 HD
ENDROOT
BRANCH   6  22
ATOM     22  C   UNL     1      -3.190  12.586  20.335  0.00  0.00    +0.000 A 
ATOM     23  C   UNL     1      -4.278  12.413  19.450  0.00  0.00    +0.000 A 
ATOM     24  C   UNL     1      -5.607  12.366  19.899  0.00  0.00    +0.000 A 
ATOM     25  C   UNL     1      -5.895  12.560  21.244  0.00  0.00    +0.000 A 
ATOM     26  C   UNL     1      -4.837  12.680  22.134  0.00  0.00    +0.000 A 
ATOM     27  C   UNL     1      -3.511  12.603  21.696  0.00  0.00    +0.000 A 
BRANCH  26  28
ATOM     28  S   UNL     1      -5.132  13.124  23.819  0.00  0.00    +0.000 S 
ATOM     29  O   UNL     1      -4.679  12.025  24.647  0.00  0.00    +0.000 OA
ATOM     30  O   UNL     1      -4.672  14.483  24.005  0.00  0.00    +0.000 OA
ATOM     31  F   UNL     1      -6.708  13.190  24.001  0.00  0.00    +0.000 F 
ENDBRANCH  26  28
ENDBRANCH   6  22
BRANCH   1  33
ATOM     32  C   UNL     1      -1.892  10.152  17.306  0.00  0.00    +0.000 C 
ATOM     33  C   UNL     1      -1.544  10.422  18.771  0.00  0.00    +0.000 C 
ENDBRANCH   1  33
BRANCH  14  34
ATOM     34  C   UNL     1       7.910  17.202  18.429  0.00  0.00    +0.000 C 
ATOM     35  N   UNL     1       8.905  17.776  18.337  0.00  0.00    +0.000 NA
ENDBRANCH  14  34
TORSDOF 4
ENDMDL
