MODEL 1
REMARK VINA RESULT:      -8.6      0.000      0.000
REMARK  Name = 
REMARK  8 active torsions:
REMARK  status: ('A' for Active; 'I' for Inactive)
REMARK    1  A    between atoms: C_1  and  C_2
REMARK    2  A    between atoms: C_3  and  C_4
REMARK    3  A    between atoms: C_7  and  C_8
REMARK    4  A    between atoms: C_8  and  C_9
REMARK    5  A    between atoms: C_9  and  C_10
REMARK    6  A    between atoms: C_9  and  C_11
REMARK    7  A    between atoms: C_14  and  C_15
REMARK    8  A    between atoms: N_23  and  C_24
REMARK                            x       y       z     vdW  Elec       q    Type
REMARK                         _______ _______ _______ _____ _____    ______ ____
ROOT
ATOM      1  C   UNL     1       4.677   7.738  16.282  0.00  0.00    +0.000 C 
ATOM      2  C   UNL     1       4.452   6.406  16.919  0.00  0.00    +0.000 A 
ATOM      3  C   UNL     1       4.958   5.171  16.564  0.00  0.00    +0.000 A 
ATOM      4  N   UNL     1       4.395   4.181  17.333  0.00  0.00    +0.000 NA
ATOM      5  C   UNL     1       3.554   4.763  18.169  0.00  0.00    +0.000 A 
ATOM      6  N   UNL     1       3.519   6.155  17.930  0.00  0.00    +0.000 N 
ENDROOT
BRANCH   5   7
ATOM      7  C   UNL     1       2.849   4.019  19.248  0.00  0.00    +0.000 A 
ATOM      8  C   UNL     1       3.510   3.731  20.459  0.00  0.00    +0.000 A 
ATOM      9  C   UNL     1       2.852   3.101  21.521  0.00  0.00    +0.000 A 
ATOM     10  C   UNL     1       1.541   2.675  21.361  0.00  0.00    +0.000 A 
ATOM     11 CL   UNL     1       0.733   1.894  22.663  0.00  0.00    +0.000 Cl
ATOM     12  C   UNL     1       0.880   2.876  20.155  0.00  0.00    +0.000 A 
ATOM     13  C   UNL     1       1.523   3.552  19.106  0.00  0.00    +0.000 A 
ATOM     14 CL   UNL     1       0.580   3.807  17.677  0.00  0.00    +0.000 Cl
ENDBRANCH   5   7
BRANCH   6  15
ATOM     15  C   UNL     1       2.687   7.130  18.580  0.00  0.00    +0.000 A 
ATOM     16  C   UNL     1       2.190   8.228  17.863  0.00  0.00    +0.000 A 
ATOM     17  C   UNL     1       1.409   9.199  18.495  0.00  0.00    +0.000 A 
ATOM     18  C   UNL     1       1.142   9.097  19.858  0.00  0.00    +0.000 A 
ATOM     19 CL   UNL     1       0.218  10.316  20.640  0.00  0.00    +0.000 Cl
ATOM     20  C   UNL     1       1.635   8.018  20.586  0.00  0.00    +0.000 A 
ATOM     21  C   UNL     1       2.381   7.022  19.946  0.00  0.00    +0.000 A 
ENDBRANCH   6  15
BRANCH   3  22
ATOM     22  C   UNL     1       5.929   4.896  15.448  0.00  0.00    +0.000 A 
ATOM     23  N   UNL     1       7.137   5.424  15.378  0.00  0.00    +0.000 NA
ATOM     24  N   UNL     1       7.685   5.042  14.173  0.00  0.00    +0.000 NA
ATOM     25  C   UNL     1       6.779   4.296  13.584  0.00  0.00    +0.000 A 
ATOM     26  O   UNL     1       5.652   4.111  14.348  0.00  0.00    +0.000 OA
BRANCH  25  27
ATOM     27  C   UNL     1       6.794   3.734  12.211  0.00  0.00    +0.000 C 
BRANCH  27  28
ATOM     28  C   UNL     1       5.723   2.651  11.987  0.00  0.00    +0.000 C 
ATOM     29  C   UNL     1       4.459   3.200  11.317  0.00  0.00    +0.000 C 
ATOM     30  C   UNL     1       6.292   1.511  11.139  0.00  0.00    +0.000 C 
ENDBRANCH  27  28
ENDBRANCH  25  27
ENDBRANCH   3  22
TORSDOF 5
ENDMDL
MODEL 2
REMARK VINA RESULT:      -8.0      1.010      1.296
REMARK  Name = 
REMARK  8 active torsions:
REMARK  status: ('A' for Active; 'I' for Inactive)
REMARK    1  A    between atoms: C_1  and  C_2
REMARK    2  A    between atoms: C_3  and  C_4
REMARK    3  A    between atoms: C_7  and  C_8
REMARK    4  A    between atoms: C_8  and  C_9
REMARK    5  A    between atoms: C_9  and  C_10
REMARK    6  A    between atoms: C_9  and  C_11
REMARK    7  A    between atoms: C_14  and  C_15
REMARK    8  A    between atoms: N_23  and  C_24
REMARK                            x       y       z     vdW  Elec       q    Type
REMARK                         _______ _______ _______ _____ _____    ______ ____
ROOT
ATOM      1  C   UNL     1       4.603   7.737  16.172  0.00  0.00    +0.000 C 
ATOM      2  C   UNL     1       4.400   6.425  16.855  0.00  0.00    +0.000 A 
ATOM      3  C   UNL     1       4.911   5.184  16.533  0.00  0.00    +0.000 A 
ATOM      4  N   UNL     1       4.369   4.215  17.343  0.00  0.00    +0.000 NA
ATOM      5  C   UNL     1       3.537   4.817  18.173  0.00  0.00    +0.000 A 
ATOM      6  N   UNL     1       3.486   6.200  17.889  0.00  0.00    +0.000 N 
ENDROOT
BRANCH   5   7
ATOM      7  C   UNL     1       2.856   4.104  19.288  0.00  0.00    +0.000 A 
ATOM      8  C   UNL     1       1.471   4.262  19.490  0.00  0.00    +0.000 A 
ATOM      9  C   UNL     1       0.788   3.547  20.479  0.00  0.00    +0.000 A 
ATOM     10  C   UNL     1       1.494   2.719  21.340  0.00  0.00    +0.000 A 
ATOM     11 CL   UNL     1       0.657   1.845  22.563  0.00  0.00    +0.000 Cl
ATOM     12  C   UNL     1       2.873   2.594  21.219  0.00  0.00    +0.000 A 
ATOM     13  C   UNL     1       3.552   3.273  20.195  0.00  0.00    +0.000 A 
ATOM     14 CL   UNL     1       5.257   2.988  20.096  0.00  0.00    +0.000 Cl
ENDBRANCH   5   7
BRANCH   6  15
ATOM     15  C   UNL     1       2.655   7.189  18.521  0.00  0.00    +0.000 A 
ATOM     16  C   UNL     1       2.089   8.226  17.765  0.00  0.00    +0.000 A 
ATOM     17  C   UNL     1       1.309   9.211  18.376  0.00  0.00    +0.000 A 
ATOM     18  C   UNL     1       1.113   9.186  19.754  0.00  0.00    +0.000 A 
ATOM     19 CL   UNL     1       0.191  10.424  20.507  0.00  0.00    +0.000 Cl
ATOM     20  C   UNL     1       1.676   8.169  20.520  0.00  0.00    +0.000 A 
ATOM     21  C   UNL     1       2.421   7.158  19.904  0.00  0.00    +0.000 A 
ENDBRANCH   6  15
BRANCH   3  22
ATOM     22  C   UNL     1       5.866   4.880  15.411  0.00  0.00    +0.000 A 
ATOM     23  N   UNL     1       7.061   5.428  15.294  0.00  0.00    +0.000 NA
ATOM     24  N   UNL     1       7.594   5.005  14.096  0.00  0.00    +0.000 NA
ATOM     25  C   UNL     1       6.693   4.216  13.558  0.00  0.00    +0.000 A 
ATOM     26  O   UNL     1       5.585   4.042  14.351  0.00  0.00    +0.000 OA
BRANCH  25  27
ATOM     27  C   UNL     1       6.693   3.595  12.210  0.00  0.00    +0.000 C 
BRANCH  27  28
ATOM     28  C   UNL     1       5.523   2.619  11.992  0.00  0.00    +0.000 C 
ATOM     29  C   UNL     1       4.345   3.265  11.256  0.00  0.00    +0.000 C 
ATOM     30  C   UNL     1       5.997   1.391  11.211  0.00  0.00    +0.000 C 
ENDBRANCH  27  28
ENDBRANCH  25  27
ENDBRANCH   3  22
TORSDOF 5
ENDMDL
MODEL 3
REMARK VINA RESULT:      -7.9      5.386      8.652
REMARK  Name = 
REMARK  8 active torsions:
REMARK  status: ('A' for Active; 'I' for Inactive)
REMARK    1  A    between atoms: C_1  and  C_2
REMARK    2  A    between atoms: C_3  and  C_4
REMARK    3  A    between atoms: C_7  and  C_8
REMARK    4  A    between atoms: C_8  and  C_9
REMARK    5  A    between atoms: C_9  and  C_10
REMARK    6  A    between atoms: C_9  and  C_11
REMARK    7  A    between atoms: C_14  and  C_15
REMARK    8  A    between atoms: N_23  and  C_24
REMARK                            x       y       z     vdW  Elec       q    Type
REMARK                         _______ _______ _______ _____ _____    ______ ____
ROOT
ATOM      1  C   UNL     1       1.969  12.254  19.660  0.00  0.00    +0.000 C 
ATOM      2  C   UNL     1       0.676  11.656  19.212  0.00  0.00    +0.000 A 
ATOM      3  C   UNL     1       0.426  10.399  18.701  0.00  0.00    +0.000 A 
ATOM      4  N   UNL     1      -0.881  10.298  18.289  0.00  0.00    +0.000 NA
ATOM      5  C   UNL     1      -1.462  11.458  18.538  0.00  0.00    +0.000 A 
ATOM      6  N   UNL     1      -0.524  12.362  19.082  0.00  0.00    +0.000 N 
ENDROOT
BRANCH   5   7
ATOM      7  C   UNL     1      -2.920  11.685  18.342  0.00  0.00    +0.000 A 
ATOM      8  C   UNL     1      -3.728  12.081  19.426  0.00  0.00    +0.000 A 
ATOM      9  C   UNL     1      -5.085  12.377  19.259  0.00  0.00    +0.000 A 
ATOM     10  C   UNL     1      -5.678  12.203  18.017  0.00  0.00    +0.000 A 
ATOM     11 CL   UNL     1      -7.349  12.559  17.811  0.00  0.00    +0.000 Cl
ATOM     12  C   UNL     1      -4.930  11.743  16.940  0.00  0.00    +0.000 A 
ATOM     13  C   UNL     1      -3.557  11.493  17.095  0.00  0.00    +0.000 A 
ATOM     14 CL   UNL     1      -2.712  10.991  15.670  0.00  0.00    +0.000 Cl
ENDBRANCH   5   7
BRANCH   6  15
ATOM     15  C   UNL     1      -0.741  13.741  19.427  0.00  0.00    +0.000 A 
ATOM     16  C   UNL     1      -0.332  14.762  18.557  0.00  0.00    +0.000 A 
ATOM     17  C   UNL     1      -0.508  16.105  18.899  0.00  0.00    +0.000 A 
ATOM     18  C   UNL     1      -1.068  16.440  20.129  0.00  0.00    +0.000 A 
ATOM     19 CL   UNL     1      -1.242  18.093  20.565  0.00  0.00    +0.000 Cl
ATOM     20  C   UNL     1      -1.471  15.439  21.008  0.00  0.00    +0.000 A 
ATOM     21  C   UNL     1      -1.335  14.094  20.648  0.00  0.00    +0.000 A 
ENDBRANCH   6  15
BRANCH   3  22
ATOM     22  C   UNL     1       1.432   9.293  18.527  0.00  0.00    +0.000 A 
ATOM     23  N   UNL     1       2.257   9.205  17.500  0.00  0.00    +0.000 NA
ATOM     24  N   UNL     1       2.940   8.015  17.620  0.00  0.00    +0.000 NA
ATOM     25  C   UNL     1       2.495   7.452  18.719  0.00  0.00    +0.000 A 
ATOM     26  O   UNL     1       1.571   8.222  19.384  0.00  0.00    +0.000 OA
BRANCH  25  27
ATOM     27  C   UNL     1       2.793   6.100  19.252  0.00  0.00    +0.000 C 
BRANCH  27  28
ATOM     28  C   UNL     1       3.001   5.046  18.150  0.00  0.00    +0.000 C 
ATOM     29  C   UNL     1       4.048   3.993  18.531  0.00  0.00    +0.000 C 
ATOM     30  C   UNL     1       1.677   4.350  17.827  0.00  0.00    +0.000 C 
ENDBRANCH  27  28
ENDBRANCH  25  27
ENDBRANCH   3  22
TORSDOF 5
ENDMDL
MODEL 4
REMARK VINA RESULT:      -7.8      5.412      8.846
REMARK  Name = 
REMARK  8 active torsions:
REMARK  status: ('A' for Active; 'I' for Inactive)
REMARK    1  A    between atoms: C_1  and  C_2
REMARK    2  A    between atoms: C_3  and  C_4
REMARK    3  A    between atoms: C_7  and  C_8
REMARK    4  A    between atoms: C_8  and  C_9
REMARK    5  A    between atoms: C_9  and  C_10
REMARK    6  A    between atoms: C_9  and  C_11
REMARK    7  A    between atoms: C_14  and  C_15
REMARK    8  A    between atoms: N_23  and  C_24
REMARK                            x       y       z     vdW  Elec       q    Type
REMARK                         _______ _______ _______ _____ _____    ______ ____
ROOT
ATOM      1  C   UNL     1       1.925  12.243  19.810  0.00  0.00    +0.000 C 
ATOM      2  C   UNL     1       0.640  11.654  19.328  0.00  0.00    +0.000 A 
ATOM      3  C   UNL     1       0.397  10.403  18.798  0.00  0.00    +0.000 A 
ATOM      4  N   UNL     1      -0.902  10.310  18.359  0.00  0.00    +0.000 NA
ATOM      5  C   UNL     1      -1.484  11.469  18.607  0.00  0.00    +0.000 A 
ATOM      6  N   UNL     1      -0.555  12.365  19.181  0.00  0.00    +0.000 N 
ENDROOT
BRANCH   5   7
ATOM      7  C   UNL     1      -2.937  11.704  18.383  0.00  0.00    +0.000 A 
ATOM      8  C   UNL     1      -3.762  12.114  19.449  0.00  0.00    +0.000 A 
ATOM      9  C   UNL     1      -5.114  12.417  19.254  0.00  0.00    +0.000 A 
ATOM     10  C   UNL     1      -5.686  12.235  18.003  0.00  0.00    +0.000 A 
ATOM     11 CL   UNL     1      -7.350  12.598  17.765  0.00  0.00    +0.000 Cl
ATOM     12  C   UNL     1      -4.921  11.760  16.945  0.00  0.00    +0.000 A 
ATOM     13  C   UNL     1      -3.553  11.504  17.127  0.00  0.00    +0.000 A 
ATOM     14 CL   UNL     1      -2.685  10.983  15.722  0.00  0.00    +0.000 Cl
ENDBRANCH   5   7
BRANCH   6  15
ATOM     15  C   UNL     1      -0.776  13.741  19.536  0.00  0.00    +0.000 A 
ATOM     16  C   UNL     1      -1.371  14.069  20.763  0.00  0.00    +0.000 A 
ATOM     17  C   UNL     1      -1.620  15.401  21.101  0.00  0.00    +0.000 A 
ATOM     18  C   UNL     1      -1.305  16.417  20.203  0.00  0.00    +0.000 A 
ATOM     19 CL   UNL     1      -1.654  18.050  20.604  0.00  0.00    +0.000 Cl
ATOM     20  C   UNL     1      -0.722  16.108  18.977  0.00  0.00    +0.000 A 
ATOM     21  C   UNL     1      -0.432  14.777  18.654  0.00  0.00    +0.000 A 
ENDBRANCH   6  15
BRANCH   3  22
ATOM     22  C   UNL     1       1.403   9.296  18.634  0.00  0.00    +0.000 A 
ATOM     23  N   UNL     1       2.133   9.122  17.548  0.00  0.00    +0.000 NA
ATOM     24  N   UNL     1       2.846   7.955  17.712  0.00  0.00    +0.000 NA
ATOM     25  C   UNL     1       2.513   7.491  18.894  0.00  0.00    +0.000 A 
ATOM     26  O   UNL     1       1.638   8.309  19.568  0.00  0.00    +0.000 OA
BRANCH  25  27
ATOM     27  C   UNL     1       2.882   6.197  19.519  0.00  0.00    +0.000 C 
BRANCH  27  28
ATOM     28  C   UNL     1       2.015   5.021  19.036  0.00  0.00    +0.000 C 
ATOM     29  C   UNL     1       2.820   3.971  18.263  0.00  0.00    +0.000 C 
ATOM     30  C   UNL     1       1.321   4.353  20.225  0.00  0.00    +0.000 C 
ENDBRANCH  27  28
ENDBRANCH  25  27
ENDBRANCH   3  22
TORSDOF 5
ENDMDL
MODEL 5
REMARK VINA RESULT:      -7.7      5.240      8.700
REMARK  Name = 
REMARK  8 active torsions:
REMARK  status: ('A' for Active; 'I' for Inactive)
REMARK    1  A    between atoms: C_1  and  C_2
REMARK    2  A    between atoms: C_3  and  C_4
REMARK    3  A    between atoms: C_7  and  C_8
REMARK    4  A    between atoms: C_8  and  C_9
REMARK    5  A    between atoms: C_9  and  C_10
REMARK    6  A    between atoms: C_9  and  C_11
REMARK    7  A    between atoms: C_14  and  C_15
REMARK    8  A    between atoms: N_23  and  C_24
REMARK                            x       y       z     vdW  Elec       q    Type
REMARK                         _______ _______ _______ _____ _____    ______ ____
ROOT
ATOM      1  C   UNL     1       2.503  12.446  18.642  0.00  0.00    +0.000 C 
ATOM      2  C   UNL     1       1.204  11.905  19.143  0.00  0.00    +0.000 A 
ATOM      3  C   UNL     1       0.745  10.603  19.153  0.00  0.00    +0.000 A 
ATOM      4  N   UNL     1      -0.560  10.556  19.581  0.00  0.00    +0.000 NA
ATOM      5  C   UNL     1      -0.930  11.795  19.849  0.00  0.00    +0.000 A 
ATOM      6  N   UNL     1       0.123  12.690  19.557  0.00  0.00    +0.000 N 
ENDROOT
BRANCH   5   7
ATOM      7  C   UNL     1      -2.246  12.126  20.461  0.00  0.00    +0.000 A 
ATOM      8  C   UNL     1      -3.384  12.295  19.647  0.00  0.00    +0.000 A 
ATOM      9  C   UNL     1      -4.649  12.530  20.196  0.00  0.00    +0.000 A 
ATOM     10  C   UNL     1      -4.785  12.684  21.568  0.00  0.00    +0.000 A 
ATOM     11 CL   UNL     1      -6.339  12.982  22.245  0.00  0.00    +0.000 Cl
ATOM     12  C   UNL     1      -3.673  12.598  22.397  0.00  0.00    +0.000 A 
ATOM     13  C   UNL     1      -2.411  12.312  21.852  0.00  0.00    +0.000 A 
ATOM     14 CL   UNL     1      -1.111  12.160  22.985  0.00  0.00    +0.000 Cl
ENDBRANCH   5   7
BRANCH   6  15
ATOM     15  C   UNL     1       0.099  14.125  19.650  0.00  0.00    +0.000 A 
ATOM     16  C   UNL     1       0.416  14.761  20.858  0.00  0.00    +0.000 A 
ATOM     17  C   UNL     1       0.362  16.153  20.968  0.00  0.00    +0.000 A 
ATOM     18  C   UNL     1      -0.039  16.920  19.877  0.00  0.00    +0.000 A 
ATOM     19 CL   UNL     1      -0.147  18.628  20.029  0.00  0.00    +0.000 Cl
ATOM     20  C   UNL     1      -0.365  16.303  18.673  0.00  0.00    +0.000 A 
ATOM     21  C   UNL     1      -0.270  14.912  18.549  0.00  0.00    +0.000 A 
ENDBRANCH   6  15
BRANCH   3  22
ATOM     22  C   UNL     1       1.506   9.390  18.694  0.00  0.00    +0.000 A 
ATOM     23  N   UNL     1       1.876   9.183  17.443  0.00  0.00    +0.000 NA
ATOM     24  N   UNL     1       2.440   7.928  17.380  0.00  0.00    +0.000 NA
ATOM     25  C   UNL     1       2.388   7.448  18.601  0.00  0.00    +0.000 A 
ATOM     26  O   UNL     1       1.855   8.332  19.507  0.00  0.00    +0.000 OA
BRANCH  25  27
ATOM     27  C   UNL     1       2.736   6.085  19.074  0.00  0.00    +0.000 C 
BRANCH  27  28
ATOM     28  C   UNL     1       2.851   5.057  17.934  0.00  0.00    +0.000 C 
ATOM     29  C   UNL     1       3.964   4.032  18.173  0.00  0.00    +0.000 C 
ATOM     30  C   UNL     1       1.520   4.326  17.746  0.00  0.00    +0.000 C 
ENDBRANCH  27  28
ENDBRANCH  25  27
ENDBRANCH   3  22
TORSDOF 5
ENDMDL
MODEL 6
REMARK VINA RESULT:      -7.7      1.270      4.241
REMARK  Name = 
REMARK  8 active torsions:
REMARK  status: ('A' for Active; 'I' for Inactive)
REMARK    1  A    between atoms: C_1  and  C_2
REMARK    2  A    between atoms: C_3  and  C_4
REMARK    3  A    between atoms: C_7  and  C_8
REMARK    4  A    between atoms: C_8  and  C_9
REMARK    5  A    between atoms: C_9  and  C_10
REMARK    6  A    between atoms: C_9  and  C_11
REMARK    7  A    between atoms: C_14  and  C_15
REMARK    8  A    between atoms: N_23  and  C_24
REMARK                            x       y       z     vdW  Elec       q    Type
REMARK                         _______ _______ _______ _____ _____    ______ ____
ROOT
ATOM      1  C   UNL     1       4.501   2.554  17.369  0.00  0.00    +0.000 C 
ATOM      2  C   UNL     1       4.168   4.007  17.466  0.00  0.00    +0.000 A 
ATOM      3  C   UNL     1       4.664   5.068  16.736  0.00  0.00    +0.000 A 
ATOM      4  N   UNL     1       4.191   6.259  17.234  0.00  0.00    +0.000 NA
ATOM      5  C   UNL     1       3.402   5.972  18.254  0.00  0.00    +0.000 A 
ATOM      6  N   UNL     1       3.379   4.576  18.471  0.00  0.00    +0.000 N 
ENDROOT
BRANCH   5   7
ATOM      7  C   UNL     1       2.604   7.005  18.969  0.00  0.00    +0.000 A 
ATOM      8  C   UNL     1       2.107   6.748  20.262  0.00  0.00    +0.000 A 
ATOM      9  C   UNL     1       1.420   7.725  20.990  0.00  0.00    +0.000 A 
ATOM     10  C   UNL     1       1.145   8.953  20.404  0.00  0.00    +0.000 A 
ATOM     11 CL   UNL     1       0.293  10.152  21.296  0.00  0.00    +0.000 Cl
ATOM     12  C   UNL     1       1.554   9.216  19.103  0.00  0.00    +0.000 A 
ATOM     13  C   UNL     1       2.287   8.254  18.389  0.00  0.00    +0.000 A 
ATOM     14 CL   UNL     1       2.804   8.718  16.803  0.00  0.00    +0.000 Cl
ENDBRANCH   5   7
BRANCH   6  15
ATOM     15  C   UNL     1       2.695   3.868  19.519  0.00  0.00    +0.000 A 
ATOM     16  C   UNL     1       1.311   3.656  19.444  0.00  0.00    +0.000 A 
ATOM     17  C   UNL     1       0.633   2.999  20.474  0.00  0.00    +0.000 A 
ATOM     18  C   UNL     1       1.328   2.576  21.604  0.00  0.00    +0.000 A 
ATOM     19 CL   UNL     1       0.483   1.808  22.888  0.00  0.00    +0.000 Cl
ATOM     20  C   UNL     1       2.701   2.787  21.698  0.00  0.00    +0.000 A 
ATOM     21  C   UNL     1       3.389   3.405  20.648  0.00  0.00    +0.000 A 
ENDBRANCH   6  15
BRANCH   3  22
ATOM     22  C   UNL     1       5.647   4.983  15.600  0.00  0.00    +0.000 A 
ATOM     23  N   UNL     1       6.715   5.753  15.493  0.00  0.00    +0.000 NA
ATOM     24  N   UNL     1       7.306   5.473  14.281  0.00  0.00    +0.000 NA
ATOM     25  C   UNL     1       6.566   4.542  13.725  0.00  0.00    +0.000 A 
ATOM     26  O   UNL     1       5.520   4.137  14.519  0.00  0.00    +0.000 OA
BRANCH  25  27
ATOM     27  C   UNL     1       6.670   3.969  12.359  0.00  0.00    +0.000 C 
BRANCH  27  28
ATOM     28  C   UNL     1       5.671   2.827  12.103  0.00  0.00    +0.000 C 
ATOM     29  C   UNL     1       4.387   3.308  11.419  0.00  0.00    +0.000 C 
ATOM     30  C   UNL     1       6.323   1.737  11.248  0.00  0.00    +0.000 C 
ENDBRANCH  27  28
ENDBRANCH  25  27
ENDBRANCH   3  22
TORSDOF 5
ENDMDL
MODEL 7
REMARK VINA RESULT:      -7.7      5.162      8.475
REMARK  Name = 
REMARK  8 active torsions:
REMARK  status: ('A' for Active; 'I' for Inactive)
REMARK    1  A    between atoms: C_1  and  C_2
REMARK    2  A    between atoms: C_3  and  C_4
REMARK    3  A    between atoms: C_7  and  C_8
REMARK    4  A    between atoms: C_8  and  C_9
REMARK    5  A    between atoms: C_9  and  C_10
REMARK    6  A    between atoms: C_9  and  C_11
REMARK    7  A    between atoms: C_14  and  C_15
REMARK    8  A    between atoms: N_23  and  C_24
REMARK                            x       y       z     vdW  Elec       q    Type
REMARK                         _______ _______ _______ _____ _____    ______ ____
ROOT
ATOM      1  C   UNL     1       2.535  12.381  18.252  0.00  0.00    +0.000 C 
ATOM      2  C   UNL     1       1.414  11.870  19.097  0.00  0.00    +0.000 A 
ATOM      3  C   UNL     1       1.018  10.568  19.329  0.00  0.00    +0.000 A 
ATOM      4  N   UNL     1      -0.143  10.542  20.063  0.00  0.00    +0.000 NA
ATOM      5  C   UNL     1      -0.483  11.795  20.306  0.00  0.00    +0.000 A 
ATOM      6  N   UNL     1       0.436  12.674  19.692  0.00  0.00    +0.000 N 
ENDROOT
BRANCH   5   7
ATOM      7  C   UNL     1      -1.625  12.162  21.188  0.00  0.00    +0.000 A 
ATOM      8  C   UNL     1      -1.425  12.332  22.573  0.00  0.00    +0.000 A 
ATOM      9  C   UNL     1      -2.459  12.751  23.416  0.00  0.00    +0.000 A 
ATOM     10  C   UNL     1      -3.736  12.928  22.902  0.00  0.00    +0.000 A 
ATOM     11 CL   UNL     1      -5.011  13.436  23.940  0.00  0.00    +0.000 Cl
ATOM     12  C   UNL     1      -3.988  12.698  21.555  0.00  0.00    +0.000 A 
ATOM     13  C   UNL     1      -2.940  12.326  20.698  0.00  0.00    +0.000 A 
ATOM     14 CL   UNL     1      -3.356  12.135  19.029  0.00  0.00    +0.000 Cl
ENDBRANCH   5   7
BRANCH   6  15
ATOM     15  C   UNL     1       0.384  14.111  19.666  0.00  0.00    +0.000 A 
ATOM     16  C   UNL     1      -0.352  14.775  18.674  0.00  0.00    +0.000 A 
ATOM     17  C   UNL     1      -0.380  16.170  18.620  0.00  0.00    +0.000 A 
ATOM     18  C   UNL     1       0.353  16.916  19.540  0.00  0.00    +0.000 A 
ATOM     19 CL   UNL     1       0.351  18.631  19.443  0.00  0.00    +0.000 Cl
ATOM     20  C   UNL     1       1.095  16.272  20.525  0.00  0.00    +0.000 A 
ATOM     21  C   UNL     1       1.090  14.875  20.607  0.00  0.00    +0.000 A 
ENDBRANCH   6  15
BRANCH   3  22
ATOM     22  C   UNL     1       1.689   9.329  18.803  0.00  0.00    +0.000 A 
ATOM     23  N   UNL     1       2.031   9.157  17.540  0.00  0.00    +0.000 NA
ATOM     24  N   UNL     1       2.508   7.871  17.412  0.00  0.00    +0.000 NA
ATOM     25  C   UNL     1       2.435   7.338  18.609  0.00  0.00    +0.000 A 
ATOM     26  O   UNL     1       1.972   8.212  19.563  0.00  0.00    +0.000 OA
BRANCH  25  27
ATOM     27  C   UNL     1       2.693   5.934  19.014  0.00  0.00    +0.000 C 
BRANCH  27  28
ATOM     28  C   UNL     1       2.762   4.961  17.823  0.00  0.00    +0.000 C 
ATOM     29  C   UNL     1       3.948   3.996  17.916  0.00  0.00    +0.000 C 
ATOM     30  C   UNL     1       1.462   4.159  17.721  0.00  0.00    +0.000 C 
ENDBRANCH  27  28
ENDBRANCH  25  27
ENDBRANCH   3  22
TORSDOF 5
ENDMDL
MODEL 8
REMARK VINA RESULT:      -7.6      5.414      8.752
REMARK  Name = 
REMARK  8 active torsions:
REMARK  status: ('A' for Active; 'I' for Inactive)
REMARK    1  A    between atoms: C_1  and  C_2
REMARK    2  A    between atoms: C_3  and  C_4
REMARK    3  A    between atoms: C_7  and  C_8
REMARK    4  A    between atoms: C_8  and  C_9
REMARK    5  A    between atoms: C_9  and  C_10
REMARK    6  A    between atoms: C_9  and  C_11
REMARK    7  A    between atoms: C_14  and  C_15
REMARK    8  A    between atoms: N_23  and  C_24
REMARK                            x       y       z     vdW  Elec       q    Type
REMARK                         _______ _______ _______ _____ _____    ______ ____
ROOT
ATOM      1  C   UNL     1       1.778  12.029  20.090  0.00  0.00    +0.000 C 
ATOM      2  C   UNL     1       0.467  11.484  19.625  0.00  0.00    +0.000 A 
ATOM      3  C   UNL     1       0.140  10.197  19.248  0.00  0.00    +0.000 A 
ATOM      4  N   UNL     1      -1.144  10.150  18.760  0.00  0.00    +0.000 NA
ATOM      5  C   UNL     1      -1.636  11.374  18.829  0.00  0.00    +0.000 A 
ATOM      6  N   UNL     1      -0.657  12.262  19.328  0.00  0.00    +0.000 N 
ENDROOT
BRANCH   5   7
ATOM      7  C   UNL     1      -3.054  11.690  18.505  0.00  0.00    +0.000 A 
ATOM      8  C   UNL     1      -3.925  12.153  19.512  0.00  0.00    +0.000 A 
ATOM      9  C   UNL     1      -5.241  12.531  19.225  0.00  0.00    +0.000 A 
ATOM     10  C   UNL     1      -5.735  12.377  17.938  0.00  0.00    +0.000 A 
ATOM     11 CL   UNL     1      -7.356  12.834  17.585  0.00  0.00    +0.000 Cl
ATOM     12  C   UNL     1      -4.929  11.854  16.934  0.00  0.00    +0.000 A 
ATOM     13  C   UNL     1      -3.593  11.521  17.210  0.00  0.00    +0.000 A 
ATOM     14 CL   UNL     1      -2.662  10.945  15.868  0.00  0.00    +0.000 Cl
ENDBRANCH   5   7
BRANCH   6  15
ATOM     15  C   UNL     1      -0.775  13.685  19.493  0.00  0.00    +0.000 A 
ATOM     16  C   UNL     1      -1.421  14.217  20.619  0.00  0.00    +0.000 A 
ATOM     17  C   UNL     1      -1.570  15.598  20.770  0.00  0.00    +0.000 A 
ATOM     18  C   UNL     1      -1.100  16.459  19.782  0.00  0.00    +0.000 A 
ATOM     19 CL   UNL     1      -1.325  18.154  19.952  0.00  0.00    +0.000 Cl
ATOM     20  C   UNL     1      -0.464  15.947  18.655  0.00  0.00    +0.000 A 
ATOM     21  C   UNL     1      -0.276  14.567  18.522  0.00  0.00    +0.000 A 
ENDBRANCH   6  15
BRANCH   3  22
ATOM     22  C   UNL     1       1.054   9.003  19.276  0.00  0.00    +0.000 A 
ATOM     23  N   UNL     1       1.386   8.357  20.379  0.00  0.00    +0.000 NA
ATOM     24  N   UNL     1       2.321   7.406  20.035  0.00  0.00    +0.000 NA
ATOM     25  C   UNL     1       2.496   7.523  18.739  0.00  0.00    +0.000 A 
ATOM     26  O   UNL     1       1.692   8.481  18.170  0.00  0.00    +0.000 OA
BRANCH  25  27
ATOM     27  C   UNL     1       3.486   6.836  17.873  0.00  0.00    +0.000 C 
BRANCH  27  28
ATOM     28  C   UNL     1       3.440   5.303  17.998  0.00  0.00    +0.000 C 
ATOM     29  C   UNL     1       2.028   4.737  17.812  0.00  0.00    +0.000 C 
ATOM     30  C   UNL     1       4.383   4.660  16.977  0.00  0.00    +0.000 C 
ENDBRANCH  27  28
ENDBRANCH  25  27
ENDBRANCH   3  22
TORSDOF 5
ENDMDL
MODEL 9
REMARK VINA RESULT:      -7.6      5.092      8.521
REMARK  Name = 
REMARK  8 active torsions:
REMARK  status: ('A' for Active; 'I' for Inactive)
REMARK    1  A    between atoms: C_1  and  C_2
REMARK    2  A    between atoms: C_3  and  C_4
REMARK    3  A    between atoms: C_7  and  C_8
REMARK    4  A    between atoms: C_8  and  C_9
REMARK    5  A    between atoms: C_9  and  C_10
REMARK    6  A    between atoms: C_9  and  C_11
REMARK    7  A    between atoms: C_14  and  C_15
REMARK    8  A    between atoms: N_23  and  C_24
REMARK                            x       y       z     vdW  Elec       q    Type
REMARK                         _______ _______ _______ _____ _____    ______ ____
ROOT
ATOM      1  C   UNL     1       2.528  12.257  18.247  0.00  0.00    +0.000 C 
ATOM      2  C   UNL     1       1.415  11.750  19.105  0.00  0.00    +0.000 A 
ATOM      3  C   UNL     1       1.023  10.449  19.350  0.00  0.00    +0.000 A 
ATOM      4  N   UNL     1      -0.132  10.426  20.094  0.00  0.00    +0.000 NA
ATOM      5  C   UNL     1      -0.472  11.681  20.330  0.00  0.00    +0.000 A 
ATOM      6  N   UNL     1       0.441  12.557  19.702  0.00  0.00    +0.000 N 
ENDROOT
BRANCH   5   7
ATOM      7  C   UNL     1      -1.607  12.052  21.219  0.00  0.00    +0.000 A 
ATOM      8  C   UNL     1      -1.416  12.145  22.612  0.00  0.00    +0.000 A 
ATOM      9  C   UNL     1      -2.442  12.566  23.465  0.00  0.00    +0.000 A 
ATOM     10  C   UNL     1      -3.703  12.823  22.949  0.00  0.00    +0.000 A 
ATOM     11 CL   UNL     1      -4.968  13.333  23.998  0.00  0.00    +0.000 Cl
ATOM     12  C   UNL     1      -3.950  12.671  21.590  0.00  0.00    +0.000 A 
ATOM     13  C   UNL     1      -2.908  12.297  20.725  0.00  0.00    +0.000 A 
ATOM     14 CL   UNL     1      -3.313  12.207  19.044  0.00  0.00    +0.000 Cl
ENDBRANCH   5   7
BRANCH   6  15
ATOM     15  C   UNL     1       0.385  13.993  19.665  0.00  0.00    +0.000 A 
ATOM     16  C   UNL     1       1.010  14.752  20.666  0.00  0.00    +0.000 A 
ATOM     17  C   UNL     1       0.932  16.147  20.657  0.00  0.00    +0.000 A 
ATOM     18  C   UNL     1       0.203  16.795  19.663  0.00  0.00    +0.000 A 
ATOM     19 CL   UNL     1       0.074  18.508  19.681  0.00  0.00    +0.000 Cl
ATOM     20  C   UNL     1      -0.429  16.056  18.668  0.00  0.00    +0.000 A 
ATOM     21  C   UNL     1      -0.316  14.662  18.651  0.00  0.00    +0.000 A 
ENDBRANCH   6  15
BRANCH   3  22
ATOM     22  C   UNL     1       1.693   9.207  18.829  0.00  0.00    +0.000 A 
ATOM     23  N   UNL     1       1.964   8.997  17.554  0.00  0.00    +0.000 NA
ATOM     24  N   UNL     1       2.463   7.718  17.443  0.00  0.00    +0.000 NA
ATOM     25  C   UNL     1       2.474   7.228  18.660  0.00  0.00    +0.000 A 
ATOM     26  O   UNL     1       2.048   8.126  19.609  0.00  0.00    +0.000 OA
BRANCH  25  27
ATOM     27  C   UNL     1       2.791   5.845  19.098  0.00  0.00    +0.000 C 
BRANCH  27  28
ATOM     28  C   UNL     1       1.833   4.790  18.517  0.00  0.00    +0.000 C 
ATOM     29  C   UNL     1       2.524   3.843  17.531  0.00  0.00    +0.000 C 
ATOM     30  C   UNL     1       1.199   3.973  19.646  0.00  0.00    +0.000 C 
ENDBRANCH  27  28
ENDBRANCH  25  27
ENDBRANCH   3  22
TORSDOF 5
ENDMDL
