MODEL 1
REMARK VINA RESULT:      -7.8      0.000      0.000
REMARK  Name = 
REMARK  9 active torsions:
REMARK  status: ('A' for Active; 'I' for Inactive)
REMARK    1  A    between atoms: C_1  and  C_2
REMARK    2  A    between atoms: C_2  and  C_3
REMARK    3  A    between atoms: C_2  and  C_4
REMARK    4  A    between atoms: C_7  and  N_8
REMARK    5  A    between atoms: N_8  and  C_9
REMARK    6  A    between atoms: N_8  and  S_13
REMARK    7  A    between atoms: C_9  and  C_10
REMARK    8  A    between atoms: C_10  and  O_12
REMARK    9  A    between atoms: S_13  and  C_16
REMARK                            x       y       z     vdW  Elec       q    Type
REMARK                         _______ _______ _______ _____ _____    ______ ____
ROOT
ATOM      1  N   UNL     1       3.279   4.661  18.744  0.00  0.00    +0.000 N 
ENDROOT
BRANCH   1   5
ATOM      2  C   UNL     1       1.791   8.628  19.137  0.00  0.00    +0.000 A 
ATOM      3  C   UNL     1       2.407   8.209  17.947  0.00  0.00    +0.000 A 
ATOM      4  C   UNL     1       2.909   6.914  17.799  0.00  0.00    +0.000 A 
ATOM      5  C   UNL     1       2.799   6.013  18.851  0.00  0.00    +0.000 A 
ATOM      6  C   UNL     1       2.237   6.426  20.065  0.00  0.00    +0.000 A 
ATOM      7  C   UNL     1       1.721   7.723  20.202  0.00  0.00    +0.000 A 
BRANCH   2   9
ATOM      8  C   UNL     1      -0.057  10.012  18.214  0.00  0.00    +0.000 C 
ATOM      9  C   UNL     1       1.142  10.006  19.165  0.00  0.00    +0.000 C 
ATOM     10  C   UNL     1       0.729  10.518  20.548  0.00  0.00    +0.000 C 
ENDBRANCH   2   9
ENDBRANCH   1   5
BRANCH   1  11
ATOM     11  S   UNL     1       4.994   4.483  18.897  0.00  0.00    +0.000 S 
ATOM     12  O   UNL     1       5.503   5.562  19.717  0.00  0.00    +0.000 OA
ATOM     13  O   UNL     1       5.237   3.103  19.274  0.00  0.00    +0.000 OA
BRANCH  11  14
ATOM     14  C   UNL     1       5.666   4.682  17.269  0.00  0.00    +0.000 A 
ATOM     15  C   UNL     1       5.375   3.776  16.246  0.00  0.00    +0.000 A 
ATOM     16  C   UNL     1       6.025   3.894  15.020  0.00  0.00    +0.000 A 
ATOM     17  C   UNL     1       6.959   4.907  14.865  0.00  0.00    +0.000 A 
ATOM     18  N   UNL     1       7.267   5.787  15.844  0.00  0.00    +0.000 NA
ATOM     19  C   UNL     1       6.633   5.645  17.036  0.00  0.00    +0.000 A 
ENDBRANCH  11  14
ENDBRANCH   1  11
BRANCH   1  20
ATOM     20  C   UNL     1       2.682   3.745  17.729  0.00  0.00    +0.000 C 
BRANCH  20  21
ATOM     21  C   UNL     1       1.994   2.481  18.186  0.00  0.00    +0.000 C 
ATOM     22  O   UNL     1       0.783   2.403  18.345  0.00  0.00    +0.000 OA
BRANCH  21  23
ATOM     23  O   UNL     1       2.804   1.409  18.328  0.00  0.00    +0.000 OA
ATOM     24  H   UNL     1       2.460   0.616  17.868  0.00  0.00    +0.000 HD
ENDBRANCH  21  23
ENDBRANCH  20  21
ENDBRANCH   1  20
TORSDOF 7
ENDMDL
MODEL 2
REMARK VINA RESULT:      -7.5      0.732      1.255
REMARK  Name = 
REMARK  9 active torsions:
REMARK  status: ('A' for Active; 'I' for Inactive)
REMARK    1  A    between atoms: C_1  and  C_2
REMARK    2  A    between atoms: C_2  and  C_3
REMARK    3  A    between atoms: C_2  and  C_4
REMARK    4  A    between atoms: C_7  and  N_8
REMARK    5  A    between atoms: N_8  and  C_9
REMARK    6  A    between atoms: N_8  and  S_13
REMARK    7  A    between atoms: C_9  and  C_10
REMARK    8  A    between atoms: C_10  and  O_12
REMARK    9  A    between atoms: S_13  and  C_16
REMARK                            x       y       z     vdW  Elec       q    Type
REMARK                         _______ _______ _______ _____ _____    ______ ____
ROOT
ATOM      1  N   UNL     1       2.974   4.663  18.955  0.00  0.00    +0.000 N 
ENDROOT
BRANCH   1   5
ATOM      2  C   UNL     1       1.460   8.538  19.850  0.00  0.00    +0.000 A 
ATOM      3  C   UNL     1       1.425   7.515  20.812  0.00  0.00    +0.000 A 
ATOM      4  C   UNL     1       1.910   6.235  20.537  0.00  0.00    +0.000 A 
ATOM      5  C   UNL     1       2.441   5.958  19.283  0.00  0.00    +0.000 A 
ATOM      6  C   UNL     1       2.437   6.948  18.292  0.00  0.00    +0.000 A 
ATOM      7  C   UNL     1       1.962   8.236  18.580  0.00  0.00    +0.000 A 
BRANCH   2   9
ATOM      8  C   UNL     1       0.125  10.535  19.207  0.00  0.00    +0.000 C 
ATOM      9  C   UNL     1       1.047   9.941  20.276  0.00  0.00    +0.000 C 
ATOM     10  C   UNL     1       0.402  10.053  21.660  0.00  0.00    +0.000 C 
ENDBRANCH   2   9
ENDBRANCH   1   5
BRANCH   1  11
ATOM     11  S   UNL     1       4.702   4.577  18.912  0.00  0.00    +0.000 S 
ATOM     12  O   UNL     1       5.244   5.709  19.633  0.00  0.00    +0.000 OA
ATOM     13  O   UNL     1       5.062   3.226  19.299  0.00  0.00    +0.000 OA
BRANCH  11  14
ATOM     14  C   UNL     1       5.171   4.750  17.211  0.00  0.00    +0.000 A 
ATOM     15  C   UNL     1       5.533   3.643  16.440  0.00  0.00    +0.000 A 
ATOM     16  C   UNL     1       6.019   3.835  15.149  0.00  0.00    +0.000 A 
ATOM     17  C   UNL     1       6.141   5.134  14.679  0.00  0.00    +0.000 A 
ATOM     18  N   UNL     1       5.810   6.221  15.411  0.00  0.00    +0.000 NA
ATOM     19  C   UNL     1       5.352   6.012  16.671  0.00  0.00    +0.000 A 
ENDBRANCH  11  14
ENDBRANCH   1  11
BRANCH   1  20
ATOM     20  C   UNL     1       2.319   3.844  17.896  0.00  0.00    +0.000 C 
BRANCH  20  21
ATOM     21  C   UNL     1       1.791   2.471  18.241  0.00  0.00    +0.000 C 
ATOM     22  O   UNL     1       0.604   2.245  18.436  0.00  0.00    +0.000 OA
BRANCH  21  23
ATOM     23  O   UNL     1       2.716   1.486  18.238  0.00  0.00    +0.000 OA
ATOM     24  H   UNL     1       3.293   1.512  19.029  0.00  0.00    +0.000 HD
ENDBRANCH  21  23
ENDBRANCH  20  21
ENDBRANCH   1  20
TORSDOF 7
ENDMDL
MODEL 3
REMARK VINA RESULT:      -7.4      0.914      1.112
REMARK  Name = 
REMARK  9 active torsions:
REMARK  status: ('A' for Active; 'I' for Inactive)
REMARK    1  A    between atoms: C_1  and  C_2
REMARK    2  A    between atoms: C_2  and  C_3
REMARK    3  A    between atoms: C_2  and  C_4
REMARK    4  A    between atoms: C_7  and  N_8
REMARK    5  A    between atoms: N_8  and  C_9
REMARK    6  A    between atoms: N_8  and  S_13
REMARK    7  A    between atoms: C_9  and  C_10
REMARK    8  A    between atoms: C_10  and  O_12
REMARK    9  A    between atoms: S_13  and  C_16
REMARK                            x       y       z     vdW  Elec       q    Type
REMARK                         _______ _______ _______ _____ _____    ______ ____
ROOT
ATOM      1  N   UNL     1       3.017   4.669  18.951  0.00  0.00    +0.000 N 
ENDROOT
BRANCH   1   5
ATOM      2  C   UNL     1       1.465   8.539  19.803  0.00  0.00    +0.000 A 
ATOM      3  C   UNL     1       2.041   8.256  18.553  0.00  0.00    +0.000 A 
ATOM      4  C   UNL     1       2.563   6.996  18.256  0.00  0.00    +0.000 A 
ATOM      5  C   UNL     1       2.514   5.991  19.214  0.00  0.00    +0.000 A 
ATOM      6  C   UNL     1       1.994   6.266  20.485  0.00  0.00    +0.000 A 
ATOM      7  C   UNL     1       1.458   7.530  20.772  0.00  0.00    +0.000 A 
BRANCH   2   9
ATOM      8  C   UNL     1       0.001  10.239  18.730  0.00  0.00    +0.000 C 
ATOM      9  C   UNL     1       0.791   9.890  19.995  0.00  0.00    +0.000 C 
ATOM     10  C   UNL     1      -0.101  10.018  21.233  0.00  0.00    +0.000 C 
ENDBRANCH   2   9
ENDBRANCH   1   5
BRANCH   1  11
ATOM     11  S   UNL     1       4.742   4.530  18.964  0.00  0.00    +0.000 S 
ATOM     12  O   UNL     1       5.294   5.639  19.714  0.00  0.00    +0.000 OA
ATOM     13  O   UNL     1       5.048   3.165  19.348  0.00  0.00    +0.000 OA
BRANCH  11  14
ATOM     14  C   UNL     1       5.271   4.705  17.280  0.00  0.00    +0.000 A 
ATOM     15  C   UNL     1       5.146   5.919  16.601  0.00  0.00    +0.000 A 
ATOM     16  C   UNL     1       5.451   5.980  15.244  0.00  0.00    +0.000 A 
ATOM     17  C   UNL     1       5.856   4.817  14.607  0.00  0.00    +0.000 A 
ATOM     18  N   UNL     1       5.971   3.627  15.240  0.00  0.00    +0.000 NA
ATOM     19  C   UNL     1       5.655   3.587  16.559  0.00  0.00    +0.000 A 
ENDBRANCH  11  14
ENDBRANCH   1  11
BRANCH   1  20
ATOM     20  C   UNL     1       2.368   3.828  17.905  0.00  0.00    +0.000 C 
BRANCH  20  21
ATOM     21  C   UNL     1       1.800   2.480  18.285  0.00  0.00    +0.000 C 
ATOM     22  O   UNL     1       0.602   2.283  18.439  0.00  0.00    +0.000 OA
BRANCH  21  23
ATOM     23  O   UNL     1       2.705   1.480  18.361  0.00  0.00    +0.000 OA
ATOM     24  H   UNL     1       2.317   0.607  18.149  0.00  0.00    +0.000 HD
ENDBRANCH  21  23
ENDBRANCH  20  21
ENDBRANCH   1  20
TORSDOF 7
ENDMDL
MODEL 4
REMARK VINA RESULT:      -7.4      1.995      4.367
REMARK  Name = 
REMARK  9 active torsions:
REMARK  status: ('A' for Active; 'I' for Inactive)
REMARK    1  A    between atoms: C_1  and  C_2
REMARK    2  A    between atoms: C_2  and  C_3
REMARK    3  A    between atoms: C_2  and  C_4
REMARK    4  A    between atoms: C_7  and  N_8
REMARK    5  A    between atoms: N_8  and  C_9
REMARK    6  A    between atoms: N_8  and  S_13
REMARK    7  A    between atoms: C_9  and  C_10
REMARK    8  A    between atoms: C_10  and  O_12
REMARK    9  A    between atoms: S_13  and  C_16
REMARK                            x       y       z     vdW  Elec       q    Type
REMARK                         _______ _______ _______ _____ _____    ______ ____
ROOT
ATOM      1  N   UNL     1       4.186   4.960  18.054  0.00  0.00    +0.000 N 
ENDROOT
BRANCH   1   5
ATOM      2  C   UNL     1       1.925   8.423  19.061  0.00  0.00    +0.000 A 
ATOM      3  C   UNL     1       2.563   8.320  17.813  0.00  0.00    +0.000 A 
ATOM      4  C   UNL     1       3.316   7.197  17.466  0.00  0.00    +0.000 A 
ATOM      5  C   UNL     1       3.441   6.149  18.370  0.00  0.00    +0.000 A 
ATOM      6  C   UNL     1       2.858   6.254  19.640  0.00  0.00    +0.000 A 
ATOM      7  C   UNL     1       2.091   7.379  19.977  0.00  0.00    +0.000 A 
BRANCH   2   9
ATOM      8  C   UNL     1       0.151   9.845  18.056  0.00  0.00    +0.000 C 
ATOM      9  C   UNL     1       1.007   9.612  19.304  0.00  0.00    +0.000 C 
ATOM     10  C   UNL     1       0.122   9.525  20.550  0.00  0.00    +0.000 C 
ENDBRANCH   2   9
ENDBRANCH   1   5
BRANCH   1  11
ATOM     11  S   UNL     1       3.224   3.543  17.805  0.00  0.00    +0.000 S 
ATOM     12  O   UNL     1       2.091   3.890  16.971  0.00  0.00    +0.000 OA
ATOM     13  O   UNL     1       4.132   2.488  17.399  0.00  0.00    +0.000 OA
BRANCH  11  14
ATOM     14  C   UNL     1       2.596   3.077  19.396  0.00  0.00    +0.000 A 
ATOM     15  C   UNL     1       1.255   3.274  19.735  0.00  0.00    +0.000 A 
ATOM     16  C   UNL     1       0.832   3.016  21.036  0.00  0.00    +0.000 A 
ATOM     17  C   UNL     1       1.771   2.584  21.961  0.00  0.00    +0.000 A 
ATOM     18  N   UNL     1       3.076   2.399  21.660  0.00  0.00    +0.000 NA
ATOM     19  C   UNL     1       3.470   2.670  20.390  0.00  0.00    +0.000 A 
ENDBRANCH  11  14
ENDBRANCH   1  11
BRANCH   1  20
ATOM     20  C   UNL     1       5.467   4.682  18.765  0.00  0.00    +0.000 C 
BRANCH  20  21
ATOM     21  C   UNL     1       6.740   4.532  17.967  0.00  0.00    +0.000 C 
ATOM     22  O   UNL     1       7.851   4.726  18.444  0.00  0.00    +0.000 OA
BRANCH  21  23
ATOM     23  O   UNL     1       6.573   4.085  16.703  0.00  0.00    +0.000 OA
ATOM     24  H   UNL     1       5.928   3.351  16.648  0.00  0.00    +0.000 HD
ENDBRANCH  21  23
ENDBRANCH  20  21
ENDBRANCH   1  20
TORSDOF 7
ENDMDL
MODEL 5
REMARK VINA RESULT:      -7.4      2.138      4.369
REMARK  Name = 
REMARK  9 active torsions:
REMARK  status: ('A' for Active; 'I' for Inactive)
REMARK    1  A    between atoms: C_1  and  C_2
REMARK    2  A    between atoms: C_2  and  C_3
REMARK    3  A    between atoms: C_2  and  C_4
REMARK    4  A    between atoms: C_7  and  N_8
REMARK    5  A    between atoms: N_8  and  C_9
REMARK    6  A    between atoms: N_8  and  S_13
REMARK    7  A    between atoms: C_9  and  C_10
REMARK    8  A    between atoms: C_10  and  O_12
REMARK    9  A    between atoms: S_13  and  C_16
REMARK                            x       y       z     vdW  Elec       q    Type
REMARK                         _______ _______ _______ _____ _____    ______ ____
ROOT
ATOM      1  N   UNL     1       3.690   5.822  18.360  0.00  0.00    +0.000 N 
ENDROOT
BRANCH   1   5
ATOM      2  C   UNL     1       1.264   9.241  19.096  0.00  0.00    +0.000 A 
ATOM      3  C   UNL     1       1.920   9.078  17.864  0.00  0.00    +0.000 A 
ATOM      4  C   UNL     1       2.727   7.968  17.605  0.00  0.00    +0.000 A 
ATOM      5  C   UNL     1       2.889   6.996  18.583  0.00  0.00    +0.000 A 
ATOM      6  C   UNL     1       2.288   7.164  19.837  0.00  0.00    +0.000 A 
ATOM      7  C   UNL     1       1.467   8.274  20.086  0.00  0.00    +0.000 A 
BRANCH   2   9
ATOM      8  C   UNL     1       1.047  11.717  19.038  0.00  0.00    +0.000 C 
ATOM      9  C   UNL     1       0.291  10.401  19.245  0.00  0.00    +0.000 C 
ATOM     10  C   UNL     1      -0.948  10.351  18.346  0.00  0.00    +0.000 C 
ENDBRANCH   2   9
ENDBRANCH   1   5
BRANCH   1  11
ATOM     11  S   UNL     1       2.797   4.399  17.943  0.00  0.00    +0.000 S 
ATOM     12  O   UNL     1       1.506   4.795  17.419  0.00  0.00    +0.000 OA
ATOM     13  O   UNL     1       3.682   3.569  17.150  0.00  0.00    +0.000 OA
BRANCH  11  14
ATOM     14  C   UNL     1       2.515   3.523  19.459  0.00  0.00    +0.000 A 
ATOM     15  C   UNL     1       1.305   3.635  20.149  0.00  0.00    +0.000 A 
ATOM     16  C   UNL     1       1.171   3.035  21.398  0.00  0.00    +0.000 A 
ATOM     17  C   UNL     1       2.261   2.357  21.924  0.00  0.00    +0.000 A 
ATOM     18  N   UNL     1       3.445   2.248  21.281  0.00  0.00    +0.000 NA
ATOM     19  C   UNL     1       3.559   2.851  20.071  0.00  0.00    +0.000 A 
ENDBRANCH  11  14
ENDBRANCH   1  11
BRANCH   1  20
ATOM     20  C   UNL     1       4.855   5.545  19.248  0.00  0.00    +0.000 C 
BRANCH  20  21
ATOM     21  C   UNL     1       6.212   5.295  18.635  0.00  0.00    +0.000 C 
ATOM     22  O   UNL     1       7.057   6.173  18.512  0.00  0.00    +0.000 OA
BRANCH  21  23
ATOM     23  O   UNL     1       6.463   4.010  18.305  0.00  0.00    +0.000 OA
ATOM     24  H   UNL     1       5.645   3.478  18.223  0.00  0.00    +0.000 HD
ENDBRANCH  21  23
ENDBRANCH  20  21
ENDBRANCH   1  20
TORSDOF 7
ENDMDL
MODEL 6
REMARK VINA RESULT:      -7.2      0.920      1.527
REMARK  Name = 
REMARK  9 active torsions:
REMARK  status: ('A' for Active; 'I' for Inactive)
REMARK    1  A    between atoms: C_1  and  C_2
REMARK    2  A    between atoms: C_2  and  C_3
REMARK    3  A    between atoms: C_2  and  C_4
REMARK    4  A    between atoms: C_7  and  N_8
REMARK    5  A    between atoms: N_8  and  C_9
REMARK    6  A    between atoms: N_8  and  S_13
REMARK    7  A    between atoms: C_9  and  C_10
REMARK    8  A    between atoms: C_10  and  O_12
REMARK    9  A    between atoms: S_13  and  C_16
REMARK                            x       y       z     vdW  Elec       q    Type
REMARK                         _______ _______ _______ _____ _____    ______ ____
ROOT
ATOM      1  N   UNL     1       3.015   4.659  18.979  0.00  0.00    +0.000 N 
ENDROOT
BRANCH   1   5
ATOM      2  C   UNL     1       1.496   8.574  19.670  0.00  0.00    +0.000 A 
ATOM      3  C   UNL     1       1.478   7.608  20.690  0.00  0.00    +0.000 A 
ATOM      4  C   UNL     1       1.964   6.315  20.482  0.00  0.00    +0.000 A 
ATOM      5  C   UNL     1       2.481   5.969  19.240  0.00  0.00    +0.000 A 
ATOM      6  C   UNL     1       2.459   6.900  18.193  0.00  0.00    +0.000 A 
ATOM      7  C   UNL     1       1.983   8.201  18.413  0.00  0.00    +0.000 A 
BRANCH   2   9
ATOM      8  C   UNL     1       1.218  10.876  18.774  0.00  0.00    +0.000 C 
ATOM      9  C   UNL     1       1.083   9.997  20.020  0.00  0.00    +0.000 C 
ATOM     10  C   UNL     1      -0.312  10.152  20.634  0.00  0.00    +0.000 C 
ENDBRANCH   2   9
ENDBRANCH   1   5
BRANCH   1  11
ATOM     11  S   UNL     1       4.743   4.562  18.988  0.00  0.00    +0.000 S 
ATOM     12  O   UNL     1       5.270   5.695  19.721  0.00  0.00    +0.000 OA
ATOM     13  O   UNL     1       5.083   3.211  19.389  0.00  0.00    +0.000 OA
BRANCH  11  14
ATOM     14  C   UNL     1       5.263   4.727  17.300  0.00  0.00    +0.000 A 
ATOM     15  C   UNL     1       5.143   5.941  16.618  0.00  0.00    +0.000 A 
ATOM     16  C   UNL     1       5.440   5.995  15.259  0.00  0.00    +0.000 A 
ATOM     17  C   UNL     1       5.832   4.826  14.623  0.00  0.00    +0.000 A 
ATOM     18  N   UNL     1       5.942   3.638  15.259  0.00  0.00    +0.000 NA
ATOM     19  C   UNL     1       5.634   3.604  16.581  0.00  0.00    +0.000 A 
ENDBRANCH  11  14
ENDBRANCH   1  11
BRANCH   1  20
ATOM     20  C   UNL     1       2.385   3.800  17.937  0.00  0.00    +0.000 C 
BRANCH  20  21
ATOM     21  C   UNL     1       1.871   2.431  18.316  0.00  0.00    +0.000 C 
ATOM     22  O   UNL     1       0.698   2.213  18.588  0.00  0.00    +0.000 OA
BRANCH  21  23
ATOM     23  O   UNL     1       2.786   1.440  18.251  0.00  0.00    +0.000 OA
ATOM     24  H   UNL     1       3.702   1.767  18.364  0.00  0.00    +0.000 HD
ENDBRANCH  21  23
ENDBRANCH  20  21
ENDBRANCH   1  20
TORSDOF 7
ENDMDL
MODEL 7
REMARK VINA RESULT:      -7.2      2.018      4.395
REMARK  Name = 
REMARK  9 active torsions:
REMARK  status: ('A' for Active; 'I' for Inactive)
REMARK    1  A    between atoms: C_1  and  C_2
REMARK    2  A    between atoms: C_2  and  C_3
REMARK    3  A    between atoms: C_2  and  C_4
REMARK    4  A    between atoms: C_7  and  N_8
REMARK    5  A    between atoms: N_8  and  C_9
REMARK    6  A    between atoms: N_8  and  S_13
REMARK    7  A    between atoms: C_9  and  C_10
REMARK    8  A    between atoms: C_10  and  O_12
REMARK    9  A    between atoms: S_13  and  C_16
REMARK                            x       y       z     vdW  Elec       q    Type
REMARK                         _______ _______ _______ _____ _____    ______ ____
ROOT
ATOM      1  N   UNL     1       3.636   5.553  18.038  0.00  0.00    +0.000 N 
ENDROOT
BRANCH   1   5
ATOM      2  C   UNL     1       1.425   8.971  19.281  0.00  0.00    +0.000 A 
ATOM      3  C   UNL     1       1.670   7.913  20.172  0.00  0.00    +0.000 A 
ATOM      4  C   UNL     1       2.386   6.779  19.783  0.00  0.00    +0.000 A 
ATOM      5  C   UNL     1       2.873   6.688  18.484  0.00  0.00    +0.000 A 
ATOM      6  C   UNL     1       2.594   7.707  17.564  0.00  0.00    +0.000 A 
ATOM      7  C   UNL     1       1.886   8.850  17.966  0.00  0.00    +0.000 A 
BRANCH   2   9
ATOM      8  C   UNL     1      -0.032  10.900  18.700  0.00  0.00    +0.000 C 
ATOM      9  C   UNL     1       0.764  10.230  19.824  0.00  0.00    +0.000 C 
ATOM     10  C   UNL     1      -0.118  10.038  21.061  0.00  0.00    +0.000 C 
ENDBRANCH   2   9
ENDBRANCH   1   5
BRANCH   1  11
ATOM     11  S   UNL     1       2.711   4.115  17.769  0.00  0.00    +0.000 S 
ATOM     12  O   UNL     1       1.403   4.487  17.272  0.00  0.00    +0.000 OA
ATOM     13  O   UNL     1       3.553   3.215  17.004  0.00  0.00    +0.000 OA
BRANCH  11  14
ATOM     14  C   UNL     1       2.487   3.359  19.357  0.00  0.00    +0.000 A 
ATOM     15  C   UNL     1       1.263   3.425  20.027  0.00  0.00    +0.000 A 
ATOM     16  C   UNL     1       1.165   2.932  21.326  0.00  0.00    +0.000 A 
ATOM     17  C   UNL     1       2.303   2.404  21.917  0.00  0.00    +0.000 A 
ATOM     18  N   UNL     1       3.501   2.342  21.294  0.00  0.00    +0.000 NA
ATOM     19  C   UNL     1       3.578   2.841  20.034  0.00  0.00    +0.000 A 
ENDBRANCH  11  14
ENDBRANCH   1  11
BRANCH   1  20
ATOM     20  C   UNL     1       4.976   5.286  18.634  0.00  0.00    +0.000 C 
BRANCH  20  21
ATOM     21  C   UNL     1       6.174   5.135  17.726  0.00  0.00    +0.000 C 
ATOM     22  O   UNL     1       6.338   5.818  16.723  0.00  0.00    +0.000 OA
BRANCH  21  23
ATOM     23  O   UNL     1       7.100   4.246  18.145  0.00  0.00    +0.000 OA
ATOM     24  H   UNL     1       7.588   3.835  17.402  0.00  0.00    +0.000 HD
ENDBRANCH  21  23
ENDBRANCH  20  21
ENDBRANCH   1  20
TORSDOF 7
ENDMDL
MODEL 8
REMARK VINA RESULT:      -7.1      0.670      1.377
REMARK  Name = 
REMARK  9 active torsions:
REMARK  status: ('A' for Active; 'I' for Inactive)
REMARK    1  A    between atoms: C_1  and  C_2
REMARK    2  A    between atoms: C_2  and  C_3
REMARK    3  A    between atoms: C_2  and  C_4
REMARK    4  A    between atoms: C_7  and  N_8
REMARK    5  A    between atoms: N_8  and  C_9
REMARK    6  A    between atoms: N_8  and  S_13
REMARK    7  A    between atoms: C_9  and  C_10
REMARK    8  A    between atoms: C_10  and  O_12
REMARK    9  A    between atoms: S_13  and  C_16
REMARK                            x       y       z     vdW  Elec       q    Type
REMARK                         _______ _______ _______ _____ _____    ______ ____
ROOT
ATOM      1  N   UNL     1       3.376   4.524  18.836  0.00  0.00    +0.000 N 
ENDROOT
BRANCH   1   5
ATOM      2  C   UNL     1       1.665   8.381  19.398  0.00  0.00    +0.000 A 
ATOM      3  C   UNL     1       1.625   7.422  20.424  0.00  0.00    +0.000 A 
ATOM      4  C   UNL     1       2.173   6.149  20.258  0.00  0.00    +0.000 A 
ATOM      5  C   UNL     1       2.776   5.814  19.052  0.00  0.00    +0.000 A 
ATOM      6  C   UNL     1       2.780   6.736  17.997  0.00  0.00    +0.000 A 
ATOM      7  C   UNL     1       2.240   8.018  18.175  0.00  0.00    +0.000 A 
BRANCH   2   9
ATOM      8  C   UNL     1       1.416  10.681  18.487  0.00  0.00    +0.000 C 
ATOM      9  C   UNL     1       1.176   9.788  19.708  0.00  0.00    +0.000 C 
ATOM     10  C   UNL     1      -0.278   9.899  20.173  0.00  0.00    +0.000 C 
ENDBRANCH   2   9
ENDBRANCH   1   5
BRANCH   1  11
ATOM     11  S   UNL     1       5.099   4.487  18.994  0.00  0.00    +0.000 S 
ATOM     12  O   UNL     1       5.527   5.667  19.717  0.00  0.00    +0.000 OA
ATOM     13  O   UNL     1       5.445   3.166  19.483  0.00  0.00    +0.000 OA
BRANCH  11  14
ATOM     14  C   UNL     1       5.755   4.599  17.350  0.00  0.00    +0.000 A 
ATOM     15  C   UNL     1       4.938   4.437  16.229  0.00  0.00    +0.000 A 
ATOM     16  C   UNL     1       5.513   4.402  14.961  0.00  0.00    +0.000 A 
ATOM     17  C   UNL     1       6.891   4.515  14.860  0.00  0.00    +0.000 A 
ATOM     18  N   UNL     1       7.704   4.658  15.931  0.00  0.00    +0.000 NA
ATOM     19  C   UNL     1       7.124   4.675  17.158  0.00  0.00    +0.000 A 
ENDBRANCH  11  14
ENDBRANCH   1  11
BRANCH   1  20
ATOM     20  C   UNL     1       2.868   3.649  17.742  0.00  0.00    +0.000 C 
BRANCH  20  21
ATOM     21  C   UNL     1       2.491   2.219  18.051  0.00  0.00    +0.000 C 
ATOM     22  O   UNL     1       3.320   1.338  18.235  0.00  0.00    +0.000 OA
BRANCH  21  23
ATOM     23  O   UNL     1       1.167   1.995  18.194  0.00  0.00    +0.000 OA
ATOM     24  H   UNL     1       0.643   2.357  17.450  0.00  0.00    +0.000 HD
ENDBRANCH  21  23
ENDBRANCH  20  21
ENDBRANCH   1  20
TORSDOF 7
ENDMDL
MODEL 9
REMARK VINA RESULT:      -7.1      1.852      2.404
REMARK  Name = 
REMARK  9 active torsions:
REMARK  status: ('A' for Active; 'I' for Inactive)
REMARK    1  A    between atoms: C_1  and  C_2
REMARK    2  A    between atoms: C_2  and  C_3
REMARK    3  A    between atoms: C_2  and  C_4
REMARK    4  A    between atoms: C_7  and  N_8
REMARK    5  A    between atoms: N_8  and  C_9
REMARK    6  A    between atoms: N_8  and  S_13
REMARK    7  A    between atoms: C_9  and  C_10
REMARK    8  A    between atoms: C_10  and  O_12
REMARK    9  A    between atoms: S_13  and  C_16
REMARK                            x       y       z     vdW  Elec       q    Type
REMARK                         _______ _______ _______ _____ _____    ______ ____
ROOT
ATOM      1  N   UNL     1       2.523   3.906  19.413  0.00  0.00    +0.000 N 
ENDROOT
BRANCH   1   5
ATOM      2  C   UNL     1       1.802   8.100  19.342  0.00  0.00    +0.000 A 
ATOM      3  C   UNL     1       2.266   7.433  18.197  0.00  0.00    +0.000 A 
ATOM      4  C   UNL     1       2.517   6.059  18.200  0.00  0.00    +0.000 A 
ATOM      5  C   UNL     1       2.303   5.327  19.361  0.00  0.00    +0.000 A 
ATOM      6  C   UNL     1       1.892   5.981  20.530  0.00  0.00    +0.000 A 
ATOM      7  C   UNL     1       1.629   7.358  20.516  0.00  0.00    +0.000 A 
BRANCH   2   9
ATOM      8  C   UNL     1       0.582   9.755  17.944  0.00  0.00    +0.000 C 
ATOM      9  C   UNL     1       1.417   9.567  19.214  0.00  0.00    +0.000 C 
ATOM     10  C   UNL     1       0.695  10.173  20.421  0.00  0.00    +0.000 C 
ENDBRANCH   2   9
ENDBRANCH   1   5
BRANCH   1  11
ATOM     11  S   UNL     1       3.069   3.200  17.930  0.00  0.00    +0.000 S 
ATOM     12  O   UNL     1       3.217   1.772  18.120  0.00  0.00    +0.000 OA
ATOM     13  O   UNL     1       2.205   3.710  16.883  0.00  0.00    +0.000 OA
BRANCH  11  14
ATOM     14  C   UNL     1       4.680   3.870  17.619  0.00  0.00    +0.000 A 
ATOM     15  C   UNL     1       5.176   3.999  16.319  0.00  0.00    +0.000 A 
ATOM     16  C   UNL     1       6.493   4.407  16.124  0.00  0.00    +0.000 A 
ATOM     17  C   UNL     1       7.276   4.657  17.241  0.00  0.00    +0.000 A 
ATOM     18  N   UNL     1       6.824   4.526  18.508  0.00  0.00    +0.000 NA
ATOM     19  C   UNL     1       5.542   4.113  18.675  0.00  0.00    +0.000 A 
ENDBRANCH  11  14
ENDBRANCH   1  11
BRANCH   1  20
ATOM     20  C   UNL     1       1.568   3.039  20.160  0.00  0.00    +0.000 C 
BRANCH  20  21
ATOM     21  C   UNL     1       1.926   2.568  21.550  0.00  0.00    +0.000 C 
ATOM     22  O   UNL     1       3.078   2.344  21.900  0.00  0.00    +0.000 OA
BRANCH  21  23
ATOM     23  O   UNL     1       0.889   2.492  22.412  0.00  0.00    +0.000 OA
ATOM     24  H   UNL     1       0.377   1.664  22.309  0.00  0.00    +0.000 HD
ENDBRANCH  21  23
ENDBRANCH  20  21
ENDBRANCH   1  20
TORSDOF 7
ENDMDL
