MODEL 1
REMARK VINA RESULT:      -9.0      0.000      0.000
REMARK  Name = 
REMARK  5 active torsions:
REMARK  status: ('A' for Active; 'I' for Inactive)
REMARK    1  A    between atoms: C_1  and  O_2
REMARK    2  A    between atoms: O_2  and  C_3
REMARK    3  A    between atoms: C_14  and  O_15
REMARK    4  A    between atoms: O_15  and  C_16
REMARK    5  A    between atoms: C_16  and  C_17
REMARK                            x       y       z     vdW  Elec       q    Type
REMARK                         _______ _______ _______ _____ _____    ______ ____
ROOT
ATOM      1  C   UNL     1       5.893   5.017  15.297  0.00  0.00    +0.000 A 
ATOM      2  C   UNL     1       5.475   6.317  15.541  0.00  0.00    +0.000 A 
ATOM      3  C   UNL     1       4.584   6.587  16.588  0.00  0.00    +0.000 A 
ATOM      4  C   UNL     1       4.077   5.572  17.426  0.00  0.00    +0.000 A 
ATOM      5  C   UNL     1       4.506   4.263  17.167  0.00  0.00    +0.000 A 
ATOM      6  C   UNL     1       5.394   3.994  16.100  0.00  0.00    +0.000 A 
ATOM      7  C   UNL     1       4.051   3.105  17.997  0.00  0.00    +0.000 C 
ATOM      8  C   UNL     1       3.135   3.433  19.169  0.00  0.00    +0.000 C 
ATOM      9  N   UNL     1       2.737   4.817  19.390  0.00  0.00    +0.000 N 
ATOM     10  C   UNL     1       3.142   5.850  18.555  0.00  0.00    +0.000 A 
ATOM     11  C   UNL     1       2.679   7.087  18.796  0.00  0.00    +0.000 A 
ATOM     12  C   UNL     1       1.825   7.226  19.972  0.00  0.00    +0.000 A 
ATOM     13  N   UNL     1       1.461   6.302  20.777  0.00  0.00    +0.000 NA
ATOM     14  C   UNL     1       1.891   5.026  20.499  0.00  0.00    +0.000 A 
ATOM     15  O   UNL     1       1.540   4.090  21.216  0.00  0.00    +0.000 OA
ENDROOT
BRANCH   1  17
ATOM     16  C   UNL     1       6.209   3.703  13.358  0.00  0.00    +0.000 C 
ATOM     17  O   UNL     1       6.744   4.627  14.302  0.00  0.00    +0.000 OA
ENDBRANCH   1  17
BRANCH  12  18
ATOM     18  O   UNL     1       1.465   8.528  20.116  0.00  0.00    +0.000 OA
BRANCH  18  19
ATOM     19  C   UNL     1       1.709   9.425  19.010  0.00  0.00    +0.000 C 
BRANCH  19  20
ATOM     20  C   UNL     1       0.472  10.145  18.467  0.00  0.00    +0.000 C 
ATOM     21  C   UNL     1      -0.539  10.582  19.527  0.00  0.00    +0.000 C 
ATOM     22  C   UNL     1      -1.684  10.792  18.612  0.00  0.00    +0.000 A 
ATOM     23  C   UNL     1      -2.822  11.557  18.782  0.00  0.00    +0.000 A 
ATOM     24  C   UNL     1      -3.779  11.537  17.768  0.00  0.00    +0.000 A 
ATOM     25  C   UNL     1      -3.596  10.739  16.625  0.00  0.00    +0.000 A 
ATOM     26  C   UNL     1      -2.437   9.965  16.469  0.00  0.00    +0.000 A 
ATOM     27  C   UNL     1      -1.490  10.023  17.470  0.00  0.00    +0.000 A 
ATOM     28  O   UNL     1      -0.269   9.377  17.469  0.00  0.00    +0.000 OA
ENDBRANCH  19  20
ENDBRANCH  18  19
ENDBRANCH  12  18
TORSDOF 4
ENDMDL
MODEL 2
REMARK VINA RESULT:      -9.0      5.348      8.505
REMARK  Name = 
REMARK  5 active torsions:
REMARK  status: ('A' for Active; 'I' for Inactive)
REMARK    1  A    between atoms: C_1  and  O_2
REMARK    2  A    between atoms: O_2  and  C_3
REMARK    3  A    between atoms: C_14  and  O_15
REMARK    4  A    between atoms: O_15  and  C_16
REMARK    5  A    between atoms: C_16  and  C_17
REMARK                            x       y       z     vdW  Elec       q    Type
REMARK                         _______ _______ _______ _____ _____    ______ ____
ROOT
ATOM      1  C   UNL     1       2.059   3.946  19.681  0.00  0.00    +0.000 A 
ATOM      2  C   UNL     1       2.791   4.961  20.280  0.00  0.00    +0.000 A 
ATOM      3  C   UNL     1       3.936   5.471  19.652  0.00  0.00    +0.000 A 
ATOM      4  C   UNL     1       4.392   4.985  18.409  0.00  0.00    +0.000 A 
ATOM      5  C   UNL     1       3.644   3.959  17.816  0.00  0.00    +0.000 A 
ATOM      6  C   UNL     1       2.498   3.438  18.461  0.00  0.00    +0.000 A 
ATOM      7  C   UNL     1       4.018   3.373  16.491  0.00  0.00    +0.000 C 
ATOM      8  C   UNL     1       5.227   3.988  15.799  0.00  0.00    +0.000 C 
ATOM      9  N   UNL     1       5.953   5.061  16.464  0.00  0.00    +0.000 N 
ATOM     10  C   UNL     1       5.599   5.531  17.722  0.00  0.00    +0.000 A 
ATOM     11  C   UNL     1       6.359   6.482  18.289  0.00  0.00    +0.000 A 
ATOM     12  C   UNL     1       7.470   6.971  17.477  0.00  0.00    +0.000 A 
ATOM     13  N   UNL     1       7.803   6.582  16.306  0.00  0.00    +0.000 NA
ATOM     14  C   UNL     1       7.056   5.571  15.748  0.00  0.00    +0.000 A 
ATOM     15  O   UNL     1       7.353   5.128  14.639  0.00  0.00    +0.000 OA
ENDROOT
BRANCH   1  17
ATOM     16  C   UNL     1       1.104   2.716  21.458  0.00  0.00    +0.000 C 
ATOM     17  O   UNL     1       0.939   3.360  20.199  0.00  0.00    +0.000 OA
ENDBRANCH   1  17
BRANCH  12  18
ATOM     18  O   UNL     1       8.125   7.951  18.154  0.00  0.00    +0.000 OA
BRANCH  18  19
ATOM     19  C   UNL     1       7.868   9.322  17.778  0.00  0.00    +0.000 C 
BRANCH  19  20
ATOM     20  C   UNL     1       9.017  10.299  18.041  0.00  0.00    +0.000 C 
ATOM     21  C   UNL     1       9.565  10.283  19.468  0.00  0.00    +0.000 C 
ATOM     22  C   UNL     1      10.269  11.583  19.407  0.00  0.00    +0.000 A 
ATOM     23  C   UNL     1      11.312  12.060  20.179  0.00  0.00    +0.000 A 
ATOM     24  C   UNL     1      11.759  13.359  19.941  0.00  0.00    +0.000 A 
ATOM     25  C   UNL     1      11.145  14.161  18.962  0.00  0.00    +0.000 A 
ATOM     26  C   UNL     1      10.086  13.663  18.190  0.00  0.00    +0.000 A 
ATOM     27  C   UNL     1       9.679  12.366  18.423  0.00  0.00    +0.000 A 
ATOM     28  O   UNL     1       8.694  11.689  17.729  0.00  0.00    +0.000 OA
ENDBRANCH  19  20
ENDBRANCH  18  19
ENDBRANCH  12  18
TORSDOF 4
ENDMDL
MODEL 3
REMARK VINA RESULT:      -8.8      2.048      2.537
REMARK  Name = 
REMARK  5 active torsions:
REMARK  status: ('A' for Active; 'I' for Inactive)
REMARK    1  A    between atoms: C_1  and  O_2
REMARK    2  A    between atoms: O_2  and  C_3
REMARK    3  A    between atoms: C_14  and  O_15
REMARK    4  A    between atoms: O_15  and  C_16
REMARK    5  A    between atoms: C_16  and  C_17
REMARK                            x       y       z     vdW  Elec       q    Type
REMARK                         _______ _______ _______ _____ _____    ______ ____
ROOT
ATOM      1  C   UNL     1       6.453   5.286  15.868  0.00  0.00    +0.000 A 
ATOM      2  C   UNL     1       6.054   6.399  16.592  0.00  0.00    +0.000 A 
ATOM      3  C   UNL     1       4.994   6.305  17.504  0.00  0.00    +0.000 A 
ATOM      4  C   UNL     1       4.293   5.101  17.723  0.00  0.00    +0.000 A 
ATOM      5  C   UNL     1       4.706   3.984  16.983  0.00  0.00    +0.000 A 
ATOM      6  C   UNL     1       5.767   4.088  16.054  0.00  0.00    +0.000 A 
ATOM      7  C   UNL     1       4.053   2.648  17.140  0.00  0.00    +0.000 C 
ATOM      8  C   UNL     1       2.947   2.556  18.184  0.00  0.00    +0.000 C 
ATOM      9  N   UNL     1       2.575   3.752  18.927  0.00  0.00    +0.000 N 
ATOM     10  C   UNL     1       3.175   4.984  18.703  0.00  0.00    +0.000 A 
ATOM     11  C   UNL     1       2.730   6.048  19.391  0.00  0.00    +0.000 A 
ATOM     12  C   UNL     1       1.676   5.777  20.365  0.00  0.00    +0.000 A 
ATOM     13  N   UNL     1       1.126   4.650  20.616  0.00  0.00    +0.000 NA
ATOM     14  C   UNL     1       1.545   3.572  19.874  0.00  0.00    +0.000 A 
ATOM     15  O   UNL     1       1.024   2.470  20.044  0.00  0.00    +0.000 OA
ENDROOT
BRANCH   1  17
ATOM     16  C   UNL     1       7.095   4.782  13.650  0.00  0.00    +0.000 C 
ATOM     17  O   UNL     1       7.458   5.255  14.944  0.00  0.00    +0.000 OA
ENDBRANCH   1  17
BRANCH  12  18
ATOM     18  O   UNL     1       1.353   6.928  21.011  0.00  0.00    +0.000 OA
BRANCH  18  19
ATOM     19  C   UNL     1       1.745   8.178  20.404  0.00  0.00    +0.000 C 
BRANCH  19  20
ATOM     20  C   UNL     1       1.019   9.418  20.932  0.00  0.00    +0.000 C 
ATOM     21  C   UNL     1       0.255   9.211  22.240  0.00  0.00    +0.000 C 
ATOM     22  C   UNL     1      -0.600  10.416  22.145  0.00  0.00    +0.000 A 
ATOM     23  C   UNL     1      -1.266  11.108  23.139  0.00  0.00    +0.000 A 
ATOM     24  C   UNL     1      -2.055  12.194  22.761  0.00  0.00    +0.000 A 
ATOM     25  C   UNL     1      -2.184  12.550  21.407  0.00  0.00    +0.000 A 
ATOM     26  C   UNL     1      -1.506  11.835  20.410  0.00  0.00    +0.000 A 
ATOM     27  C   UNL     1      -0.708  10.783  20.808  0.00  0.00    +0.000 A 
ATOM     28  O   UNL     1       0.075  10.001  19.981  0.00  0.00    +0.000 OA
ENDBRANCH  19  20
ENDBRANCH  18  19
ENDBRANCH  12  18
TORSDOF 4
ENDMDL
MODEL 4
REMARK VINA RESULT:      -8.7      1.927      2.417
REMARK  Name = 
REMARK  5 active torsions:
REMARK  status: ('A' for Active; 'I' for Inactive)
REMARK    1  A    between atoms: C_1  and  O_2
REMARK    2  A    between atoms: O_2  and  C_3
REMARK    3  A    between atoms: C_14  and  O_15
REMARK    4  A    between atoms: O_15  and  C_16
REMARK    5  A    between atoms: C_16  and  C_17
REMARK                            x       y       z     vdW  Elec       q    Type
REMARK                         _______ _______ _______ _____ _____    ______ ____
ROOT
ATOM      1  C   UNL     1       5.847   4.462  15.313  0.00  0.00    +0.000 A 
ATOM      2  C   UNL     1       5.558   5.784  15.620  0.00  0.00    +0.000 A 
ATOM      3  C   UNL     1       4.683   6.089  16.671  0.00  0.00    +0.000 A 
ATOM      4  C   UNL     1       4.065   5.090  17.451  0.00  0.00    +0.000 A 
ATOM      5  C   UNL     1       4.366   3.759  17.130  0.00  0.00    +0.000 A 
ATOM      6  C   UNL     1       5.237   3.456  16.059  0.00  0.00    +0.000 A 
ATOM      7  C   UNL     1       3.786   2.613  17.896  0.00  0.00    +0.000 C 
ATOM      8  C   UNL     1       2.890   2.971  19.074  0.00  0.00    +0.000 C 
ATOM      9  N   UNL     1       2.629   4.375  19.362  0.00  0.00    +0.000 N 
ATOM     10  C   UNL     1       3.147   5.403  18.584  0.00  0.00    +0.000 A 
ATOM     11  C   UNL     1       2.806   6.667  18.884  0.00  0.00    +0.000 A 
ATOM     12  C   UNL     1       1.954   6.832  20.058  0.00  0.00    +0.000 A 
ATOM     13  N   UNL     1       1.487   5.910  20.811  0.00  0.00    +0.000 NA
ATOM     14  C   UNL     1       1.792   4.613  20.472  0.00  0.00    +0.000 A 
ATOM     15  O   UNL     1       1.340   3.682  21.137  0.00  0.00    +0.000 OA
ENDROOT
BRANCH   1  17
ATOM     16  C   UNL     1       6.033   3.777  13.060  0.00  0.00    +0.000 C 
ATOM     17  O   UNL     1       6.669   4.039  14.308  0.00  0.00    +0.000 OA
ENDBRANCH   1  17
BRANCH  12  18
ATOM     18  O   UNL     1       1.724   8.155  20.265  0.00  0.00    +0.000 OA
BRANCH  18  19
ATOM     19  C   UNL     1       1.410   8.586  21.607  0.00  0.00    +0.000 C 
BRANCH  19  20
ATOM     20  C   UNL     1       0.648   9.911  21.708  0.00  0.00    +0.000 C 
ATOM     21  C   UNL     1      -0.268  10.038  22.926  0.00  0.00    +0.000 C 
ATOM     22  C   UNL     1      -1.084  11.165  22.422  0.00  0.00    +0.000 A 
ATOM     23  C   UNL     1      -1.850  12.082  23.119  0.00  0.00    +0.000 A 
ATOM     24  C   UNL     1      -2.569  13.023  22.383  0.00  0.00    +0.000 A 
ATOM     25  C   UNL     1      -2.532  13.016  20.978  0.00  0.00    +0.000 A 
ATOM     26  C   UNL     1      -1.753  12.077  20.286  0.00  0.00    +0.000 A 
ATOM     27  C   UNL     1      -1.027  11.174  21.034  0.00  0.00    +0.000 A 
ATOM     28  O   UNL     1      -0.166  10.216  20.534  0.00  0.00    +0.000 OA
ENDBRANCH  19  20
ENDBRANCH  18  19
ENDBRANCH  12  18
TORSDOF 4
ENDMDL
MODEL 5
REMARK VINA RESULT:      -8.7      0.883      1.327
REMARK  Name = 
REMARK  5 active torsions:
REMARK  status: ('A' for Active; 'I' for Inactive)
REMARK    1  A    between atoms: C_1  and  O_2
REMARK    2  A    between atoms: O_2  and  C_3
REMARK    3  A    between atoms: C_14  and  O_15
REMARK    4  A    between atoms: O_15  and  C_16
REMARK    5  A    between atoms: C_16  and  C_17
REMARK                            x       y       z     vdW  Elec       q    Type
REMARK                         _______ _______ _______ _____ _____    ______ ____
ROOT
ATOM      1  C   UNL     1       5.975   4.766  15.093  0.00  0.00    +0.000 A 
ATOM      2  C   UNL     1       5.637   6.111  15.137  0.00  0.00    +0.000 A 
ATOM      3  C   UNL     1       4.773   6.589  16.132  0.00  0.00    +0.000 A 
ATOM      4  C   UNL     1       4.214   5.745  17.113  0.00  0.00    +0.000 A 
ATOM      5  C   UNL     1       4.563   4.389  17.057  0.00  0.00    +0.000 A 
ATOM      6  C   UNL     1       5.424   3.909  16.043  0.00  0.00    +0.000 A 
ATOM      7  C   UNL     1       4.048   3.399  18.053  0.00  0.00    +0.000 C 
ATOM      8  C   UNL     1       3.163   3.954  19.161  0.00  0.00    +0.000 C 
ATOM      9  N   UNL     1       2.850   5.377  19.169  0.00  0.00    +0.000 N 
ATOM     10  C   UNL     1       3.307   6.246  18.187  0.00  0.00    +0.000 A 
ATOM     11  C   UNL     1       2.920   7.531  18.237  0.00  0.00    +0.000 A 
ATOM     12  C   UNL     1       2.086   7.896  19.379  0.00  0.00    +0.000 A 
ATOM     13  N   UNL     1       1.675   7.128  20.314  0.00  0.00    +0.000 NA
ATOM     14  C   UNL     1       2.027   5.802  20.233  0.00  0.00    +0.000 A 
ATOM     15  O   UNL     1       1.628   5.008  21.084  0.00  0.00    +0.000 OA
ENDROOT
BRANCH   1  17
ATOM     16  C   UNL     1       6.137   3.590  13.050  0.00  0.00    +0.000 C 
ATOM     17  O   UNL     1       6.792   4.180  14.169  0.00  0.00    +0.000 OA
ENDBRANCH   1  17
BRANCH  12  18
ATOM     18  O   UNL     1       1.805   9.225  19.323  0.00  0.00    +0.000 OA
BRANCH  18  19
ATOM     19  C   UNL     1       0.667   9.708  20.070  0.00  0.00    +0.000 C 
BRANCH  19  20
ATOM     20  C   UNL     1      -0.645   9.789  19.284  0.00  0.00    +0.000 C 
ATOM     21  C   UNL     1      -0.492   9.728  17.764  0.00  0.00    +0.000 C 
ATOM     22  C   UNL     1      -1.829  10.264  17.425  0.00  0.00    +0.000 A 
ATOM     23  C   UNL     1      -2.563  10.136  16.261  0.00  0.00    +0.000 A 
ATOM     24  C   UNL     1      -3.790  10.795  16.188  0.00  0.00    +0.000 A 
ATOM     25  C   UNL     1      -4.246  11.584  17.259  0.00  0.00    +0.000 A 
ATOM     26  C   UNL     1      -3.487  11.706  18.431  0.00  0.00    +0.000 A 
ATOM     27  C   UNL     1      -2.291  11.023  18.494  0.00  0.00    +0.000 A 
ATOM     28  O   UNL     1      -1.438  10.980  19.580  0.00  0.00    +0.000 OA
ENDBRANCH  19  20
ENDBRANCH  18  19
ENDBRANCH  12  18
TORSDOF 4
ENDMDL
MODEL 6
REMARK VINA RESULT:      -8.7      3.118      8.260
REMARK  Name = 
REMARK  5 active torsions:
REMARK  status: ('A' for Active; 'I' for Inactive)
REMARK    1  A    between atoms: C_1  and  O_2
REMARK    2  A    between atoms: O_2  and  C_3
REMARK    3  A    between atoms: C_14  and  O_15
REMARK    4  A    between atoms: O_15  and  C_16
REMARK    5  A    between atoms: C_16  and  C_17
REMARK                            x       y       z     vdW  Elec       q    Type
REMARK                         _______ _______ _______ _____ _____    ______ ____
ROOT
ATOM      1  C   UNL     1      -3.271  10.805  16.308  0.00  0.00    +0.000 A 
ATOM      2  C   UNL     1      -2.279   9.837  16.358  0.00  0.00    +0.000 A 
ATOM      3  C   UNL     1      -1.484   9.700  17.504  0.00  0.00    +0.000 A 
ATOM      4  C   UNL     1      -1.647  10.522  18.637  0.00  0.00    +0.000 A 
ATOM      5  C   UNL     1      -2.653  11.497  18.573  0.00  0.00    +0.000 A 
ATOM      6  C   UNL     1      -3.443  11.641  17.409  0.00  0.00    +0.000 A 
ATOM      7  C   UNL     1      -2.934  12.418  19.717  0.00  0.00    +0.000 C 
ATOM      8  C   UNL     1      -2.101  12.206  20.975  0.00  0.00    +0.000 C 
ATOM      9  N   UNL     1      -1.081  11.167  20.979  0.00  0.00    +0.000 N 
ATOM     10  C   UNL     1      -0.820  10.374  19.869  0.00  0.00    +0.000 A 
ATOM     11  C   UNL     1       0.180   9.480  19.940  0.00  0.00    +0.000 A 
ATOM     12  C   UNL     1       0.863   9.396  21.228  0.00  0.00    +0.000 A 
ATOM     13  N   UNL     1       0.627  10.088  22.276  0.00  0.00    +0.000 NA
ATOM     14  C   UNL     1      -0.361  11.040  22.186  0.00  0.00    +0.000 A 
ATOM     15  O   UNL     1      -0.607  11.763  23.151  0.00  0.00    +0.000 OA
ENDROOT
BRANCH   1  17
ATOM     16  C   UNL     1      -3.898  10.212  14.108  0.00  0.00    +0.000 C 
ATOM     17  O   UNL     1      -4.097  11.044  15.247  0.00  0.00    +0.000 OA
ENDBRANCH   1  17
BRANCH  12  18
ATOM     18  O   UNL     1       1.818   8.430  21.168  0.00  0.00    +0.000 OA
BRANCH  18  19
ATOM     19  C   UNL     1       2.260   7.993  19.865  0.00  0.00    +0.000 C 
BRANCH  19  20
ATOM     20  C   UNL     1       2.418   6.479  19.701  0.00  0.00    +0.000 C 
ATOM     21  C   UNL     1       2.297   5.969  18.265  0.00  0.00    +0.000 C 
ATOM     22  C   UNL     1       2.065   4.545  18.597  0.00  0.00    +0.000 A 
ATOM     23  C   UNL     1       2.252   3.415  17.823  0.00  0.00    +0.000 A 
ATOM     24  C   UNL     1       1.901   2.183  18.372  0.00  0.00    +0.000 A 
ATOM     25  C   UNL     1       1.348   2.104  19.663  0.00  0.00    +0.000 A 
ATOM     26  C   UNL     1       1.161   3.260  20.433  0.00  0.00    +0.000 A 
ATOM     27  C   UNL     1       1.542   4.465  19.882  0.00  0.00    +0.000 A 
ATOM     28  O   UNL     1       1.485   5.696  20.507  0.00  0.00    +0.000 OA
ENDBRANCH  19  20
ENDBRANCH  18  19
ENDBRANCH  12  18
TORSDOF 4
ENDMDL
MODEL 7
REMARK VINA RESULT:      -8.6      1.905      2.731
REMARK  Name = 
REMARK  5 active torsions:
REMARK  status: ('A' for Active; 'I' for Inactive)
REMARK    1  A    between atoms: C_1  and  O_2
REMARK    2  A    between atoms: O_2  and  C_3
REMARK    3  A    between atoms: C_14  and  O_15
REMARK    4  A    between atoms: O_15  and  C_16
REMARK    5  A    between atoms: C_16  and  C_17
REMARK                            x       y       z     vdW  Elec       q    Type
REMARK                         _______ _______ _______ _____ _____    ______ ____
ROOT
ATOM      1  C   UNL     1       5.696   5.336  15.240  0.00  0.00    +0.000 A 
ATOM      2  C   UNL     1       5.393   6.608  15.703  0.00  0.00    +0.000 A 
ATOM      3  C   UNL     1       4.529   6.775  16.793  0.00  0.00    +0.000 A 
ATOM      4  C   UNL     1       3.934   5.682  17.457  0.00  0.00    +0.000 A 
ATOM      5  C   UNL     1       4.248   4.403  16.978  0.00  0.00    +0.000 A 
ATOM      6  C   UNL     1       5.109   4.241  15.869  0.00  0.00    +0.000 A 
ATOM      7  C   UNL     1       3.693   3.166  17.610  0.00  0.00    +0.000 C 
ATOM      8  C   UNL     1       2.808   3.371  18.832  0.00  0.00    +0.000 C 
ATOM      9  N   UNL     1       2.532   4.727  19.286  0.00  0.00    +0.000 N 
ATOM     10  C   UNL     1       3.026   5.846  18.629  0.00  0.00    +0.000 A 
ATOM     11  C   UNL     1       2.673   7.062  19.080  0.00  0.00    +0.000 A 
ATOM     12  C   UNL     1       1.834   7.074  20.274  0.00  0.00    +0.000 A 
ATOM     13  N   UNL     1       1.390   6.064  20.919  0.00  0.00    +0.000 NA
ATOM     14  C   UNL     1       1.707   4.820  20.426  0.00  0.00    +0.000 A 
ATOM     15  O   UNL     1       1.275   3.811  20.982  0.00  0.00    +0.000 OA
ENDROOT
BRANCH   1  17
ATOM     16  C   UNL     1       6.298   3.778  13.568  0.00  0.00    +0.000 C 
ATOM     17  O   UNL     1       6.510   5.046  14.182  0.00  0.00    +0.000 OA
ENDBRANCH   1  17
BRANCH  12  18
ATOM     18  O   UNL     1       1.590   8.361  20.639  0.00  0.00    +0.000 OA
BRANCH  18  19
ATOM     19  C   UNL     1       0.932   8.593  21.903  0.00  0.00    +0.000 C 
BRANCH  19  20
ATOM     20  C   UNL     1      -0.178   9.648  21.879  0.00  0.00    +0.000 C 
ATOM     21  C   UNL     1      -0.352  10.372  20.544  0.00  0.00    +0.000 C 
ATOM     22  C   UNL     1      -1.134  11.519  21.059  0.00  0.00    +0.000 A 
ATOM     23  C   UNL     1      -1.982  12.382  20.391  0.00  0.00    +0.000 A 
ATOM     24  C   UNL     1      -2.559  13.423  21.118  0.00  0.00    +0.000 A 
ATOM     25  C   UNL     1      -2.262  13.596  22.481  0.00  0.00    +0.000 A 
ATOM     26  C   UNL     1      -1.397  12.714  23.144  0.00  0.00    +0.000 A 
ATOM     27  C   UNL     1      -0.860  11.675  22.413  0.00  0.00    +0.000 A 
ATOM     28  O   UNL     1      -0.036  10.680  22.904  0.00  0.00    +0.000 OA
ENDBRANCH  19  20
ENDBRANCH  18  19
ENDBRANCH  12  18
TORSDOF 4
ENDMDL
MODEL 8
REMARK VINA RESULT:      -8.6      2.224      2.697
REMARK  Name = 
REMARK  5 active torsions:
REMARK  status: ('A' for Active; 'I' for Inactive)
REMARK    1  A    between atoms: C_1  and  O_2
REMARK    2  A    between atoms: O_2  and  C_3
REMARK    3  A    between atoms: C_14  and  O_15
REMARK    4  A    between atoms: O_15  and  C_16
REMARK    5  A    between atoms: C_16  and  C_17
REMARK                            x       y       z     vdW  Elec       q    Type
REMARK                         _______ _______ _______ _____ _____    ______ ____
ROOT
ATOM      1  C   UNL     1       5.860   5.417  15.474  0.00  0.00    +0.000 A 
ATOM      2  C   UNL     1       5.435   6.523  16.195  0.00  0.00    +0.000 A 
ATOM      3  C   UNL     1       4.528   6.370  17.253  0.00  0.00    +0.000 A 
ATOM      4  C   UNL     1       4.013   5.112  17.627  0.00  0.00    +0.000 A 
ATOM      5  C   UNL     1       4.450   4.003  16.888  0.00  0.00    +0.000 A 
ATOM      6  C   UNL     1       5.353   4.165  15.812  0.00  0.00    +0.000 A 
ATOM      7  C   UNL     1       3.987   2.615  17.200  0.00  0.00    +0.000 C 
ATOM      8  C   UNL     1       3.053   2.467  18.395  0.00  0.00    +0.000 C 
ATOM      9  N   UNL     1       2.648   3.659  19.127  0.00  0.00    +0.000 N 
ATOM     10  C   UNL     1       3.062   4.934  18.762  0.00  0.00    +0.000 A 
ATOM     11  C   UNL     1       2.592   5.983  19.456  0.00  0.00    +0.000 A 
ATOM     12  C   UNL     1       1.721   5.658  20.582  0.00  0.00    +0.000 A 
ATOM     13  N   UNL     1       1.348   4.496  20.962  0.00  0.00    +0.000 NA
ATOM     14  C   UNL     1       1.786   3.426  20.219  0.00  0.00    +0.000 A 
ATOM     15  O   UNL     1       1.428   2.286  20.514  0.00  0.00    +0.000 OA
ENDROOT
BRANCH   1  17
ATOM     16  C   UNL     1       6.660   4.319  13.540  0.00  0.00    +0.000 C 
ATOM     17  O   UNL     1       6.725   5.440  14.417  0.00  0.00    +0.000 OA
ENDBRANCH   1  17
BRANCH  12  18
ATOM     18  O   UNL     1       1.355   6.805  21.213  0.00  0.00    +0.000 OA
BRANCH  18  19
ATOM     19  C   UNL     1       1.542   8.054  20.512  0.00  0.00    +0.000 C 
BRANCH  19  20
ATOM     20  C   UNL     1       0.444   9.098  20.730  0.00  0.00    +0.000 C 
ATOM     21  C   UNL     1       0.652  10.419  19.989  0.00  0.00    +0.000 C 
ATOM     22  C   UNL     1      -0.304  11.225  20.781  0.00  0.00    +0.000 A 
ATOM     23  C   UNL     1      -0.947  12.405  20.457  0.00  0.00    +0.000 A 
ATOM     24  C   UNL     1      -1.768  12.987  21.421  0.00  0.00    +0.000 A 
ATOM     25  C   UNL     1      -1.911  12.400  22.691  0.00  0.00    +0.000 A 
ATOM     26  C   UNL     1      -1.249  11.204  23.006  0.00  0.00    +0.000 A 
ATOM     27  C   UNL     1      -0.465  10.630  22.027  0.00  0.00    +0.000 A 
ATOM     28  O   UNL     1       0.216   9.433  22.134  0.00  0.00    +0.000 OA
ENDBRANCH  19  20
ENDBRANCH  18  19
ENDBRANCH  12  18
TORSDOF 4
ENDMDL
MODEL 9
REMARK VINA RESULT:      -8.5      2.418      8.167
REMARK  Name = 
REMARK  5 active torsions:
REMARK  status: ('A' for Active; 'I' for Inactive)
REMARK    1  A    between atoms: C_1  and  O_2
REMARK    2  A    between atoms: O_2  and  C_3
REMARK    3  A    between atoms: C_14  and  O_15
REMARK    4  A    between atoms: O_15  and  C_16
REMARK    5  A    between atoms: C_16  and  C_17
REMARK                            x       y       z     vdW  Elec       q    Type
REMARK                         _______ _______ _______ _____ _____    ______ ____
ROOT
ATOM      1  C   UNL     1      -3.057  10.822  16.271  0.00  0.00    +0.000 A 
ATOM      2  C   UNL     1      -2.083   9.838  16.357  0.00  0.00    +0.000 A 
ATOM      3  C   UNL     1      -1.331   9.689  17.530  0.00  0.00    +0.000 A 
ATOM      4  C   UNL     1      -1.520  10.517  18.656  0.00  0.00    +0.000 A 
ATOM      5  C   UNL     1      -2.506  11.508  18.555  0.00  0.00    +0.000 A 
ATOM      6  C   UNL     1      -3.252  11.664  17.364  0.00  0.00    +0.000 A 
ATOM      7  C   UNL     1      -2.810  12.436  19.688  0.00  0.00    +0.000 C 
ATOM      8  C   UNL     1      -2.025  12.213  20.974  0.00  0.00    +0.000 C 
ATOM      9  N   UNL     1      -1.024  11.156  21.015  0.00  0.00    +0.000 N 
ATOM     10  C   UNL     1      -0.738  10.357  19.916  0.00  0.00    +0.000 A 
ATOM     11  C   UNL     1       0.243   9.445  20.023  0.00  0.00    +0.000 A 
ATOM     12  C   UNL     1       0.879   9.352  21.333  0.00  0.00    +0.000 A 
ATOM     13  N   UNL     1       0.618  10.050  22.372  0.00  0.00    +0.000 NA
ATOM     14  C   UNL     1      -0.348  11.019  22.246  0.00  0.00    +0.000 A 
ATOM     15  O   UNL     1      -0.616  11.748  23.201  0.00  0.00    +0.000 OA
ENDROOT
BRANCH   1  17
ATOM     16  C   UNL     1      -3.807  10.088  14.154  0.00  0.00    +0.000 C 
ATOM     17  O   UNL     1      -3.841  11.074  15.182  0.00  0.00    +0.000 OA
ENDBRANCH   1  17
BRANCH  12  18
ATOM     18  O   UNL     1       1.818   8.370  21.309  0.00  0.00    +0.000 OA
BRANCH  18  19
ATOM     19  C   UNL     1       1.516   7.163  20.576  0.00  0.00    +0.000 C 
BRANCH  19  20
ATOM     20  C   UNL     1       2.640   6.648  19.672  0.00  0.00    +0.000 C 
ATOM     21  C   UNL     1       2.953   7.532  18.464  0.00  0.00    +0.000 C 
ATOM     22  C   UNL     1       3.699   6.518  17.685  0.00  0.00    +0.000 A 
ATOM     23  C   UNL     1       4.621   6.687  16.669  0.00  0.00    +0.000 A 
ATOM     24  C   UNL     1       5.141   5.543  16.063  0.00  0.00    +0.000 A 
ATOM     25  C   UNL     1       4.716   4.264  16.463  0.00  0.00    +0.000 A 
ATOM     26  C   UNL     1       3.778   4.110  17.493  0.00  0.00    +0.000 A 
ATOM     27  C   UNL     1       3.298   5.252  18.097  0.00  0.00    +0.000 A 
ATOM     28  O   UNL     1       2.415   5.298  19.159  0.00  0.00    +0.000 OA
ENDBRANCH  19  20
ENDBRANCH  18  19
ENDBRANCH  12  18
TORSDOF 4
ENDMDL
