MODEL 1
REMARK VINA RESULT:      -7.1      0.000      0.000
REMARK  Name = 
REMARK  9 active torsions:
REMARK  status: ('A' for Active; 'I' for Inactive)
REMARK    1  A    between atoms: C_1  and  C_2
REMARK    2  A    between atoms: C_2  and  O_3
REMARK    3  A    between atoms: O_3  and  C_4
REMARK    4  A    between atoms: C_4  and  C_5
REMARK    5  A    between atoms: C_8  and  C_10
REMARK    6  A    between atoms: C_10  and  O_11
REMARK    7  A    between atoms: O_11  and  C_12
REMARK    8  A    between atoms: C_17  and  C_18
REMARK    9  A    between atoms: N_23  and  C_24
REMARK                            x       y       z     vdW  Elec       q    Type
REMARK                         _______ _______ _______ _____ _____    ______ ____
ROOT
ATOM      1  C   UNL     1       3.078   3.430  17.437  0.00  0.00    +0.000 C 
ATOM      2  C   UNL     1       4.063   4.459  16.805  0.00  0.00    +0.000 C 
ATOM      3  N   UNL     1       4.900   5.136  17.813  0.00  0.00    +0.000 N 
ATOM      4  C   UNL     1       6.291   5.199  17.796  0.00  0.00    +0.000 C 
ATOM      5  O   UNL     1       6.907   5.814  18.676  0.00  0.00    +0.000 OA
ATOM      6  C   UNL     1       4.180   5.885  18.881  0.00  0.00    +0.000 C 
ATOM      7  C   UNL     1       2.859   5.228  19.201  0.00  0.00    +0.000 A 
ATOM      8  N   UNL     1       2.118   5.463  20.333  0.00  0.00    +0.000 NA
ATOM      9  C   UNL     1       1.195   4.522  20.355  0.00  0.00    +0.000 A 
ATOM     10  N   UNL     1       1.270   3.709  19.254  0.00  0.00    +0.000 N 
ATOM     11  C   UNL     1       0.429   2.566  18.997  0.00  0.00    +0.000 C 
ATOM     12  C   UNL     1       2.361   4.120  18.543  0.00  0.00    +0.000 A 
ENDROOT
BRANCH   1  13
ATOM     13  C   UNL     1       3.777   2.146  17.953  0.00  0.00    +0.000 C 
BRANCH  13  14
ATOM     14  O   UNL     1       3.613   1.808  19.336  0.00  0.00    +0.000 OA
BRANCH  14  16
ATOM     15  C   UNL     1       5.262   1.082  20.968  0.00  0.00    +0.000 C 
ATOM     16  C   UNL     1       4.713   2.231  20.148  0.00  0.00    +0.000 C 
ENDBRANCH  14  16
ENDBRANCH  13  14
ENDBRANCH   1  13
BRANCH   4  17
ATOM     17  C   UNL     1       7.098   4.486  16.686  0.00  0.00    +0.000 C 
BRANCH  17  18
ATOM     18  O   UNL     1       7.227   5.315  15.545  0.00  0.00    +0.000 OA
BRANCH  18  19
ATOM     19  C   UNL     1       7.038   4.807  14.281  0.00  0.00    +0.000 A 
ATOM     20  C   UNL     1       5.904   3.960  14.235  0.00  0.00    +0.000 A 
ATOM     21  C   UNL     1       5.489   3.357  13.047  0.00  0.00    +0.000 A 
ATOM     22  C   UNL     1       6.178   3.608  11.872  0.00  0.00    +0.000 A 
ATOM     23  C   UNL     1       7.283   4.463  11.889  0.00  0.00    +0.000 A 
ATOM     24  C   UNL     1       7.728   5.077  13.086  0.00  0.00    +0.000 A 
ATOM     25  C   UNL     1       8.886   6.021  12.942  0.00  0.00    +0.000 C 
ENDBRANCH  18  19
ENDBRANCH  17  18
ENDBRANCH   4  17
TORSDOF 6
ENDMDL
MODEL 2
REMARK VINA RESULT:      -7.1      1.225      1.596
REMARK  Name = 
REMARK  9 active torsions:
REMARK  status: ('A' for Active; 'I' for Inactive)
REMARK    1  A    between atoms: C_1  and  C_2
REMARK    2  A    between atoms: C_2  and  O_3
REMARK    3  A    between atoms: O_3  and  C_4
REMARK    4  A    between atoms: C_4  and  C_5
REMARK    5  A    between atoms: C_8  and  C_10
REMARK    6  A    between atoms: C_10  and  O_11
REMARK    7  A    between atoms: O_11  and  C_12
REMARK    8  A    between atoms: C_17  and  C_18
REMARK    9  A    between atoms: N_23  and  C_24
REMARK                            x       y       z     vdW  Elec       q    Type
REMARK                         _______ _______ _______ _____ _____    ______ ____
ROOT
ATOM      1  C   UNL     1       3.391   4.345  18.410  0.00  0.00    +0.000 C 
ATOM      2  C   UNL     1       4.058   4.903  17.117  0.00  0.00    +0.000 C 
ATOM      3  N   UNL     1       4.797   6.156  17.355  0.00  0.00    +0.000 N 
ATOM      4  C   UNL     1       6.131   6.383  17.022  0.00  0.00    +0.000 C 
ATOM      5  O   UNL     1       6.659   7.481  17.240  0.00  0.00    +0.000 OA
ATOM      6  C   UNL     1       4.014   7.293  17.916  0.00  0.00    +0.000 C 
ATOM      7  C   UNL     1       2.910   6.794  18.816  0.00  0.00    +0.000 A 
ATOM      8  N   UNL     1       2.230   7.563  19.728  0.00  0.00    +0.000 NA
ATOM      9  C   UNL     1       1.554   6.713  20.475  0.00  0.00    +0.000 A 
ATOM     10  N   UNL     1       1.723   5.420  20.056  0.00  0.00    +0.000 N 
ATOM     11  C   UNL     1       1.149   4.254  20.682  0.00  0.00    +0.000 C 
ATOM     12  C   UNL     1       2.628   5.458  19.035  0.00  0.00    +0.000 A 
ENDROOT
BRANCH   1  13
ATOM     13  C   UNL     1       4.406   3.744  19.416  0.00  0.00    +0.000 C 
BRANCH  13  14
ATOM     14  O   UNL     1       4.320   2.339  19.689  0.00  0.00    +0.000 OA
BRANCH  14  16
ATOM     15  C   UNL     1       2.170   1.511  18.917  0.00  0.00    +0.000 C 
ATOM     16  C   UNL     1       3.658   1.608  18.653  0.00  0.00    +0.000 C 
ENDBRANCH  14  16
ENDBRANCH  13  14
ENDBRANCH   1  13
BRANCH   4  17
ATOM     17  C   UNL     1       6.986   5.261  16.390  0.00  0.00    +0.000 C 
BRANCH  17  18
ATOM     18  O   UNL     1       7.495   5.663  15.131  0.00  0.00    +0.000 OA
BRANCH  18  19
ATOM     19  C   UNL     1       7.195   4.955  13.991  0.00  0.00    +0.000 A 
ATOM     20  C   UNL     1       6.177   4.002  14.235  0.00  0.00    +0.000 A 
ATOM     21  C   UNL     1       5.676   3.190  13.216  0.00  0.00    +0.000 A 
ATOM     22  C   UNL     1       6.159   3.331  11.925  0.00  0.00    +0.000 A 
ATOM     23  C   UNL     1       7.144   4.284  11.658  0.00  0.00    +0.000 A 
ATOM     24  C   UNL     1       7.674   5.111  12.678  0.00  0.00    +0.000 A 
ATOM     25  C   UNL     1       8.678   6.134  12.232  0.00  0.00    +0.000 C 
ENDBRANCH  18  19
ENDBRANCH  17  18
ENDBRANCH   4  17
TORSDOF 6
ENDMDL
MODEL 3
REMARK VINA RESULT:      -7.0      4.531      8.057
REMARK  Name = 
REMARK  9 active torsions:
REMARK  status: ('A' for Active; 'I' for Inactive)
REMARK    1  A    between atoms: C_1  and  C_2
REMARK    2  A    between atoms: C_2  and  O_3
REMARK    3  A    between atoms: O_3  and  C_4
REMARK    4  A    between atoms: C_4  and  C_5
REMARK    5  A    between atoms: C_8  and  C_10
REMARK    6  A    between atoms: C_10  and  O_11
REMARK    7  A    between atoms: O_11  and  C_12
REMARK    8  A    between atoms: C_17  and  C_18
REMARK    9  A    between atoms: N_23  and  C_24
REMARK                            x       y       z     vdW  Elec       q    Type
REMARK                         _______ _______ _______ _____ _____    ______ ____
ROOT
ATOM      1  C   UNL     1       3.018   4.802  19.087  0.00  0.00    +0.000 C 
ATOM      2  C   UNL     1       3.209   6.270  19.578  0.00  0.00    +0.000 C 
ATOM      3  N   UNL     1       3.079   7.253  18.488  0.00  0.00    +0.000 N 
ATOM      4  C   UNL     1       2.222   8.351  18.488  0.00  0.00    +0.000 C 
ATOM      5  O   UNL     1       2.202   9.138  17.533  0.00  0.00    +0.000 OA
ATOM      6  C   UNL     1       4.014   7.098  17.337  0.00  0.00    +0.000 C 
ATOM      7  C   UNL     1       4.351   5.644  17.111  0.00  0.00    +0.000 A 
ATOM      8  N   UNL     1       4.906   5.134  15.962  0.00  0.00    +0.000 NA
ATOM      9  C   UNL     1       4.796   3.824  16.066  0.00  0.00    +0.000 A 
ATOM     10  N   UNL     1       4.238   3.453  17.261  0.00  0.00    +0.000 N 
ATOM     11  C   UNL     1       3.949   2.099  17.666  0.00  0.00    +0.000 C 
ATOM     12  C   UNL     1       3.902   4.607  17.908  0.00  0.00    +0.000 A 
ENDROOT
BRANCH   1  13
ATOM     13  C   UNL     1       1.548   4.458  18.735  0.00  0.00    +0.000 C 
BRANCH  13  14
ATOM     14  O   UNL     1       0.761   3.794  19.733  0.00  0.00    +0.000 OA
BRANCH  14  16
ATOM     15  C   UNL     1       1.569   2.820  21.808  0.00  0.00    +0.000 C 
ATOM     16  C   UNL     1       1.427   2.665  20.308  0.00  0.00    +0.000 C 
ENDBRANCH  14  16
ENDBRANCH  13  14
ENDBRANCH   1  13
BRANCH   4  17
ATOM     17  C   UNL     1       1.262   8.599  19.674  0.00  0.00    +0.000 C 
BRANCH  17  18
ATOM     18  O   UNL     1       0.514   9.786  19.478  0.00  0.00    +0.000 OA
BRANCH  18  19
ATOM     19  C   UNL     1      -0.151  10.380  20.524  0.00  0.00    +0.000 A 
ATOM     20  C   UNL     1      -0.052   9.600  21.701  0.00  0.00    +0.000 A 
ATOM     21  C   UNL     1      -0.617  10.019  22.907  0.00  0.00    +0.000 A 
ATOM     22  C   UNL     1      -1.268  11.240  22.972  0.00  0.00    +0.000 A 
ATOM     23  C   UNL     1      -1.354  12.038  21.829  0.00  0.00    +0.000 A 
ATOM     24  C   UNL     1      -0.797  11.627  20.593  0.00  0.00    +0.000 A 
ATOM     25  C   UNL     1      -0.908  12.615  19.468  0.00  0.00    +0.000 C 
ENDBRANCH  18  19
ENDBRANCH  17  18
ENDBRANCH   4  17
TORSDOF 6
ENDMDL
MODEL 4
REMARK VINA RESULT:      -7.0      5.515      7.518
REMARK  Name = 
REMARK  9 active torsions:
REMARK  status: ('A' for Active; 'I' for Inactive)
REMARK    1  A    between atoms: C_1  and  C_2
REMARK    2  A    between atoms: C_2  and  O_3
REMARK    3  A    between atoms: O_3  and  C_4
REMARK    4  A    between atoms: C_4  and  C_5
REMARK    5  A    between atoms: C_8  and  C_10
REMARK    6  A    between atoms: C_10  and  O_11
REMARK    7  A    between atoms: O_11  and  C_12
REMARK    8  A    between atoms: C_17  and  C_18
REMARK    9  A    between atoms: N_23  and  C_24
REMARK                            x       y       z     vdW  Elec       q    Type
REMARK                         _______ _______ _______ _____ _____    ______ ____
ROOT
ATOM      1  C   UNL     1      -0.138  10.968  19.672  0.00  0.00    +0.000 C 
ATOM      2  C   UNL     1       1.263  10.289  19.586  0.00  0.00    +0.000 C 
ATOM      3  N   UNL     1       1.349   9.061  20.397  0.00  0.00    +0.000 N 
ATOM      4  C   UNL     1       1.748   7.811  19.929  0.00  0.00    +0.000 C 
ATOM      5  O   UNL     1       1.812   6.841  20.695  0.00  0.00    +0.000 OA
ATOM      6  C   UNL     1       1.070   9.205  21.854  0.00  0.00    +0.000 C 
ATOM      7  C   UNL     1       0.058  10.297  22.102  0.00  0.00    +0.000 A 
ATOM      8  N   UNL     1      -0.650  10.464  23.267  0.00  0.00    +0.000 NA
ATOM      9  C   UNL     1      -1.591  11.343  22.988  0.00  0.00    +0.000 A 
ATOM     10  N   UNL     1      -1.498  11.798  21.699  0.00  0.00    +0.000 N 
ATOM     11  C   UNL     1      -2.397  12.735  21.073  0.00  0.00    +0.000 C 
ATOM     12  C   UNL     1      -0.483  11.097  21.113  0.00  0.00    +0.000 A 
ENDROOT
BRANCH   1  13
ATOM     13  C   UNL     1      -1.243  10.195  18.909  0.00  0.00    +0.000 C 
BRANCH  13  14
ATOM     14  O   UNL     1      -1.151  10.138  17.479  0.00  0.00    +0.000 OA
BRANCH  14  16
ATOM     15  C   UNL     1      -2.904   9.813  15.827  0.00  0.00    +0.000 C 
ATOM     16  C   UNL     1      -2.261  10.757  16.823  0.00  0.00    +0.000 C 
ENDBRANCH  14  16
ENDBRANCH  13  14
ENDBRANCH   1  13
BRANCH   4  17
ATOM     17  C   UNL     1       2.101   7.605  18.438  0.00  0.00    +0.000 C 
BRANCH  17  18
ATOM     18  O   UNL     1       3.482   7.336  18.279  0.00  0.00    +0.000 OA
BRANCH  18  19
ATOM     19  C   UNL     1       3.910   6.273  17.519  0.00  0.00    +0.000 A 
ATOM     20  C   UNL     1       4.806   6.696  16.508  0.00  0.00    +0.000 A 
ATOM     21  C   UNL     1       5.404   5.788  15.633  0.00  0.00    +0.000 A 
ATOM     22  C   UNL     1       5.144   4.433  15.766  0.00  0.00    +0.000 A 
ATOM     23  C   UNL     1       4.285   3.992  16.775  0.00  0.00    +0.000 A 
ATOM     24  C   UNL     1       3.659   4.897  17.666  0.00  0.00    +0.000 A 
ATOM     25  C   UNL     1       2.813   4.276  18.740  0.00  0.00    +0.000 C 
ENDBRANCH  18  19
ENDBRANCH  17  18
ENDBRANCH   4  17
TORSDOF 6
ENDMDL
MODEL 5
REMARK VINA RESULT:      -6.9      4.262      6.999
REMARK  Name = 
REMARK  9 active torsions:
REMARK  status: ('A' for Active; 'I' for Inactive)
REMARK    1  A    between atoms: C_1  and  C_2
REMARK    2  A    between atoms: C_2  and  O_3
REMARK    3  A    between atoms: O_3  and  C_4
REMARK    4  A    between atoms: C_4  and  C_5
REMARK    5  A    between atoms: C_8  and  C_10
REMARK    6  A    between atoms: C_10  and  O_11
REMARK    7  A    between atoms: O_11  and  C_12
REMARK    8  A    between atoms: C_17  and  C_18
REMARK    9  A    between atoms: N_23  and  C_24
REMARK                            x       y       z     vdW  Elec       q    Type
REMARK                         _______ _______ _______ _____ _____    ______ ____
ROOT
ATOM      1  C   UNL     1       3.681   4.457  18.704  0.00  0.00    +0.000 C 
ATOM      2  C   UNL     1       2.607   5.503  18.276  0.00  0.00    +0.000 C 
ATOM      3  N   UNL     1       2.094   6.287  19.413  0.00  0.00    +0.000 N 
ATOM      4  C   UNL     1       2.071   7.678  19.489  0.00  0.00    +0.000 C 
ATOM      5  O   UNL     1       1.596   8.249  20.479  0.00  0.00    +0.000 OA
ATOM      6  C   UNL     1       1.471   5.516  20.526  0.00  0.00    +0.000 C 
ATOM      7  C   UNL     1       2.125   4.164  20.675  0.00  0.00    +0.000 A 
ATOM      8  N   UNL     1       2.020   3.357  21.782  0.00  0.00    +0.000 NA
ATOM      9  C   UNL     1       2.929   2.415  21.622  0.00  0.00    +0.000 A 
ATOM     10  N   UNL     1       3.590   2.543  20.430  0.00  0.00    +0.000 N 
ATOM     11  C   UNL     1       4.665   1.697  19.972  0.00  0.00    +0.000 C 
ATOM     12  C   UNL     1       3.122   3.686  19.846  0.00  0.00    +0.000 A 
ENDROOT
BRANCH   1  13
ATOM     13  C   UNL     1       5.042   5.094  19.085  0.00  0.00    +0.000 C 
BRANCH  13  14
ATOM     14  O   UNL     1       6.227   4.319  18.861  0.00  0.00    +0.000 OA
BRANCH  14  16
ATOM     15  C   UNL     1       7.294   6.233  17.809  0.00  0.00    +0.000 C 
ATOM     16  C   UNL     1       6.972   4.755  17.720  0.00  0.00    +0.000 C 
ENDBRANCH  14  16
ENDBRANCH  13  14
ENDBRANCH   1  13
BRANCH   4  17
ATOM     17  C   UNL     1       2.654   8.539  18.346  0.00  0.00    +0.000 C 
BRANCH  17  18
ATOM     18  O   UNL     1       1.639   9.303  17.720  0.00  0.00    +0.000 OA
BRANCH  18  19
ATOM     19  C   UNL     1       1.317  10.558  18.182  0.00  0.00    +0.000 A 
ATOM     20  C   UNL     1       2.386  11.465  17.984  0.00  0.00    +0.000 A 
ATOM     21  C   UNL     1       2.279  12.811  18.338  0.00  0.00    +0.000 A 
ATOM     22  C   UNL     1       1.093  13.288  18.872  0.00  0.00    +0.000 A 
ATOM     23  C   UNL     1       0.016  12.416  19.051  0.00  0.00    +0.000 A 
ATOM     24  C   UNL     1       0.107  11.045  18.708  0.00  0.00    +0.000 A 
ATOM     25  C   UNL     1      -1.148  10.242  18.893  0.00  0.00    +0.000 C 
ENDBRANCH  18  19
ENDBRANCH  17  18
ENDBRANCH   4  17
TORSDOF 6
ENDMDL
MODEL 6
REMARK VINA RESULT:      -6.9      5.335      7.482
REMARK  Name = 
REMARK  9 active torsions:
REMARK  status: ('A' for Active; 'I' for Inactive)
REMARK    1  A    between atoms: C_1  and  C_2
REMARK    2  A    between atoms: C_2  and  O_3
REMARK    3  A    between atoms: O_3  and  C_4
REMARK    4  A    between atoms: C_4  and  C_5
REMARK    5  A    between atoms: C_8  and  C_10
REMARK    6  A    between atoms: C_10  and  O_11
REMARK    7  A    between atoms: O_11  and  C_12
REMARK    8  A    between atoms: C_17  and  C_18
REMARK    9  A    between atoms: N_23  and  C_24
REMARK                            x       y       z     vdW  Elec       q    Type
REMARK                         _______ _______ _______ _____ _____    ______ ____
ROOT
ATOM      1  C   UNL     1       0.012  10.866  19.662  0.00  0.00    +0.000 C 
ATOM      2  C   UNL     1       1.397  10.164  19.529  0.00  0.00    +0.000 C 
ATOM      3  N   UNL     1       1.483   8.924  20.322  0.00  0.00    +0.000 N 
ATOM      4  C   UNL     1       1.846   7.673  19.828  0.00  0.00    +0.000 C 
ATOM      5  O   UNL     1       1.914   6.692  20.579  0.00  0.00    +0.000 OA
ATOM      6  C   UNL     1       1.246   9.054  21.788  0.00  0.00    +0.000 C 
ATOM      7  C   UNL     1       0.261  10.160  22.077  0.00  0.00    +0.000 A 
ATOM      8  N   UNL     1      -0.413  10.324  23.263  0.00  0.00    +0.000 NA
ATOM      9  C   UNL     1      -1.346  11.223  23.020  0.00  0.00    +0.000 A 
ATOM     10  N   UNL     1      -1.278  11.693  21.735  0.00  0.00    +0.000 N 
ATOM     11  C   UNL     1      -2.178  12.654  21.146  0.00  0.00    +0.000 C 
ATOM     12  C   UNL     1      -0.293  10.982  21.113  0.00  0.00    +0.000 A 
ENDROOT
BRANCH   1  13
ATOM     13  C   UNL     1      -1.128  10.122  18.919  0.00  0.00    +0.000 C 
BRANCH  13  14
ATOM     14  O   UNL     1      -0.939   9.834  17.527  0.00  0.00    +0.000 OA
BRANCH  14  16
ATOM     15  C   UNL     1      -3.366   9.703  17.570  0.00  0.00    +0.000 C 
ATOM     16  C   UNL     1      -2.129  10.016  16.753  0.00  0.00    +0.000 C 
ENDBRANCH  14  16
ENDBRANCH  13  14
ENDBRANCH   1  13
BRANCH   4  17
ATOM     17  C   UNL     1       2.155   7.480  18.326  0.00  0.00    +0.000 C 
BRANCH  17  18
ATOM     18  O   UNL     1       2.596   6.159  18.066  0.00  0.00    +0.000 OA
BRANCH  18  19
ATOM     19  C   UNL     1       3.935   5.877  17.932  0.00  0.00    +0.000 A 
ATOM     20  C   UNL     1       4.610   6.916  17.246  0.00  0.00    +0.000 A 
ATOM     21  C   UNL     1       5.987   6.872  17.024  0.00  0.00    +0.000 A 
ATOM     22  C   UNL     1       6.727   5.805  17.506  0.00  0.00    +0.000 A 
ATOM     23  C   UNL     1       6.085   4.783  18.210  0.00  0.00    +0.000 A 
ATOM     24  C   UNL     1       4.687   4.802  18.437  0.00  0.00    +0.000 A 
ATOM     25  C   UNL     1       4.146   3.672  19.264  0.00  0.00    +0.000 C 
ENDBRANCH  18  19
ENDBRANCH  17  18
ENDBRANCH   4  17
TORSDOF 6
ENDMDL
MODEL 7
REMARK VINA RESULT:      -6.8      5.998      8.414
REMARK  Name = 
REMARK  9 active torsions:
REMARK  status: ('A' for Active; 'I' for Inactive)
REMARK    1  A    between atoms: C_1  and  C_2
REMARK    2  A    between atoms: C_2  and  O_3
REMARK    3  A    between atoms: O_3  and  C_4
REMARK    4  A    between atoms: C_4  and  C_5
REMARK    5  A    between atoms: C_8  and  C_10
REMARK    6  A    between atoms: C_10  and  O_11
REMARK    7  A    between atoms: O_11  and  C_12
REMARK    8  A    between atoms: C_17  and  C_18
REMARK    9  A    between atoms: N_23  and  C_24
REMARK                            x       y       z     vdW  Elec       q    Type
REMARK                         _______ _______ _______ _____ _____    ______ ____
ROOT
ATOM      1  C   UNL     1      -0.487  11.335  19.646  0.00  0.00    +0.000 C 
ATOM      2  C   UNL     1       0.908  10.689  19.902  0.00  0.00    +0.000 C 
ATOM      3  N   UNL     1       0.859   9.612  20.908  0.00  0.00    +0.000 N 
ATOM      4  C   UNL     1       1.328   8.314  20.724  0.00  0.00    +0.000 C 
ATOM      5  O   UNL     1       1.264   7.483  21.640  0.00  0.00    +0.000 OA
ATOM      6  C   UNL     1       0.343   9.985  22.256  0.00  0.00    +0.000 C 
ATOM      7  C   UNL     1      -0.694  11.075  22.152  0.00  0.00    +0.000 A 
ATOM      8  N   UNL     1      -1.585  11.411  23.143  0.00  0.00    +0.000 NA
ATOM      9  C   UNL     1      -2.467  12.208  22.573  0.00  0.00    +0.000 A 
ATOM     10  N   UNL     1      -2.162  12.449  21.259  0.00  0.00    +0.000 N 
ATOM     11  C   UNL     1      -2.945  13.247  20.349  0.00  0.00    +0.000 C 
ATOM     12  C   UNL     1      -1.065  11.688  20.970  0.00  0.00    +0.000 A 
ENDROOT
BRANCH   1  13
ATOM     13  C   UNL     1      -1.452  10.419  18.851  0.00  0.00    +0.000 C 
BRANCH  13  14
ATOM     14  O   UNL     1      -1.853  10.848  17.543  0.00  0.00    +0.000 OA
BRANCH  14  16
ATOM     15  C   UNL     1      -2.777  10.171  15.399  0.00  0.00    +0.000 C 
ATOM     16  C   UNL     1      -2.721   9.915  16.891  0.00  0.00    +0.000 C 
ENDBRANCH  14  16
ENDBRANCH  13  14
ENDBRANCH   1  13
BRANCH   4  17
ATOM     17  C   UNL     1       1.921   7.876  19.365  0.00  0.00    +0.000 C 
BRANCH  17  18
ATOM     18  O   UNL     1       2.876   6.844  19.540  0.00  0.00    +0.000 OA
BRANCH  18  19
ATOM     19  C   UNL     1       2.766   5.660  18.851  0.00  0.00    +0.000 A 
ATOM     20  C   UNL     1       3.683   5.610  17.773  0.00  0.00    +0.000 A 
ATOM     21  C   UNL     1       3.784   4.487  16.949  0.00  0.00    +0.000 A 
ATOM     22  C   UNL     1       2.994   3.377  17.202  0.00  0.00    +0.000 A 
ATOM     23  C   UNL     1       2.103   3.395  18.277  0.00  0.00    +0.000 A 
ATOM     24  C   UNL     1       1.976   4.527  19.118  0.00  0.00    +0.000 A 
ATOM     25  C   UNL     1       1.028   4.380  20.272  0.00  0.00    +0.000 C 
ENDBRANCH  18  19
ENDBRANCH  17  18
ENDBRANCH   4  17
TORSDOF 6
ENDMDL
MODEL 8
REMARK VINA RESULT:      -6.8      4.659      7.637
REMARK  Name = 
REMARK  9 active torsions:
REMARK  status: ('A' for Active; 'I' for Inactive)
REMARK    1  A    between atoms: C_1  and  C_2
REMARK    2  A    between atoms: C_2  and  O_3
REMARK    3  A    between atoms: O_3  and  C_4
REMARK    4  A    between atoms: C_4  and  C_5
REMARK    5  A    between atoms: C_8  and  C_10
REMARK    6  A    between atoms: C_10  and  O_11
REMARK    7  A    between atoms: O_11  and  C_12
REMARK    8  A    between atoms: C_17  and  C_18
REMARK    9  A    between atoms: N_23  and  C_24
REMARK                            x       y       z     vdW  Elec       q    Type
REMARK                         _______ _______ _______ _____ _____    ______ ____
ROOT
ATOM      1  C   UNL     1       3.000   4.945  19.069  0.00  0.00    +0.000 C 
ATOM      2  C   UNL     1       3.164   6.439  19.482  0.00  0.00    +0.000 C 
ATOM      3  N   UNL     1       3.143   7.352  18.324  0.00  0.00    +0.000 N 
ATOM      4  C   UNL     1       2.302   8.453  18.179  0.00  0.00    +0.000 C 
ATOM      5  O   UNL     1       2.377   9.178  17.179  0.00  0.00    +0.000 OA
ATOM      6  C   UNL     1       4.175   7.118  17.274  0.00  0.00    +0.000 C 
ATOM      7  C   UNL     1       4.513   5.651  17.171  0.00  0.00    +0.000 A 
ATOM      8  N   UNL     1       5.161   5.065  16.111  0.00  0.00    +0.000 NA
ATOM      9  C   UNL     1       5.027   3.766  16.286  0.00  0.00    +0.000 A 
ATOM     10  N   UNL     1       4.361   3.474  17.447  0.00  0.00    +0.000 N 
ATOM     11  C   UNL     1       4.021   2.151  17.909  0.00  0.00    +0.000 C 
ATOM     12  C   UNL     1       3.982   4.670  17.988  0.00  0.00    +0.000 A 
ENDROOT
BRANCH   1  13
ATOM     13  C   UNL     1       1.563   4.588  18.609  0.00  0.00    +0.000 C 
BRANCH  13  14
ATOM     14  O   UNL     1       0.950   3.424  19.180  0.00  0.00    +0.000 OA
BRANCH  14  16
ATOM     15  C   UNL     1       1.652   2.525  21.326  0.00  0.00    +0.000 C 
ATOM     16  C   UNL     1       0.776   3.523  20.597  0.00  0.00    +0.000 C 
ENDBRANCH  14  16
ENDBRANCH  13  14
ENDBRANCH   1  13
BRANCH   4  17
ATOM     17  C   UNL     1       1.244   8.782  19.257  0.00  0.00    +0.000 C 
BRANCH  17  18
ATOM     18  O   UNL     1       1.000  10.176  19.315  0.00  0.00    +0.000 OA
BRANCH  18  19
ATOM     19  C   UNL     1      -0.258  10.681  19.088  0.00  0.00    +0.000 A 
ATOM     20  C   UNL     1      -0.879  10.032  17.994  0.00  0.00    +0.000 A 
ATOM     21  C   UNL     1      -2.180  10.348  17.597  0.00  0.00    +0.000 A 
ATOM     22  C   UNL     1      -2.900  11.299  18.301  0.00  0.00    +0.000 A 
ATOM     23  C   UNL     1      -2.316  11.933  19.400  0.00  0.00    +0.000 A 
ATOM     24  C   UNL     1      -0.995  11.635  19.814  0.00  0.00    +0.000 A 
ATOM     25  C   UNL     1      -0.522  12.344  21.050  0.00  0.00    +0.000 C 
ENDBRANCH  18  19
ENDBRANCH  17  18
ENDBRANCH   4  17
TORSDOF 6
ENDMDL
MODEL 9
REMARK VINA RESULT:      -6.8      5.686      7.615
REMARK  Name = 
REMARK  9 active torsions:
REMARK  status: ('A' for Active; 'I' for Inactive)
REMARK    1  A    between atoms: C_1  and  C_2
REMARK    2  A    between atoms: C_2  and  O_3
REMARK    3  A    between atoms: O_3  and  C_4
REMARK    4  A    between atoms: C_4  and  C_5
REMARK    5  A    between atoms: C_8  and  C_10
REMARK    6  A    between atoms: C_10  and  O_11
REMARK    7  A    between atoms: O_11  and  C_12
REMARK    8  A    between atoms: C_17  and  C_18
REMARK    9  A    between atoms: N_23  and  C_24
REMARK                            x       y       z     vdW  Elec       q    Type
REMARK                         _______ _______ _______ _____ _____    ______ ____
ROOT
ATOM      1  C   UNL     1      -0.218  11.115  19.644  0.00  0.00    +0.000 C 
ATOM      2  C   UNL     1       1.173  10.420  19.539  0.00  0.00    +0.000 C 
ATOM      3  N   UNL     1       1.262   9.201  20.364  0.00  0.00    +0.000 N 
ATOM      4  C   UNL     1       1.637   7.941  19.905  0.00  0.00    +0.000 C 
ATOM      5  O   UNL     1       1.706   6.980  20.682  0.00  0.00    +0.000 OA
ATOM      6  C   UNL     1       1.014   9.368  21.825  0.00  0.00    +0.000 C 
ATOM      7  C   UNL     1       0.019  10.474  22.078  0.00  0.00    +0.000 A 
ATOM      8  N   UNL     1      -0.664  10.664  23.255  0.00  0.00    +0.000 NA
ATOM      9  C   UNL     1      -1.601  11.550  22.983  0.00  0.00    +0.000 A 
ATOM     10  N   UNL     1      -1.528  11.987  21.687  0.00  0.00    +0.000 N 
ATOM     11  C   UNL     1      -2.430  12.926  21.066  0.00  0.00    +0.000 C 
ATOM     12  C   UNL     1      -0.534  11.266  21.090  0.00  0.00    +0.000 A 
ENDROOT
BRANCH   1  13
ATOM     13  C   UNL     1      -1.347  10.345  18.913  0.00  0.00    +0.000 C 
BRANCH  13  14
ATOM     14  O   UNL     1      -2.148  11.071  17.972  0.00  0.00    +0.000 OA
BRANCH  14  16
ATOM     15  C   UNL     1      -3.037   9.834  16.078  0.00  0.00    +0.000 C 
ATOM     16  C   UNL     1      -3.268  10.319  17.494  0.00  0.00    +0.000 C 
ENDBRANCH  14  16
ENDBRANCH  13  14
ENDBRANCH   1  13
BRANCH   4  17
ATOM     17  C   UNL     1       1.958   7.712  18.411  0.00  0.00    +0.000 C 
BRANCH  17  18
ATOM     18  O   UNL     1       3.348   7.524  18.216  0.00  0.00    +0.000 OA
BRANCH  18  19
ATOM     19  C   UNL     1       3.845   6.308  17.811  0.00  0.00    +0.000 A 
ATOM     20  C   UNL     1       2.841   5.310  17.841  0.00  0.00    +0.000 A 
ATOM     21  C   UNL     1       3.099   4.000  17.435  0.00  0.00    +0.000 A 
ATOM     22  C   UNL     1       4.357   3.662  16.963  0.00  0.00    +0.000 A 
ATOM     23  C   UNL     1       5.354   4.638  16.899  0.00  0.00    +0.000 A 
ATOM     24  C   UNL     1       5.118   5.971  17.315  0.00  0.00    +0.000 A 
ATOM     25  C   UNL     1       6.261   6.926  17.128  0.00  0.00    +0.000 C 
ENDBRANCH  18  19
ENDBRANCH  17  18
ENDBRANCH   4  17
TORSDOF 6
ENDMDL
