MODEL 1
REMARK VINA RESULT:      -8.6      0.000      0.000
REMARK  Name = 
REMARK  4 active torsions:
REMARK  status: ('A' for Active; 'I' for Inactive)
REMARK    1  A    between atoms: C_2  and  O_3
REMARK    2  A    between atoms: C_2  and  C_4
REMARK    3  A    between atoms: C_7  and  C_8
REMARK    4  A    between atoms: CB_14  and  CG_15
REMARK                            x       y       z     vdW  Elec       q    Type
REMARK                         _______ _______ _______ _____ _____    ______ ____
ROOT
ATOM      1  C   UNK A   1       3.274   5.863  18.925  0.00  0.00    +0.000 C 
ATOM      2  C   UNK A   1       2.617   7.027  19.074  0.00  0.00    +0.000 A 
ATOM      3  N   UNK A   1       2.691   8.054  18.163  0.00  0.00    +0.000 N 
ATOM      4  C   PHE A   2       2.042   9.256  18.268  0.00  0.00    +0.000 A 
ATOM      5  O   PHE A   2       2.168  10.122  17.409  0.00  0.00    +0.000 OA
ATOM      6  CA  PHE A   2       1.187   9.425  19.497  0.00  0.00    +0.000 A 
ATOM      7  CB  PHE A   2       0.529  10.587  19.651  0.00  0.00    +0.000 C 
ATOM      8  N   PHE A   2       1.117   8.399  20.410  0.00  0.00    +0.000 N 
ATOM      9  C   UNK A   1       1.766   7.199  20.303  0.00  0.00    +0.000 A 
ATOM     10  O   UNK A   1       1.650   6.332  21.164  0.00  0.00    +0.000 OA
ATOM     11  H   UNK A   1       3.272   7.950  17.339  0.00  0.00    +0.000 HD
ATOM     12  H   PHE A   2       0.544   8.510  21.237  0.00  0.00    +0.000 HD
ENDROOT
BRANCH   1  16
ATOM     13  C   UNK A   1       5.804   4.914  15.623  0.00  0.00    +0.000 A 
ATOM     14  C   UNK A   1       5.931   6.149  16.272  0.00  0.00    +0.000 A 
ATOM     15  C   UNK A   1       5.105   6.455  17.358  0.00  0.00    +0.000 A 
ATOM     16  C   UNK A   1       4.151   5.533  17.801  0.00  0.00    +0.000 A 
ATOM     17  C   UNK A   1       4.039   4.293  17.164  0.00  0.00    +0.000 A 
ATOM     18  C   UNK A   1       4.873   3.976  16.090  0.00  0.00    +0.000 A 
BRANCH  13  20
ATOM     19  O   UNK A   1       7.603   5.339  14.120  0.00  0.00    +0.000 OA
ATOM     20  C   UNK A   1       6.682   4.617  14.463  0.00  0.00    +0.000 C 
BRANCH  20  21
ATOM     21  O   UNK A   1       6.337   3.493  13.800  0.00  0.00    +0.000 OA
ATOM     22  H   UNK A   1       7.042   3.097  13.257  0.00  0.00    +0.000 HD
ENDBRANCH  20  21
ENDBRANCH  13  20
ENDBRANCH   1  16
BRANCH   7  23
ATOM     23  CG  PHE A   2      -0.314  10.926  20.800  0.00  0.00    +0.000 A 
ATOM     24  CD1 PHE A   2      -1.308  11.902  20.670  0.00  0.00    +0.000 A 
ATOM     25  CE1 PHE A   2      -2.114  12.234  21.762  0.00  0.00    +0.000 A 
ATOM     26  CZ  PHE A   2      -1.931  11.590  22.984  0.00  0.00    +0.000 A 
ATOM     27  CE2 PHE A   2      -0.940  10.617  23.120  0.00  0.00    +0.000 A 
ATOM     28  CD2 PHE A   2      -0.130  10.287  22.031  0.00  0.00    +0.000 A 
ENDBRANCH   7  23
TORSDOF 4
ENDMDL
MODEL 2
REMARK VINA RESULT:      -8.6      0.609      1.114
REMARK  Name = 
REMARK  4 active torsions:
REMARK  status: ('A' for Active; 'I' for Inactive)
REMARK    1  A    between atoms: C_2  and  O_3
REMARK    2  A    between atoms: C_2  and  C_4
REMARK    3  A    between atoms: C_7  and  C_8
REMARK    4  A    between atoms: CB_14  and  CG_15
REMARK                            x       y       z     vdW  Elec       q    Type
REMARK                         _______ _______ _______ _____ _____    ______ ____
ROOT
ATOM      1  C   UNK A   1       3.485   5.530  18.549  0.00  0.00    +0.000 C 
ATOM      2  C   UNK A   1       2.825   6.676  18.794  0.00  0.00    +0.000 A 
ATOM      3  N   UNK A   1       2.813   7.738  17.921  0.00  0.00    +0.000 N 
ATOM      4  C   PHE A   2       2.157   8.924  18.123  0.00  0.00    +0.000 A 
ATOM      5  O   PHE A   2       2.202   9.823  17.290  0.00  0.00    +0.000 OA
ATOM      6  CA  PHE A   2       1.401   9.032  19.421  0.00  0.00    +0.000 A 
ATOM      7  CB  PHE A   2       0.741  10.176  19.672  0.00  0.00    +0.000 C 
ATOM      8  N   PHE A   2       1.418   7.972  20.297  0.00  0.00    +0.000 N 
ATOM      9  C   UNK A   1       2.073   6.788  20.093  0.00  0.00    +0.000 A 
ATOM     10  O   UNK A   1       2.038   5.887  20.927  0.00  0.00    +0.000 OA
ATOM     11  H   UNK A   1       3.326   7.674  17.050  0.00  0.00    +0.000 HD
ATOM     12  H   PHE A   2       0.912   8.042  21.171  0.00  0.00    +0.000 HD
ENDROOT
BRANCH   1  16
ATOM     13  C   UNK A   1       5.816   4.732  15.067  0.00  0.00    +0.000 A 
ATOM     14  C   UNK A   1       5.272   3.673  15.804  0.00  0.00    +0.000 A 
ATOM     15  C   UNK A   1       4.503   3.937  16.941  0.00  0.00    +0.000 A 
ATOM     16  C   UNK A   1       4.273   5.257  17.348  0.00  0.00    +0.000 A 
ATOM     17  C   UNK A   1       4.802   6.313  16.598  0.00  0.00    +0.000 A 
ATOM     18  C   UNK A   1       5.557   6.054  15.453  0.00  0.00    +0.000 A 
BRANCH  13  20
ATOM     19  O   UNK A   1       7.486   5.185  13.429  0.00  0.00    +0.000 OA
ATOM     20  C   UNK A   1       6.642   4.426  13.871  0.00  0.00    +0.000 C 
BRANCH  20  21
ATOM     21  O   UNK A   1       6.337   3.243  13.295  0.00  0.00    +0.000 OA
ATOM     22  H   UNK A   1       5.955   2.575  13.893  0.00  0.00    +0.000 HD
ENDBRANCH  20  21
ENDBRANCH  13  20
ENDBRANCH   1  16
BRANCH   7  23
ATOM     23  CG  PHE A   2      -0.012  10.458  20.896  0.00  0.00    +0.000 A 
ATOM     24  CD1 PHE A   2      -0.873  11.560  20.946  0.00  0.00    +0.000 A 
ATOM     25  CE1 PHE A   2      -1.592  11.838  22.111  0.00  0.00    +0.000 A 
ATOM     26  CZ  PHE A   2      -1.456  11.014  23.227  0.00  0.00    +0.000 A 
ATOM     27  CE2 PHE A   2      -0.598   9.916  23.184  0.00  0.00    +0.000 A 
ATOM     28  CD2 PHE A   2       0.126   9.638  22.022  0.00  0.00    +0.000 A 
ENDBRANCH   7  23
TORSDOF 4
ENDMDL
MODEL 3
REMARK VINA RESULT:      -8.5      0.206      1.514
REMARK  Name = 
REMARK  4 active torsions:
REMARK  status: ('A' for Active; 'I' for Inactive)
REMARK    1  A    between atoms: C_2  and  O_3
REMARK    2  A    between atoms: C_2  and  C_4
REMARK    3  A    between atoms: C_7  and  C_8
REMARK    4  A    between atoms: CB_14  and  CG_15
REMARK                            x       y       z     vdW  Elec       q    Type
REMARK                         _______ _______ _______ _____ _____    ______ ____
ROOT
ATOM      1  C   UNK A   1       3.191   5.873  18.755  0.00  0.00    +0.000 C 
ATOM      2  C   UNK A   1       2.552   7.040  18.951  0.00  0.00    +0.000 A 
ATOM      3  N   UNK A   1       2.623   8.093  18.070  0.00  0.00    +0.000 N 
ATOM      4  C   PHE A   2       1.991   9.299  18.222  0.00  0.00    +0.000 A 
ATOM      5  O   PHE A   2       2.112  10.189  17.386  0.00  0.00    +0.000 OA
ATOM      6  CA  PHE A   2       1.161   9.442  19.471  0.00  0.00    +0.000 A 
ATOM      7  CB  PHE A   2       0.521  10.607  19.672  0.00  0.00    +0.000 C 
ATOM      8  N   PHE A   2       1.095   8.390  20.355  0.00  0.00    +0.000 N 
ATOM      9  C   UNK A   1       1.726   7.186  20.200  0.00  0.00    +0.000 A 
ATOM     10  O   UNK A   1       1.615   6.295  21.038  0.00  0.00    +0.000 OA
ATOM     11  H   UNK A   1       3.186   8.006  17.232  0.00  0.00    +0.000 HD
ATOM     12  H   PHE A   2       0.539   8.484  21.196  0.00  0.00    +0.000 HD
ENDROOT
BRANCH   1  16
ATOM     13  C   UNK A   1       5.703   4.969  15.427  0.00  0.00    +0.000 A 
ATOM     14  C   UNK A   1       4.941   3.958  16.025  0.00  0.00    +0.000 A 
ATOM     15  C   UNK A   1       4.113   4.258  17.112  0.00  0.00    +0.000 A 
ATOM     16  C   UNK A   1       4.042   5.565  17.606  0.00  0.00    +0.000 A 
ATOM     17  C   UNK A   1       4.789   6.577  16.994  0.00  0.00    +0.000 A 
ATOM     18  C   UNK A   1       5.605   6.285  15.899  0.00  0.00    +0.000 A 
BRANCH  13  20
ATOM     19  O   UNK A   1       6.339   3.724  13.498  0.00  0.00    +0.000 OA
ATOM     20  C   UNK A   1       6.585   4.623  14.284  0.00  0.00    +0.000 C 
BRANCH  20  21
ATOM     21  O   UNK A   1       7.707   5.372  14.224  0.00  0.00    +0.000 OA
ATOM     22  H   UNK A   1       7.988   5.628  13.327  0.00  0.00    +0.000 HD
ENDBRANCH  20  21
ENDBRANCH  13  20
ENDBRANCH   1  16
BRANCH   7  23
ATOM     23  CG  PHE A   2      -0.296  10.922  20.846  0.00  0.00    +0.000 A 
ATOM     24  CD1 PHE A   2      -0.101  10.217  22.039  0.00  0.00    +0.000 A 
ATOM     25  CE1 PHE A   2      -0.877  10.509  23.163  0.00  0.00    +0.000 A 
ATOM     26  CZ  PHE A   2      -1.848  11.507  23.099  0.00  0.00    +0.000 A 
ATOM     27  CE2 PHE A   2      -2.049  12.211  21.912  0.00  0.00    +0.000 A 
ATOM     28  CD2 PHE A   2      -1.276  11.918  20.786  0.00  0.00    +0.000 A 
ENDBRANCH   7  23
TORSDOF 4
ENDMDL
MODEL 4
REMARK VINA RESULT:      -8.3      2.756      3.664
REMARK  Name = 
REMARK  4 active torsions:
REMARK  status: ('A' for Active; 'I' for Inactive)
REMARK    1  A    between atoms: C_2  and  O_3
REMARK    2  A    between atoms: C_2  and  C_4
REMARK    3  A    between atoms: C_7  and  C_8
REMARK    4  A    between atoms: CB_14  and  CG_15
REMARK                            x       y       z     vdW  Elec       q    Type
REMARK                         _______ _______ _______ _____ _____    ______ ____
ROOT
ATOM      1  C   UNK A   1       2.696   7.148  18.126  0.00  0.00    +0.000 C 
ATOM      2  C   UNK A   1       2.108   8.022  18.962  0.00  0.00    +0.000 A 
ATOM      3  N   UNK A   1       1.855   7.743  20.284  0.00  0.00    +0.000 N 
ATOM      4  C   PHE A   2       1.260   8.598  21.176  0.00  0.00    +0.000 A 
ATOM      5  O   PHE A   2       1.068   8.266  22.341  0.00  0.00    +0.000 OA
ATOM      6  CA  PHE A   2       0.867   9.941  20.621  0.00  0.00    +0.000 A 
ATOM      7  CB  PHE A   2       0.278  10.818  21.452  0.00  0.00    +0.000 C 
ATOM      8  N   PHE A   2       1.116  10.218  19.296  0.00  0.00    +0.000 N 
ATOM      9  C   UNK A   1       1.710   9.364  18.408  0.00  0.00    +0.000 A 
ATOM     10  O   UNK A   1       1.899   9.688  17.239  0.00  0.00    +0.000 OA
ATOM     11  H   UNK A   1       2.110   6.838  20.662  0.00  0.00    +0.000 HD
ATOM     12  H   PHE A   2       0.852  11.120  18.920  0.00  0.00    +0.000 HD
ENDROOT
BRANCH   1  16
ATOM     13  C   UNK A   1       3.989   3.216  19.159  0.00  0.00    +0.000 A 
ATOM     14  C   UNK A   1       4.844   4.308  19.351  0.00  0.00    +0.000 A 
ATOM     15  C   UNK A   1       4.417   5.597  19.017  0.00  0.00    +0.000 A 
ATOM     16  C   UNK A   1       3.135   5.802  18.493  0.00  0.00    +0.000 A 
ATOM     17  C   UNK A   1       2.275   4.712  18.321  0.00  0.00    +0.000 A 
ATOM     18  C   UNK A   1       2.693   3.425  18.668  0.00  0.00    +0.000 A 
BRANCH  13  20
ATOM     19  O   UNK A   1       5.124   1.613  20.508  0.00  0.00    +0.000 OA
ATOM     20  C   UNK A   1       4.471   1.855  19.507  0.00  0.00    +0.000 C 
BRANCH  20  21
ATOM     21  O   UNK A   1       4.153   0.920  18.587  0.00  0.00    +0.000 OA
ATOM     22  H   UNK A   1       4.909   0.435  18.208  0.00  0.00    +0.000 HD
ENDBRANCH  20  21
ENDBRANCH  13  20
ENDBRANCH   1  16
BRANCH   7  23
ATOM     23  CG  PHE A   2      -0.196  12.149  21.066  0.00  0.00    +0.000 A 
ATOM     24  CD1 PHE A   2      -1.531  12.330  20.685  0.00  0.00    +0.000 A 
ATOM     25  CE1 PHE A   2      -1.990  13.595  20.312  0.00  0.00    +0.000 A 
ATOM     26  CZ  PHE A   2      -1.120  14.683  20.323  0.00  0.00    +0.000 A 
ATOM     27  CE2 PHE A   2       0.212  14.509  20.700  0.00  0.00    +0.000 A 
ATOM     28  CD2 PHE A   2       0.675  13.244  21.068  0.00  0.00    +0.000 A 
ENDBRANCH   7  23
TORSDOF 4
ENDMDL
MODEL 5
REMARK VINA RESULT:      -8.3      2.722      3.788
REMARK  Name = 
REMARK  4 active torsions:
REMARK  status: ('A' for Active; 'I' for Inactive)
REMARK    1  A    between atoms: C_2  and  O_3
REMARK    2  A    between atoms: C_2  and  C_4
REMARK    3  A    between atoms: C_7  and  C_8
REMARK    4  A    between atoms: CB_14  and  CG_15
REMARK                            x       y       z     vdW  Elec       q    Type
REMARK                         _______ _______ _______ _____ _____    ______ ____
ROOT
ATOM      1  C   UNK A   1       2.672   7.339  18.113  0.00  0.00    +0.000 C 
ATOM      2  C   UNK A   1       2.070   8.185  18.967  0.00  0.00    +0.000 A 
ATOM      3  N   UNK A   1       1.813   7.871  20.281  0.00  0.00    +0.000 N 
ATOM      4  C   PHE A   2       1.205   8.696  21.190  0.00  0.00    +0.000 A 
ATOM      5  O   PHE A   2       1.011   8.333  22.345  0.00  0.00    +0.000 OA
ATOM      6  CA  PHE A   2       0.801  10.049  20.667  0.00  0.00    +0.000 A 
ATOM      7  CB  PHE A   2       0.197  10.898  21.517  0.00  0.00    +0.000 C 
ATOM      8  N   PHE A   2       1.053  10.361  19.351  0.00  0.00    +0.000 N 
ATOM      9  C   UNK A   1       1.661   9.536  18.445  0.00  0.00    +0.000 A 
ATOM     10  O   UNK A   1       1.851   9.891  17.285  0.00  0.00    +0.000 OA
ATOM     11  H   UNK A   1       2.076   6.959  20.637  0.00  0.00    +0.000 HD
ATOM     12  H   PHE A   2       0.781  11.270  18.996  0.00  0.00    +0.000 HD
ENDROOT
BRANCH   1  16
ATOM     13  C   UNK A   1       3.975   3.405  19.126  0.00  0.00    +0.000 A 
ATOM     14  C   UNK A   1       2.685   3.608  18.622  0.00  0.00    +0.000 A 
ATOM     15  C   UNK A   1       2.262   4.897  18.285  0.00  0.00    +0.000 A 
ATOM     16  C   UNK A   1       3.123   5.989  18.448  0.00  0.00    +0.000 A 
ATOM     17  C   UNK A   1       4.418   5.780  18.932  0.00  0.00    +0.000 A 
ATOM     18  C   UNK A   1       4.850   4.493  19.256  0.00  0.00    +0.000 A 
BRANCH  13  20
ATOM     19  O   UNK A   1       5.024   1.768  20.503  0.00  0.00    +0.000 OA
ATOM     20  C   UNK A   1       4.397   2.029  19.491  0.00  0.00    +0.000 C 
BRANCH  20  21
ATOM     21  O   UNK A   1       4.054   1.100  18.573  0.00  0.00    +0.000 OA
ATOM     22  H   UNK A   1       3.284   0.549  18.806  0.00  0.00    +0.000 HD
ENDBRANCH  20  21
ENDBRANCH  13  20
ENDBRANCH   1  16
BRANCH   7  23
ATOM     23  CG  PHE A   2      -0.289  12.234  21.162  0.00  0.00    +0.000 A 
ATOM     24  CD1 PHE A   2       0.571  13.334  21.248  0.00  0.00    +0.000 A 
ATOM     25  CE1 PHE A   2       0.115  14.611  20.915  0.00  0.00    +0.000 A 
ATOM     26  CZ  PHE A   2      -1.201  14.793  20.492  0.00  0.00    +0.000 A 
ATOM     27  CE2 PHE A   2      -2.063  13.700  20.406  0.00  0.00    +0.000 A 
ATOM     28  CD2 PHE A   2      -1.611  12.422  20.743  0.00  0.00    +0.000 A 
ENDBRANCH   7  23
TORSDOF 4
ENDMDL
MODEL 6
REMARK VINA RESULT:      -8.2      2.234      3.608
REMARK  Name = 
REMARK  4 active torsions:
REMARK  status: ('A' for Active; 'I' for Inactive)
REMARK    1  A    between atoms: C_2  and  O_3
REMARK    2  A    between atoms: C_2  and  C_4
REMARK    3  A    between atoms: C_7  and  C_8
REMARK    4  A    between atoms: CB_14  and  CG_15
REMARK                            x       y       z     vdW  Elec       q    Type
REMARK                         _______ _______ _______ _____ _____    ______ ____
ROOT
ATOM      1  C   UNK A   1       1.538   8.365  18.411  0.00  0.00    +0.000 C 
ATOM      2  C   UNK A   1       1.054   9.054  19.459  0.00  0.00    +0.000 A 
ATOM      3  N   UNK A   1       1.498   8.874  20.748  0.00  0.00    +0.000 N 
ATOM      4  C   PHE A   2       1.037   9.550  21.847  0.00  0.00    +0.000 A 
ATOM      5  O   PHE A   2       1.488   9.324  22.965  0.00  0.00    +0.000 OA
ATOM      6  CA  PHE A   2      -0.043  10.564  21.578  0.00  0.00    +0.000 A 
ATOM      7  CB  PHE A   2      -0.532  11.255  22.622  0.00  0.00    +0.000 C 
ATOM      8  N   PHE A   2      -0.491  10.740  20.289  0.00  0.00    +0.000 N 
ATOM      9  C   UNK A   1      -0.030  10.064  19.193  0.00  0.00    +0.000 A 
ATOM     10  O   UNK A   1      -0.482  10.281  18.072  0.00  0.00    +0.000 OA
ATOM     11  H   UNK A   1       2.219   8.187  20.936  0.00  0.00    +0.000 HD
ATOM     12  H   PHE A   2      -1.218  11.420  20.106  0.00  0.00    +0.000 HD
ENDROOT
BRANCH   1  16
ATOM     13  C   UNK A   1       4.596   5.401  18.668  0.00  0.00    +0.000 A 
ATOM     14  C   UNK A   1       3.481   5.332  19.512  0.00  0.00    +0.000 A 
ATOM     15  C   UNK A   1       2.477   6.301  19.422  0.00  0.00    +0.000 A 
ATOM     16  C   UNK A   1       2.580   7.341  18.490  0.00  0.00    +0.000 A 
ATOM     17  C   UNK A   1       3.686   7.395  17.635  0.00  0.00    +0.000 A 
ATOM     18  C   UNK A   1       4.683   6.421  17.711  0.00  0.00    +0.000 A 
BRANCH  13  20
ATOM     19  O   UNK A   1       6.777   4.502  18.332  0.00  0.00    +0.000 OA
ATOM     20  C   UNK A   1       5.656   4.368  18.792  0.00  0.00    +0.000 C 
BRANCH  20  21
ATOM     21  O   UNK A   1       5.246   3.250  19.429  0.00  0.00    +0.000 OA
ATOM     22  H   UNK A   1       4.972   3.376  20.355  0.00  0.00    +0.000 HD
ENDBRANCH  20  21
ENDBRANCH  13  20
ENDBRANCH   1  16
BRANCH   7  23
ATOM     23  CG  PHE A   2      -1.605  12.249  22.540  0.00  0.00    +0.000 A 
ATOM     24  CD1 PHE A   2      -1.407  13.430  21.816  0.00  0.00    +0.000 A 
ATOM     25  CE1 PHE A   2      -2.423  14.384  21.735  0.00  0.00    +0.000 A 
ATOM     26  CZ  PHE A   2      -3.641  14.161  22.375  0.00  0.00    +0.000 A 
ATOM     27  CE2 PHE A   2      -3.844  12.987  23.100  0.00  0.00    +0.000 A 
ATOM     28  CD2 PHE A   2      -2.828  12.033  23.186  0.00  0.00    +0.000 A 
ENDBRANCH   7  23
TORSDOF 4
ENDMDL
MODEL 7
REMARK VINA RESULT:      -8.2      0.848      1.335
REMARK  Name = 
REMARK  4 active torsions:
REMARK  status: ('A' for Active; 'I' for Inactive)
REMARK    1  A    between atoms: C_2  and  O_3
REMARK    2  A    between atoms: C_2  and  C_4
REMARK    3  A    between atoms: C_7  and  C_8
REMARK    4  A    between atoms: CB_14  and  CG_15
REMARK                            x       y       z     vdW  Elec       q    Type
REMARK                         _______ _______ _______ _____ _____    ______ ____
ROOT
ATOM      1  C   UNK A   1       3.940   5.405  18.497  0.00  0.00    +0.000 C 
ATOM      2  C   UNK A   1       3.214   6.509  18.746  0.00  0.00    +0.000 A 
ATOM      3  N   UNK A   1       3.114   7.558  17.864  0.00  0.00    +0.000 N 
ATOM      4  C   PHE A   2       2.388   8.702  18.070  0.00  0.00    +0.000 A 
ATOM      5  O   PHE A   2       2.357   9.593  17.228  0.00  0.00    +0.000 OA
ATOM      6  CA  PHE A   2       1.654   8.775  19.383  0.00  0.00    +0.000 A 
ATOM      7  CB  PHE A   2       0.928   9.877  19.637  0.00  0.00    +0.000 C 
ATOM      8  N   PHE A   2       1.759   7.727  20.267  0.00  0.00    +0.000 N 
ATOM      9  C   UNK A   1       2.484   6.586  20.060  0.00  0.00    +0.000 A 
ATOM     10  O   UNK A   1       2.525   5.693  20.902  0.00  0.00    +0.000 OA
ATOM     11  H   UNK A   1       3.612   7.518  16.982  0.00  0.00    +0.000 HD
ATOM     12  H   PHE A   2       1.268   7.774  21.152  0.00  0.00    +0.000 HD
ENDROOT
BRANCH   1  16
ATOM     13  C   UNK A   1       6.190   4.747  14.932  0.00  0.00    +0.000 A 
ATOM     14  C   UNK A   1       6.647   5.659  15.891  0.00  0.00    +0.000 A 
ATOM     15  C   UNK A   1       5.912   5.868  17.062  0.00  0.00    +0.000 A 
ATOM     16  C   UNK A   1       4.718   5.170  17.281  0.00  0.00    +0.000 A 
ATOM     17  C   UNK A   1       4.275   4.245  16.330  0.00  0.00    +0.000 A 
ATOM     18  C   UNK A   1       5.014   4.021  15.168  0.00  0.00    +0.000 A 
BRANCH  13  20
ATOM     19  O   UNK A   1       7.791   5.365  13.280  0.00  0.00    +0.000 OA
ATOM     20  C   UNK A   1       6.981   4.552  13.691  0.00  0.00    +0.000 C 
BRANCH  20  21
ATOM     21  O   UNK A   1       6.686   3.407  13.038  0.00  0.00    +0.000 OA
ATOM     22  H   UNK A   1       7.139   2.611  13.370  0.00  0.00    +0.000 HD
ENDBRANCH  20  21
ENDBRANCH  13  20
ENDBRANCH   1  16
BRANCH   7  23
ATOM     23  CG  PHE A   2       0.185  10.123  20.876  0.00  0.00    +0.000 A 
ATOM     24  CD1 PHE A   2       0.233   9.186  21.914  0.00  0.00    +0.000 A 
ATOM     25  CE1 PHE A   2      -0.475   9.411  23.097  0.00  0.00    +0.000 A 
ATOM     26  CZ  PHE A   2      -1.230  10.572  23.247  0.00  0.00    +0.000 A 
ATOM     27  CE2 PHE A   2      -1.284  11.508  22.215  0.00  0.00    +0.000 A 
ATOM     28  CD2 PHE A   2      -0.580  11.284  21.029  0.00  0.00    +0.000 A 
ENDBRANCH   7  23
TORSDOF 4
ENDMDL
MODEL 8
REMARK VINA RESULT:      -8.1      2.334      3.857
REMARK  Name = 
REMARK  4 active torsions:
REMARK  status: ('A' for Active; 'I' for Inactive)
REMARK    1  A    between atoms: C_2  and  O_3
REMARK    2  A    between atoms: C_2  and  C_4
REMARK    3  A    between atoms: C_7  and  C_8
REMARK    4  A    between atoms: CB_14  and  CG_15
REMARK                            x       y       z     vdW  Elec       q    Type
REMARK                         _______ _______ _______ _____ _____    ______ ____
ROOT
ATOM      1  C   UNK A   1       1.410   8.758  18.478  0.00  0.00    +0.000 C 
ATOM      2  C   UNK A   1       0.906   9.402  19.546  0.00  0.00    +0.000 A 
ATOM      3  N   UNK A   1       1.279   9.119  20.838  0.00  0.00    +0.000 N 
ATOM      4  C   PHE A   2       0.797   9.745  21.958  0.00  0.00    +0.000 A 
ATOM      5  O   PHE A   2       1.183   9.426  23.078  0.00  0.00    +0.000 OA
ATOM      6  CA  PHE A   2      -0.223  10.824  21.708  0.00  0.00    +0.000 A 
ATOM      7  CB  PHE A   2      -0.731  11.470  22.773  0.00  0.00    +0.000 C 
ATOM      8  N   PHE A   2      -0.599  11.103  20.415  0.00  0.00    +0.000 N 
ATOM      9  C   UNK A   1      -0.117  10.478  19.298  0.00  0.00    +0.000 A 
ATOM     10  O   UNK A   1      -0.505  10.787  18.175  0.00  0.00    +0.000 OA
ATOM     11  H   UNK A   1       1.958   8.388  21.014  0.00  0.00    +0.000 HD
ATOM     12  H   PHE A   2      -1.286  11.828  20.244  0.00  0.00    +0.000 HD
ENDROOT
BRANCH   1  16
ATOM     13  C   UNK A   1       4.319   5.645  18.671  0.00  0.00    +0.000 A 
ATOM     14  C   UNK A   1       3.283   5.694  19.611  0.00  0.00    +0.000 A 
ATOM     15  C   UNK A   1       2.326   6.712  19.542  0.00  0.00    +0.000 A 
ATOM     16  C   UNK A   1       2.399   7.683  18.536  0.00  0.00    +0.000 A 
ATOM     17  C   UNK A   1       3.425   7.619  17.587  0.00  0.00    +0.000 A 
ATOM     18  C   UNK A   1       4.372   6.596  17.643  0.00  0.00    +0.000 A 
BRANCH  13  20
ATOM     19  O   UNK A   1       6.379   4.683  19.385  0.00  0.00    +0.000 OA
ATOM     20  C   UNK A   1       5.331   4.562  18.773  0.00  0.00    +0.000 C 
BRANCH  20  21
ATOM     21  O   UNK A   1       4.997   3.447  18.089  0.00  0.00    +0.000 OA
ATOM     22  H   UNK A   1       4.134   3.478  17.638  0.00  0.00    +0.000 HD
ENDBRANCH  20  21
ENDBRANCH  13  20
ENDBRANCH   1  16
BRANCH   7  23
ATOM     23  CG  PHE A   2      -1.753  12.517  22.708  0.00  0.00    +0.000 A 
ATOM     24  CD1 PHE A   2      -3.094  12.198  22.950  0.00  0.00    +0.000 A 
ATOM     25  CE1 PHE A   2      -4.075  13.190  22.887  0.00  0.00    +0.000 A 
ATOM     26  CZ  PHE A   2      -3.720  14.503  22.585  0.00  0.00    +0.000 A 
ATOM     27  CE2 PHE A   2      -2.385  14.827  22.340  0.00  0.00    +0.000 A 
ATOM     28  CD2 PHE A   2      -1.403  13.836  22.398  0.00  0.00    +0.000 A 
ENDBRANCH   7  23
TORSDOF 4
ENDMDL
MODEL 9
REMARK VINA RESULT:      -8.1      2.337      3.763
REMARK  Name = 
REMARK  4 active torsions:
REMARK  status: ('A' for Active; 'I' for Inactive)
REMARK    1  A    between atoms: C_2  and  O_3
REMARK    2  A    between atoms: C_2  and  C_4
REMARK    3  A    between atoms: C_7  and  C_8
REMARK    4  A    between atoms: CB_14  and  CG_15
REMARK                            x       y       z     vdW  Elec       q    Type
REMARK                         _______ _______ _______ _____ _____    ______ ____
ROOT
ATOM      1  C   UNK A   1       1.411   8.727  18.482  0.00  0.00    +0.000 C 
ATOM      2  C   UNK A   1       0.905   9.387  19.539  0.00  0.00    +0.000 A 
ATOM      3  N   UNK A   1       1.277   9.126  20.837  0.00  0.00    +0.000 N 
ATOM      4  C   PHE A   2       0.792   9.768  21.946  0.00  0.00    +0.000 A 
ATOM      5  O   PHE A   2       1.177   9.468  23.071  0.00  0.00    +0.000 OA
ATOM      6  CA  PHE A   2      -0.229  10.842  21.677  0.00  0.00    +0.000 A 
ATOM      7  CB  PHE A   2      -0.740  11.503  22.730  0.00  0.00    +0.000 C 
ATOM      8  N   PHE A   2      -0.604  11.099  20.379  0.00  0.00    +0.000 N 
ATOM      9  C   UNK A   1      -0.119  10.457  19.273  0.00  0.00    +0.000 A 
ATOM     10  O   UNK A   1      -0.506  10.747  18.145  0.00  0.00    +0.000 OA
ATOM     11  H   UNK A   1       1.958   8.399  21.025  0.00  0.00    +0.000 HD
ATOM     12  H   PHE A   2      -1.292  11.819  20.195  0.00  0.00    +0.000 HD
ENDROOT
BRANCH   1  16
ATOM     13  C   UNK A   1       4.282   5.578  18.684  0.00  0.00    +0.000 A 
ATOM     14  C   UNK A   1       4.380   6.553  17.684  0.00  0.00    +0.000 A 
ATOM     15  C   UNK A   1       3.442   7.588  17.623  0.00  0.00    +0.000 A 
ATOM     16  C   UNK A   1       2.403   7.655  18.559  0.00  0.00    +0.000 A 
ATOM     17  C   UNK A   1       2.319   6.691  19.569  0.00  0.00    +0.000 A 
ATOM     18  C   UNK A   1       3.263   5.665  19.643  0.00  0.00    +0.000 A 
BRANCH  13  20
ATOM     19  O   UNK A   1       6.368   4.583  19.262  0.00  0.00    +0.000 OA
ATOM     20  C   UNK A   1       5.282   4.480  18.719  0.00  0.00    +0.000 C 
BRANCH  20  21
ATOM     21  O   UNK A   1       4.887   3.372  18.056  0.00  0.00    +0.000 OA
ATOM     22  H   UNK A   1       4.057   3.461  17.554  0.00  0.00    +0.000 HD
ENDBRANCH  20  21
ENDBRANCH  13  20
ENDBRANCH   1  16
BRANCH   7  23
ATOM     23  CG  PHE A   2      -1.764  12.547  22.648  0.00  0.00    +0.000 A 
ATOM     24  CD1 PHE A   2      -1.392  13.865  22.360  0.00  0.00    +0.000 A 
ATOM     25  CE1 PHE A   2      -2.362  14.868  22.283  0.00  0.00    +0.000 A 
ATOM     26  CZ  PHE A   2      -3.704  14.556  22.489  0.00  0.00    +0.000 A 
ATOM     27  CE2 PHE A   2      -4.080  13.244  22.777  0.00  0.00    +0.000 A 
ATOM     28  CD2 PHE A   2      -3.112  12.241  22.860  0.00  0.00    +0.000 A 
ENDBRANCH   7  23
TORSDOF 4
ENDMDL
