MODEL 1
REMARK VINA RESULT:      -7.9      0.000      0.000
REMARK  Name = 
REMARK  6 active torsions:
REMARK  status: ('A' for Active; 'I' for Inactive)
REMARK    1  A    between atoms: C_2  and  C_13
REMARK    2  A    between atoms: N_3  and  C_4
REMARK    3  A    between atoms: C_4  and  C_5
REMARK    4  A    between atoms: C_5  and  C_6
REMARK    5  A    between atoms: C_6  and  N_7
REMARK    6  A    between atoms: C_17  and  N_18
REMARK                            x       y       z     vdW  Elec       q    Type
REMARK                         _______ _______ _______ _____ _____    ______ ____
ROOT
ATOM      1  O   UNL     1       3.734   7.539  17.408  0.00  0.00    +0.000 OA
ATOM      2  C   UNL     1       4.142   6.565  18.032  0.00  0.00    +0.000 C 
ATOM      3  N   UNL     1       3.551   6.092  19.184  0.00  0.00    +0.000 N 
ATOM      4  H   UNL     1       4.006   5.365  19.720  0.00  0.00    +0.000 HD
ENDROOT
BRANCH   2   5
ATOM      5  C   UNL     1       5.362   5.847  17.577  0.00  0.00    +0.000 A 
ATOM      6  C   UNL     1       6.419   5.585  18.451  0.00  0.00    +0.000 A 
ATOM      7  C   UNL     1       7.538   4.905  17.981  0.00  0.00    +0.000 A 
ATOM      8  C   UNL     1       7.614   4.512  16.641  0.00  0.00    +0.000 A 
ATOM      9  C   UNL     1       6.581   4.792  15.736  0.00  0.00    +0.000 A 
ATOM     10  C   UNL     1       5.435   5.432  16.237  0.00  0.00    +0.000 A 
BRANCH   9  11
ATOM     11  N   UNL     1       6.696   4.485  14.350  0.00  0.00    +0.000 N 
ATOM     12  C   UNL     1       5.711   3.697  13.645  0.00  0.00    +0.000 C 
ATOM     13  C   UNL     1       6.308   3.475  12.269  0.00  0.00    +0.000 C 
ATOM     14  C   UNL     1       7.164   4.704  12.051  0.00  0.00    +0.000 C 
ATOM     15  C   UNL     1       7.589   5.087  13.447  0.00  0.00    +0.000 C 
ATOM     16  O   UNL     1       8.509   5.861  13.665  0.00  0.00    +0.000 OA
ENDBRANCH   9  11
ENDBRANCH   2   5
BRANCH   3  17
ATOM     17  C   UNL     1       2.356   6.699  19.738  0.00  0.00    +0.000 C 
BRANCH  17  18
ATOM     18  C   UNL     1       1.599   5.740  20.653  0.00  0.00    +0.000 C 
BRANCH  18  19
ATOM     19  C   UNL     1       2.477   4.542  21.011  0.00  0.00    +0.000 C 
BRANCH  19  20
ATOM     20  N   UNL     1       2.354   3.438  20.077  0.00  0.00    +0.000 N 
ATOM     21  C   UNL     1       1.149   3.173  19.335  0.00  0.00    +0.000 C 
ATOM     22  C   UNL     1       1.424   1.817  18.714  0.00  0.00    +0.000 C 
ATOM     23  C   UNL     1       2.929   1.826  18.476  0.00  0.00    +0.000 C 
ATOM     24  C   UNL     1       3.440   2.740  19.564  0.00  0.00    +0.000 C 
ATOM     25  O   UNL     1       4.609   2.874  19.887  0.00  0.00    +0.000 OA
ENDBRANCH  19  20
ENDBRANCH  18  19
ENDBRANCH  17  18
ENDBRANCH   3  17
TORSDOF 6
ENDMDL
MODEL 2
REMARK VINA RESULT:      -7.5      1.196      2.834
REMARK  Name = 
REMARK  6 active torsions:
REMARK  status: ('A' for Active; 'I' for Inactive)
REMARK    1  A    between atoms: C_2  and  C_13
REMARK    2  A    between atoms: N_3  and  C_4
REMARK    3  A    between atoms: C_4  and  C_5
REMARK    4  A    between atoms: C_5  and  C_6
REMARK    5  A    between atoms: C_6  and  N_7
REMARK    6  A    between atoms: C_17  and  N_18
REMARK                            x       y       z     vdW  Elec       q    Type
REMARK                         _______ _______ _______ _____ _____    ______ ____
ROOT
ATOM      1  O   UNL     1       5.286   3.709  19.932  0.00  0.00    +0.000 OA
ATOM      2  C   UNL     1       5.112   3.662  18.719  0.00  0.00    +0.000 C 
ATOM      3  N   UNL     1       4.234   2.795  18.106  0.00  0.00    +0.000 N 
ATOM      4  H   UNL     1       4.228   2.716  17.097  0.00  0.00    +0.000 HD
ENDROOT
BRANCH   2   5
ATOM      5  C   UNL     1       5.899   4.547  17.819  0.00  0.00    +0.000 A 
ATOM      6  C   UNL     1       6.433   5.754  18.273  0.00  0.00    +0.000 A 
ATOM      7  C   UNL     1       7.167   6.546  17.396  0.00  0.00    +0.000 A 
ATOM      8  C   UNL     1       7.345   6.148  16.066  0.00  0.00    +0.000 A 
ATOM      9  C   UNL     1       6.791   4.957  15.577  0.00  0.00    +0.000 A 
ATOM     10  C   UNL     1       6.097   4.143  16.488  0.00  0.00    +0.000 A 
BRANCH   9  11
ATOM     11  N   UNL     1       6.882   4.599  14.203  0.00  0.00    +0.000 N 
ATOM     12  C   UNL     1       5.868   3.812  13.537  0.00  0.00    +0.000 C 
ATOM     13  C   UNL     1       6.443   3.525  12.164  0.00  0.00    +0.000 C 
ATOM     14  C   UNL     1       7.327   4.723  11.892  0.00  0.00    +0.000 C 
ATOM     15  C   UNL     1       7.779   5.145  13.269  0.00  0.00    +0.000 C 
ATOM     16  O   UNL     1       8.722   5.901  13.448  0.00  0.00    +0.000 OA
ENDBRANCH   9  11
ENDBRANCH   2   5
BRANCH   3  17
ATOM     17  C   UNL     1       3.407   1.877  18.864  0.00  0.00    +0.000 C 
BRANCH  17  18
ATOM     18  C   UNL     1       1.919   2.168  18.685  0.00  0.00    +0.000 C 
BRANCH  18  19
ATOM     19  C   UNL     1       1.720   3.521  18.002  0.00  0.00    +0.000 C 
BRANCH  19  20
ATOM     20  N   UNL     1       1.760   4.641  18.924  0.00  0.00    +0.000 N 
ATOM     21  C   UNL     1       1.431   4.518  20.320  0.00  0.00    +0.000 C 
ATOM     22  C   UNL     1       1.377   5.960  20.785  0.00  0.00    +0.000 C 
ATOM     23  C   UNL     1       2.416   6.660  19.918  0.00  0.00    +0.000 C 
ATOM     24  C   UNL     1       2.411   5.838  18.651  0.00  0.00    +0.000 C 
ATOM     25  O   UNL     1       2.938   6.156  17.597  0.00  0.00    +0.000 OA
ENDBRANCH  19  20
ENDBRANCH  18  19
ENDBRANCH  17  18
ENDBRANCH   3  17
TORSDOF 6
ENDMDL
MODEL 3
REMARK VINA RESULT:      -7.5      3.335      7.174
REMARK  Name = 
REMARK  6 active torsions:
REMARK  status: ('A' for Active; 'I' for Inactive)
REMARK    1  A    between atoms: C_2  and  C_13
REMARK    2  A    between atoms: N_3  and  C_4
REMARK    3  A    between atoms: C_4  and  C_5
REMARK    4  A    between atoms: C_5  and  C_6
REMARK    5  A    between atoms: C_6  and  N_7
REMARK    6  A    between atoms: C_17  and  N_18
REMARK                            x       y       z     vdW  Elec       q    Type
REMARK                         _______ _______ _______ _____ _____    ______ ____
ROOT
ATOM      1  O   UNL     1       4.420   5.668  19.651  0.00  0.00    +0.000 OA
ATOM      2  C   UNL     1       3.646   5.921  18.733  0.00  0.00    +0.000 C 
ATOM      3  N   UNL     1       3.505   5.130  17.612  0.00  0.00    +0.000 N 
ATOM      4  H   UNL     1       2.946   5.456  16.835  0.00  0.00    +0.000 HD
ENDROOT
BRANCH   2   5
ATOM      5  C   UNL     1       2.824   7.158  18.772  0.00  0.00    +0.000 A 
ATOM      6  C   UNL     1       2.754   8.019  17.675  0.00  0.00    +0.000 A 
ATOM      7  C   UNL     1       1.966   9.163  17.756  0.00  0.00    +0.000 A 
ATOM      8  C   UNL     1       1.273   9.460  18.934  0.00  0.00    +0.000 A 
ATOM      9  C   UNL     1       1.352   8.629  20.060  0.00  0.00    +0.000 A 
ATOM     10  C   UNL     1       2.109   7.451  19.945  0.00  0.00    +0.000 A 
BRANCH   9  11
ATOM     11  N   UNL     1       0.732   8.979  21.293  0.00  0.00    +0.000 N 
ATOM     12  C   UNL     1      -0.667   8.727  21.557  0.00  0.00    +0.000 C 
ATOM     13  C   UNL     1      -0.936   9.402  22.887  0.00  0.00    +0.000 C 
ATOM     14  C   UNL     1       0.398   9.327  23.600  0.00  0.00    +0.000 C 
ATOM     15  C   UNL     1       1.400   9.355  22.471  0.00  0.00    +0.000 C 
ATOM     16  O   UNL     1       2.586   9.590  22.650  0.00  0.00    +0.000 OA
ENDBRANCH   9  11
ENDBRANCH   2   5
BRANCH   3  17
ATOM     17  C   UNL     1       4.248   3.896  17.446  0.00  0.00    +0.000 C 
BRANCH  17  18
ATOM     18  C   UNL     1       3.330   2.711  17.155  0.00  0.00    +0.000 C 
BRANCH  18  19
ATOM     19  C   UNL     1       3.157   1.853  18.408  0.00  0.00    +0.000 C 
BRANCH  19  20
ATOM     20  N   UNL     1       2.531   2.562  19.508  0.00  0.00    +0.000 N 
ATOM     21  C   UNL     1       1.157   2.993  19.481  0.00  0.00    +0.000 C 
ATOM     22  C   UNL     1       1.054   3.878  20.707  0.00  0.00    +0.000 C 
ATOM     23  C   UNL     1       2.030   3.248  21.693  0.00  0.00    +0.000 C 
ATOM     24  C   UNL     1       3.062   2.614  20.792  0.00  0.00    +0.000 C 
ATOM     25  O   UNL     1       4.144   2.177  21.149  0.00  0.00    +0.000 OA
ENDBRANCH  19  20
ENDBRANCH  18  19
ENDBRANCH  17  18
ENDBRANCH   3  17
TORSDOF 6
ENDMDL
MODEL 4
REMARK VINA RESULT:      -7.5      4.870      8.234
REMARK  Name = 
REMARK  6 active torsions:
REMARK  status: ('A' for Active; 'I' for Inactive)
REMARK    1  A    between atoms: C_2  and  C_13
REMARK    2  A    between atoms: N_3  and  C_4
REMARK    3  A    between atoms: C_4  and  C_5
REMARK    4  A    between atoms: C_5  and  C_6
REMARK    5  A    between atoms: C_6  and  N_7
REMARK    6  A    between atoms: C_17  and  N_18
REMARK                            x       y       z     vdW  Elec       q    Type
REMARK                         _______ _______ _______ _____ _____    ______ ____
ROOT
ATOM      1  O   UNL     1       7.991   5.541  19.561  0.00  0.00    +0.000 OA
ATOM      2  C   UNL     1       7.523   6.025  18.536  0.00  0.00    +0.000 C 
ATOM      3  N   UNL     1       7.797   7.303  18.099  0.00  0.00    +0.000 N 
ATOM      4  H   UNL     1       7.283   7.687  17.317  0.00  0.00    +0.000 HD
ENDROOT
BRANCH   2   5
ATOM      5  C   UNL     1       6.574   5.236  17.707  0.00  0.00    +0.000 A 
ATOM      6  C   UNL     1       6.793   5.037  16.342  0.00  0.00    +0.000 A 
ATOM      7  C   UNL     1       5.880   4.286  15.608  0.00  0.00    +0.000 A 
ATOM      8  C   UNL     1       4.740   3.761  16.227  0.00  0.00    +0.000 A 
ATOM      9  C   UNL     1       4.480   3.975  17.587  0.00  0.00    +0.000 A 
ATOM     10  C   UNL     1       5.438   4.689  18.326  0.00  0.00    +0.000 A 
BRANCH   9  11
ATOM     11  N   UNL     1       3.273   3.530  18.197  0.00  0.00    +0.000 N 
ATOM     12  C   UNL     1       2.110   4.379  18.329  0.00  0.00    +0.000 C 
ATOM     13  C   UNL     1       1.141   3.577  19.174  0.00  0.00    +0.000 C 
ATOM     14  C   UNL     1       1.480   2.141  18.837  0.00  0.00    +0.000 C 
ATOM     15  C   UNL     1       2.951   2.197  18.505  0.00  0.00    +0.000 C 
ATOM     16  O   UNL     1       3.651   1.197  18.452  0.00  0.00    +0.000 OA
ENDBRANCH   9  11
ENDBRANCH   2   5
BRANCH   3  17
ATOM     17  C   UNL     1       8.704   8.180  18.813  0.00  0.00    +0.000 C 
BRANCH  17  18
ATOM     18  C   UNL     1       8.646   9.613  18.289  0.00  0.00    +0.000 C 
BRANCH  18  19
ATOM     19  C   UNL     1       9.255  10.576  19.306  0.00  0.00    +0.000 C 
BRANCH  19  20
ATOM     20  N   UNL     1       9.839  11.758  18.700  0.00  0.00    +0.000 N 
ATOM     21  C   UNL     1       9.063  12.917  18.340  0.00  0.00    +0.000 C 
ATOM     22  C   UNL     1      10.045  13.748  17.539  0.00  0.00    +0.000 C 
ATOM     23  C   UNL     1      11.392  13.435  18.179  0.00  0.00    +0.000 C 
ATOM     24  C   UNL     1      11.201  12.031  18.702  0.00  0.00    +0.000 C 
ATOM     25  O   UNL     1      12.089  11.297  19.105  0.00  0.00    +0.000 OA
ENDBRANCH  19  20
ENDBRANCH  18  19
ENDBRANCH  17  18
ENDBRANCH   3  17
TORSDOF 6
ENDMDL
MODEL 5
REMARK VINA RESULT:      -7.5      1.554      2.785
REMARK  Name = 
REMARK  6 active torsions:
REMARK  status: ('A' for Active; 'I' for Inactive)
REMARK    1  A    between atoms: C_2  and  C_13
REMARK    2  A    between atoms: N_3  and  C_4
REMARK    3  A    between atoms: C_4  and  C_5
REMARK    4  A    between atoms: C_5  and  C_6
REMARK    5  A    between atoms: C_6  and  N_7
REMARK    6  A    between atoms: C_17  and  N_18
REMARK                            x       y       z     vdW  Elec       q    Type
REMARK                         _______ _______ _______ _____ _____    ______ ____
ROOT
ATOM      1  O   UNL     1       3.813   2.205  17.691  0.00  0.00    +0.000 OA
ATOM      2  C   UNL     1       4.420   3.065  18.319  0.00  0.00    +0.000 C 
ATOM      3  N   UNL     1       4.329   3.222  19.685  0.00  0.00    +0.000 N 
ATOM      4  H   UNL     1       4.753   4.026  20.128  0.00  0.00    +0.000 HD
ENDROOT
BRANCH   2   5
ATOM      5  C   UNL     1       5.285   4.039  17.602  0.00  0.00    +0.000 A 
ATOM      6  C   UNL     1       5.734   5.206  18.223  0.00  0.00    +0.000 A 
ATOM      7  C   UNL     1       6.548   6.085  17.514  0.00  0.00    +0.000 A 
ATOM      8  C   UNL     1       6.888   5.814  16.185  0.00  0.00    +0.000 A 
ATOM      9  C   UNL     1       6.424   4.666  15.528  0.00  0.00    +0.000 A 
ATOM     10  C   UNL     1       5.648   3.762  16.273  0.00  0.00    +0.000 A 
BRANCH   9  11
ATOM     11  N   UNL     1       6.683   4.437  14.147  0.00  0.00    +0.000 N 
ATOM     12  C   UNL     1       5.773   3.701  13.298  0.00  0.00    +0.000 C 
ATOM     13  C   UNL     1       6.511   3.550  11.983  0.00  0.00    +0.000 C 
ATOM     14  C   UNL     1       7.392   4.780  11.926  0.00  0.00    +0.000 C 
ATOM     15  C   UNL     1       7.670   5.079  13.379  0.00  0.00    +0.000 C 
ATOM     16  O   UNL     1       8.566   5.828  13.737  0.00  0.00    +0.000 OA
ENDBRANCH   9  11
ENDBRANCH   2   5
BRANCH   3  17
ATOM     17  C   UNL     1       3.520   2.342  20.506  0.00  0.00    +0.000 C 
BRANCH  17  18
ATOM     18  C   UNL     1       2.400   3.096  21.219  0.00  0.00    +0.000 C 
BRANCH  18  19
ATOM     19  C   UNL     1       1.349   3.564  20.214  0.00  0.00    +0.000 C 
BRANCH  19  20
ATOM     20  N   UNL     1       1.681   4.828  19.583  0.00  0.00    +0.000 N 
ATOM     21  C   UNL     1       2.389   5.881  20.264  0.00  0.00    +0.000 C 
ATOM     22  C   UNL     1       2.271   7.047  19.303  0.00  0.00    +0.000 C 
ATOM     23  C   UNL     1       2.259   6.386  17.930  0.00  0.00    +0.000 C 
ATOM     24  C   UNL     1       1.648   5.034  18.209  0.00  0.00    +0.000 C 
ATOM     25  O   UNL     1       1.252   4.246  17.365  0.00  0.00    +0.000 OA
ENDBRANCH  19  20
ENDBRANCH  18  19
ENDBRANCH  17  18
ENDBRANCH   3  17
TORSDOF 6
ENDMDL
MODEL 6
REMARK VINA RESULT:      -7.4      3.592      7.598
REMARK  Name = 
REMARK  6 active torsions:
REMARK  status: ('A' for Active; 'I' for Inactive)
REMARK    1  A    between atoms: C_2  and  C_13
REMARK    2  A    between atoms: N_3  and  C_4
REMARK    3  A    between atoms: C_4  and  C_5
REMARK    4  A    between atoms: C_5  and  C_6
REMARK    5  A    between atoms: C_6  and  N_7
REMARK    6  A    between atoms: C_17  and  N_18
REMARK                            x       y       z     vdW  Elec       q    Type
REMARK                         _______ _______ _______ _____ _____    ______ ____
ROOT
ATOM      1  O   UNL     1       3.934   5.865  19.669  0.00  0.00    +0.000 OA
ATOM      2  C   UNL     1       2.765   6.169  19.883  0.00  0.00    +0.000 C 
ATOM      3  N   UNL     1       1.862   5.339  20.513  0.00  0.00    +0.000 N 
ATOM      4  H   UNL     1       0.885   5.595  20.548  0.00  0.00    +0.000 HD
ENDROOT
BRANCH   2   5
ATOM      5  C   UNL     1       2.240   7.481  19.422  0.00  0.00    +0.000 A 
ATOM      6  C   UNL     1       2.555   7.986  18.159  0.00  0.00    +0.000 A 
ATOM      7  C   UNL     1       2.036   9.216  17.769  0.00  0.00    +0.000 A 
ATOM      8  C   UNL     1       1.228   9.951  18.644  0.00  0.00    +0.000 A 
ATOM      9  C   UNL     1       0.924   9.481  19.929  0.00  0.00    +0.000 A 
ATOM     10  C   UNL     1       1.412   8.214  20.289  0.00  0.00    +0.000 A 
BRANCH   9  11
ATOM     11  N   UNL     1       0.188  10.269  20.859  0.00  0.00    +0.000 N 
ATOM     12  C   UNL     1      -0.936  11.088  20.465  0.00  0.00    +0.000 C 
ATOM     13  C   UNL     1      -1.298  11.871  21.711  0.00  0.00    +0.000 C 
ATOM     14  C   UNL     1      -0.891  10.950  22.840  0.00  0.00    +0.000 C 
ATOM     15  C   UNL     1       0.266  10.173  22.259  0.00  0.00    +0.000 C 
ATOM     16  O   UNL     1       1.039   9.529  22.952  0.00  0.00    +0.000 OA
ENDBRANCH   9  11
ENDBRANCH   2   5
BRANCH   3  17
ATOM     17  C   UNL     1       2.242   4.031  21.012  0.00  0.00    +0.000 C 
BRANCH  17  18
ATOM     18  C   UNL     1       1.132   3.001  20.817  0.00  0.00    +0.000 C 
BRANCH  18  19
ATOM     19  C   UNL     1       1.416   2.139  19.588  0.00  0.00    +0.000 C 
BRANCH  19  20
ATOM     20  N   UNL     1       2.429   2.700  18.714  0.00  0.00    +0.000 N 
ATOM     21  C   UNL     1       3.758   2.158  18.606  0.00  0.00    +0.000 C 
ATOM     22  C   UNL     1       4.489   3.207  17.791  0.00  0.00    +0.000 C 
ATOM     23  C   UNL     1       3.410   3.768  16.872  0.00  0.00    +0.000 C 
ATOM     24  C   UNL     1       2.147   3.583  17.678  0.00  0.00    +0.000 C 
ATOM     25  O   UNL     1       1.062   4.081  17.422  0.00  0.00    +0.000 OA
ENDBRANCH  19  20
ENDBRANCH  18  19
ENDBRANCH  17  18
ENDBRANCH   3  17
TORSDOF 6
ENDMDL
MODEL 7
REMARK VINA RESULT:      -7.4      5.003      8.207
REMARK  Name = 
REMARK  6 active torsions:
REMARK  status: ('A' for Active; 'I' for Inactive)
REMARK    1  A    between atoms: C_2  and  C_13
REMARK    2  A    between atoms: N_3  and  C_4
REMARK    3  A    between atoms: C_4  and  C_5
REMARK    4  A    between atoms: C_5  and  C_6
REMARK    5  A    between atoms: C_6  and  N_7
REMARK    6  A    between atoms: C_17  and  N_18
REMARK                            x       y       z     vdW  Elec       q    Type
REMARK                         _______ _______ _______ _____ _____    ______ ____
ROOT
ATOM      1  O   UNL     1       7.947   5.893  19.371  0.00  0.00    +0.000 OA
ATOM      2  C   UNL     1       7.569   6.379  18.310  0.00  0.00    +0.000 C 
ATOM      3  N   UNL     1       7.874   7.661  17.905  0.00  0.00    +0.000 N 
ATOM      4  H   UNL     1       7.430   8.046  17.082  0.00  0.00    +0.000 HD
ENDROOT
BRANCH   2   5
ATOM      5  C   UNL     1       6.702   5.590  17.396  0.00  0.00    +0.000 A 
ATOM      6  C   UNL     1       7.017   5.440  16.044  0.00  0.00    +0.000 A 
ATOM      7  C   UNL     1       6.178   4.687  15.229  0.00  0.00    +0.000 A 
ATOM      8  C   UNL     1       5.017   4.110  15.753  0.00  0.00    +0.000 A 
ATOM      9  C   UNL     1       4.660   4.273  17.099  0.00  0.00    +0.000 A 
ATOM     10  C   UNL     1       5.544   4.991  17.921  0.00  0.00    +0.000 A 
BRANCH   9  11
ATOM     11  N   UNL     1       3.430   3.775  17.613  0.00  0.00    +0.000 N 
ATOM     12  C   UNL     1       3.249   2.390  17.990  0.00  0.00    +0.000 C 
ATOM     13  C   UNL     1       1.773   2.267  18.309  0.00  0.00    +0.000 C 
ATOM     14  C   UNL     1       1.400   3.648  18.803  0.00  0.00    +0.000 C 
ATOM     15  C   UNL     1       2.350   4.555  18.059  0.00  0.00    +0.000 C 
ATOM     16  O   UNL     1       2.178   5.762  17.978  0.00  0.00    +0.000 OA
ENDBRANCH   9  11
ENDBRANCH   2   5
BRANCH   3  17
ATOM     17  C   UNL     1       8.709   8.538  18.701  0.00  0.00    +0.000 C 
BRANCH  17  18
ATOM     18  C   UNL     1       8.620   9.990  18.236  0.00  0.00    +0.000 C 
BRANCH  18  19
ATOM     19  C   UNL     1       9.350  10.908  19.215  0.00  0.00    +0.000 C 
BRANCH  19  20
ATOM     20  N   UNL     1       9.646  12.217  18.664  0.00  0.00    +0.000 N 
ATOM     21  C   UNL     1       8.882  13.394  18.988  0.00  0.00    +0.000 C 
ATOM     22  C   UNL     1       9.403  14.420  18.001  0.00  0.00    +0.000 C 
ATOM     23  C   UNL     1      10.862  14.028  17.807  0.00  0.00    +0.000 C 
ATOM     24  C   UNL     1      10.849  12.538  18.047  0.00  0.00    +0.000 C 
ATOM     25  O   UNL     1      11.763  11.770  17.792  0.00  0.00    +0.000 OA
ENDBRANCH  19  20
ENDBRANCH  18  19
ENDBRANCH  17  18
ENDBRANCH   3  17
TORSDOF 6
ENDMDL
MODEL 8
REMARK VINA RESULT:      -7.4      4.787      7.817
REMARK  Name = 
REMARK  6 active torsions:
REMARK  status: ('A' for Active; 'I' for Inactive)
REMARK    1  A    between atoms: C_2  and  C_13
REMARK    2  A    between atoms: N_3  and  C_4
REMARK    3  A    between atoms: C_4  and  C_5
REMARK    4  A    between atoms: C_5  and  C_6
REMARK    5  A    between atoms: C_6  and  N_7
REMARK    6  A    between atoms: C_17  and  N_18
REMARK                            x       y       z     vdW  Elec       q    Type
REMARK                         _______ _______ _______ _____ _____    ______ ____
ROOT
ATOM      1  O   UNL     1       2.209   9.863  17.305  0.00  0.00    +0.000 OA
ATOM      2  C   UNL     1       2.058   9.045  18.206  0.00  0.00    +0.000 C 
ATOM      3  N   UNL     1       1.292   9.276  19.328  0.00  0.00    +0.000 N 
ATOM      4  H   UNL     1       1.308   8.614  20.092  0.00  0.00    +0.000 HD
ENDROOT
BRANCH   2   5
ATOM      5  C   UNL     1       2.751   7.731  18.142  0.00  0.00    +0.000 A 
ATOM      6  C   UNL     1       3.838   7.524  17.291  0.00  0.00    +0.000 A 
ATOM      7  C   UNL     1       4.459   6.279  17.270  0.00  0.00    +0.000 A 
ATOM      8  C   UNL     1       3.981   5.239  18.075  0.00  0.00    +0.000 A 
ATOM      9  C   UNL     1       2.871   5.411  18.913  0.00  0.00    +0.000 A 
ATOM     10  C   UNL     1       2.288   6.689  18.963  0.00  0.00    +0.000 A 
BRANCH   9  11
ATOM     11  N   UNL     1       2.318   4.330  19.655  0.00  0.00    +0.000 N 
ATOM     12  C   UNL     1       2.377   4.268  21.099  0.00  0.00    +0.000 C 
ATOM     13  C   UNL     1       1.838   2.895  21.448  0.00  0.00    +0.000 C 
ATOM     14  C   UNL     1       0.866   2.599  20.326  0.00  0.00    +0.000 C 
ATOM     15  C   UNL     1       1.448   3.348  19.152  0.00  0.00    +0.000 C 
ATOM     16  O   UNL     1       1.104   3.132  17.999  0.00  0.00    +0.000 OA
ENDBRANCH   9  11
ENDBRANCH   2   5
BRANCH   3  17
ATOM     17  C   UNL     1       0.563  10.516  19.517  0.00  0.00    +0.000 C 
BRANCH  17  18
ATOM     18  C   UNL     1      -0.937  10.336  19.298  0.00  0.00    +0.000 C 
BRANCH  18  19
ATOM     19  C   UNL     1      -1.316  10.725  17.870  0.00  0.00    +0.000 C 
BRANCH  19  20
ATOM     20  N   UNL     1      -2.719  11.064  17.720  0.00  0.00    +0.000 N 
ATOM     21  C   UNL     1      -3.477  11.733  18.746  0.00  0.00    +0.000 C 
ATOM     22  C   UNL     1      -4.900  11.636  18.234  0.00  0.00    +0.000 C 
ATOM     23  C   UNL     1      -4.746  11.684  16.719  0.00  0.00    +0.000 C 
ATOM     24  C   UNL     1      -3.380  11.081  16.497  0.00  0.00    +0.000 C 
ATOM     25  O   UNL     1      -2.926  10.727  15.421  0.00  0.00    +0.000 OA
ENDBRANCH  19  20
ENDBRANCH  18  19
ENDBRANCH  17  18
ENDBRANCH   3  17
TORSDOF 6
ENDMDL
MODEL 9
REMARK VINA RESULT:      -7.4      3.559      7.187
REMARK  Name = 
REMARK  6 active torsions:
REMARK  status: ('A' for Active; 'I' for Inactive)
REMARK    1  A    between atoms: C_2  and  C_13
REMARK    2  A    between atoms: N_3  and  C_4
REMARK    3  A    between atoms: C_4  and  C_5
REMARK    4  A    between atoms: C_5  and  C_6
REMARK    5  A    between atoms: C_6  and  N_7
REMARK    6  A    between atoms: C_17  and  N_18
REMARK                            x       y       z     vdW  Elec       q    Type
REMARK                         _______ _______ _______ _____ _____    ______ ____
ROOT
ATOM      1  O   UNL     1       3.593   7.636  17.336  0.00  0.00    +0.000 OA
ATOM      2  C   UNL     1       2.920   7.050  18.177  0.00  0.00    +0.000 C 
ATOM      3  N   UNL     1       2.837   5.677  18.269  0.00  0.00    +0.000 N 
ATOM      4  H   UNL     1       2.169   5.255  18.900  0.00  0.00    +0.000 HD
ENDROOT
BRANCH   2   5
ATOM      5  C   UNL     1       2.102   7.824  19.148  0.00  0.00    +0.000 A 
ATOM      6  C   UNL     1       1.948   7.399  20.469  0.00  0.00    +0.000 A 
ATOM      7  C   UNL     1       1.178   8.160  21.344  0.00  0.00    +0.000 A 
ATOM      8  C   UNL     1       0.543   9.323  20.895  0.00  0.00    +0.000 A 
ATOM      9  C   UNL     1       0.654   9.752  19.566  0.00  0.00    +0.000 A 
ATOM     10  C   UNL     1       1.478   9.003  18.709  0.00  0.00    +0.000 A 
BRANCH   9  11
ATOM     11  N   UNL     1      -0.071  10.877  19.079  0.00  0.00    +0.000 N 
ATOM     12  C   UNL     1       0.472  12.217  19.094  0.00  0.00    +0.000 C 
ATOM     13  C   UNL     1      -0.678  13.103  18.658  0.00  0.00    +0.000 C 
ATOM     14  C   UNL     1      -1.495  12.206  17.753  0.00  0.00    +0.000 C 
ATOM     15  C   UNL     1      -1.247  10.826  18.311  0.00  0.00    +0.000 C 
ATOM     16  O   UNL     1      -1.948   9.866  18.026  0.00  0.00    +0.000 OA
ENDBRANCH   9  11
ENDBRANCH   2   5
BRANCH   3  17
ATOM     17  C   UNL     1       3.581   4.803  17.383  0.00  0.00    +0.000 C 
BRANCH  17  18
ATOM     18  C   UNL     1       2.752   3.602  16.936  0.00  0.00    +0.000 C 
BRANCH  18  19
ATOM     19  C   UNL     1       3.013   2.406  17.850  0.00  0.00    +0.000 C 
BRANCH  19  20
ATOM     20  N   UNL     1       2.591   2.627  19.220  0.00  0.00    +0.000 N 
ATOM     21  C   UNL     1       1.214   2.563  19.635  0.00  0.00    +0.000 C 
ATOM     22  C   UNL     1       1.260   3.099  21.053  0.00  0.00    +0.000 C 
ATOM     23  C   UNL     1       2.625   2.654  21.564  0.00  0.00    +0.000 C 
ATOM     24  C   UNL     1       3.458   2.599  20.306  0.00  0.00    +0.000 C 
ATOM     25  O   UNL     1       4.674   2.492  20.263  0.00  0.00    +0.000 OA
ENDBRANCH  19  20
ENDBRANCH  18  19
ENDBRANCH  17  18
ENDBRANCH   3  17
TORSDOF 6
ENDMDL
