MODEL 1
REMARK VINA RESULT:      -8.0      0.000      0.000
REMARK  Name = 
REMARK  5 active torsions:
REMARK  status: ('A' for Active; 'I' for Inactive)
REMARK    1  A    between atoms: C_1  and  N_2
REMARK    2  A    between atoms: C_3  and  C_5
REMARK    3  A    between atoms: C_16  and  C_17
REMARK    4  A    between atoms: N_19  and  C_20
REMARK    5  A    between atoms: N_19  and  C_21
REMARK                            x       y       z     vdW  Elec       q    Type
REMARK                         _______ _______ _______ _____ _____    ______ ____
ROOT
ATOM      1  C   UNL     1       4.607   5.016  16.412  0.00  0.00    +0.000 A 
ATOM      2  C   UNL     1       4.979   6.353  16.608  0.00  0.00    +0.000 A 
ATOM      3  C   UNL     1       4.228   7.182  17.460  0.00  0.00    +0.000 A 
ATOM      4  C   UNL     1       3.104   6.686  18.132  0.00  0.00    +0.000 A 
ATOM      5  C   UNL     1       2.745   5.334  17.919  0.00  0.00    +0.000 A 
ATOM      6  C   UNL     1       3.468   4.517  17.047  0.00  0.00    +0.000 A 
ATOM      7  O   UNL     1       1.597   4.792  18.438  0.00  0.00    +0.000 OA
ATOM      8  C   UNL     1       1.589   4.539  19.851  0.00  0.00    +0.000 C 
ATOM      9  C   UNL     1       2.234   5.584  20.765  0.00  0.00    +0.000 C 
ATOM     10  C   UNL     1       1.910   6.981  20.336  0.00  0.00    +0.000 A 
ATOM     11  C   UNL     1       1.084   7.909  21.030  0.00  0.00    +0.000 A 
ATOM     12  C   UNL     1       1.027   9.152  20.425  0.00  0.00    +0.000 A 
ATOM     13  S   UNL     1       1.890   9.109  18.919  0.00  0.00    +0.000 S 
ATOM     14  C   UNL     1       2.359   7.482  19.127  0.00  0.00    +0.000 A 
ENDROOT
BRANCH   1  17
ATOM     15  C   UNL     1       6.220   3.670  13.259  0.00  0.00    +0.000 C 
ATOM     16  N   UNL     1       5.449   4.458  14.188  0.00  0.00    +0.000 N 
ATOM     17  C   UNL     1       5.369   4.098  15.517  0.00  0.00    +0.000 C 
ATOM     18  O   UNL     1       5.921   3.105  15.978  0.00  0.00    +0.000 OA
ATOM     19  H   UNL     1       5.139   5.380  13.899  0.00  0.00    +0.000 HD
ENDBRANCH   1  17
BRANCH  12  20
ATOM     20  C   UNL     1       0.291  10.368  20.795  0.00  0.00    +0.000 C 
ATOM     21  O   UNL     1       0.549  10.955  21.851  0.00  0.00    +0.000 OA
ATOM     22  N   UNL     1      -0.722  10.876  19.941  0.00  0.00    +0.000 N 
ATOM     23  C   UNL     1      -1.316  10.198  18.786  0.00  0.00    +0.000 C 
BRANCH  22  24
ATOM     24  C   UNL     1      -1.313  12.152  20.257  0.00  0.00    +0.000 A 
ATOM     25  C   UNL     1      -2.355  12.171  21.202  0.00  0.00    +0.000 A 
ATOM     26  C   UNL     1      -2.867  13.385  21.672  0.00  0.00    +0.000 A 
ATOM     27  C   UNL     1      -2.358  14.581  21.186  0.00  0.00    +0.000 A 
ATOM     28  F   UNL     1      -2.837  15.742  21.650  0.00  0.00    +0.000 F 
ATOM     29  C   UNL     1      -1.357  14.592  20.225  0.00  0.00    +0.000 A 
ATOM     30  C   UNL     1      -0.833  13.383  19.760  0.00  0.00    +0.000 A 
ATOM     31 CL   UNL     1       0.337  13.496  18.490  0.00  0.00    +0.000 Cl
ENDBRANCH  22  24
ENDBRANCH  12  20
TORSDOF 3
ENDMDL
MODEL 2
REMARK VINA RESULT:      -7.9      4.214     10.151
REMARK  Name = 
REMARK  5 active torsions:
REMARK  status: ('A' for Active; 'I' for Inactive)
REMARK    1  A    between atoms: C_1  and  N_2
REMARK    2  A    between atoms: C_3  and  C_5
REMARK    3  A    between atoms: C_16  and  C_17
REMARK    4  A    between atoms: N_19  and  C_20
REMARK    5  A    between atoms: N_19  and  C_21
REMARK                            x       y       z     vdW  Elec       q    Type
REMARK                         _______ _______ _______ _____ _____    ______ ____
ROOT
ATOM      1  C   UNL     1      -2.353  13.131  21.553  0.00  0.00    +0.000 A 
ATOM      2  C   UNL     1      -2.395  12.748  20.207  0.00  0.00    +0.000 A 
ATOM      3  C   UNL     1      -1.562  11.717  19.734  0.00  0.00    +0.000 A 
ATOM      4  C   UNL     1      -0.684  11.054  20.601  0.00  0.00    +0.000 A 
ATOM      5  C   UNL     1      -0.656  11.459  21.957  0.00  0.00    +0.000 A 
ATOM      6  C   UNL     1      -1.457  12.504  22.422  0.00  0.00    +0.000 A 
ATOM      7  O   UNL     1       0.251  10.952  22.852  0.00  0.00    +0.000 OA
ATOM      8  C   UNL     1       0.032   9.603  23.292  0.00  0.00    +0.000 C 
ATOM      9  C   UNL     1      -0.428   8.581  22.249  0.00  0.00    +0.000 C 
ATOM     10  C   UNL     1       0.285   8.749  20.944  0.00  0.00    +0.000 A 
ATOM     11  C   UNL     1       1.233   7.854  20.377  0.00  0.00    +0.000 A 
ATOM     12  C   UNL     1       1.671   8.240  19.123  0.00  0.00    +0.000 A 
ATOM     13  S   UNL     1       1.004   9.793  18.724  0.00  0.00    +0.000 S 
ATOM     14  C   UNL     1       0.118   9.890  20.179  0.00  0.00    +0.000 A 
ENDROOT
BRANCH   1  17
ATOM     15  C   UNL     1      -3.313  16.463  23.081  0.00  0.00    +0.000 C 
ATOM     16  N   UNL     1      -2.564  15.331  22.593  0.00  0.00    +0.000 N 
ATOM     17  C   UNL     1      -3.214  14.220  22.101  0.00  0.00    +0.000 C 
ATOM     18  O   UNL     1      -4.435  14.118  22.060  0.00  0.00    +0.000 OA
ATOM     19  H   UNL     1      -1.569  15.445  22.428  0.00  0.00    +0.000 HD
ENDBRANCH   1  17
BRANCH  12  20
ATOM     20  C   UNL     1       2.643   7.622  18.210  0.00  0.00    +0.000 C 
ATOM     21  O   UNL     1       2.872   8.131  17.108  0.00  0.00    +0.000 OA
ATOM     22  N   UNL     1       3.324   6.437  18.590  0.00  0.00    +0.000 N 
ATOM     23  C   UNL     1       3.014   5.577  19.735  0.00  0.00    +0.000 C 
BRANCH  22  24
ATOM     24  C   UNL     1       4.380   5.947  17.740  0.00  0.00    +0.000 A 
ATOM     25  C   UNL     1       5.556   6.713  17.655  0.00  0.00    +0.000 A 
ATOM     26  C   UNL     1       6.677   6.224  16.978  0.00  0.00    +0.000 A 
ATOM     27  C   UNL     1       6.621   4.979  16.364  0.00  0.00    +0.000 A 
ATOM     28  F   UNL     1       7.700   4.505  15.730  0.00  0.00    +0.000 F 
ATOM     29  C   UNL     1       5.461   4.219  16.398  0.00  0.00    +0.000 A 
ATOM     30  C   UNL     1       4.341   4.697  17.084  0.00  0.00    +0.000 A 
ATOM     31 CL   UNL     1       2.912   3.728  16.985  0.00  0.00    +0.000 Cl
ENDBRANCH  22  24
ENDBRANCH  12  20
TORSDOF 3
ENDMDL
MODEL 3
REMARK VINA RESULT:      -7.8      1.405      1.546
REMARK  Name = 
REMARK  5 active torsions:
REMARK  status: ('A' for Active; 'I' for Inactive)
REMARK    1  A    between atoms: C_1  and  N_2
REMARK    2  A    between atoms: C_3  and  C_5
REMARK    3  A    between atoms: C_16  and  C_17
REMARK    4  A    between atoms: N_19  and  C_20
REMARK    5  A    between atoms: N_19  and  C_21
REMARK                            x       y       z     vdW  Elec       q    Type
REMARK                         _______ _______ _______ _____ _____    ______ ____
ROOT
ATOM      1  C   UNL     1       5.315   5.228  15.900  0.00  0.00    +0.000 A 
ATOM      2  C   UNL     1       5.364   6.601  16.176  0.00  0.00    +0.000 A 
ATOM      3  C   UNL     1       4.485   7.170  17.114  0.00  0.00    +0.000 A 
ATOM      4  C   UNL     1       3.553   6.375  17.794  0.00  0.00    +0.000 A 
ATOM      5  C   UNL     1       3.520   4.991  17.500  0.00  0.00    +0.000 A 
ATOM      6  C   UNL     1       4.368   4.429  16.544  0.00  0.00    +0.000 A 
ATOM      7  O   UNL     1       2.567   4.155  18.025  0.00  0.00    +0.000 OA
ATOM      8  C   UNL     1       2.700   3.824  19.415  0.00  0.00    +0.000 C 
ATOM      9  C   UNL     1       3.124   4.940  20.374  0.00  0.00    +0.000 C 
ATOM     10  C   UNL     1       2.449   6.238  20.060  0.00  0.00    +0.000 A 
ATOM     11  C   UNL     1       1.465   6.893  20.850  0.00  0.00    +0.000 A 
ATOM     12  C   UNL     1       1.076   8.118  20.338  0.00  0.00    +0.000 A 
ATOM     13  S   UNL     1       1.836   8.377  18.799  0.00  0.00    +0.000 S 
ATOM     14  C   UNL     1       2.696   6.904  18.872  0.00  0.00    +0.000 A 
ENDROOT
BRANCH   1  17
ATOM     15  C   UNL     1       6.442   3.498  12.723  0.00  0.00    +0.000 C 
ATOM     16  N   UNL     1       5.637   4.083  13.767  0.00  0.00    +0.000 N 
ATOM     17  C   UNL     1       6.224   4.579  14.912  0.00  0.00    +0.000 C 
ATOM     18  O   UNL     1       7.433   4.544  15.116  0.00  0.00    +0.000 OA
ATOM     19  H   UNL     1       4.669   4.307  13.563  0.00  0.00    +0.000 HD
ENDBRANCH   1  17
BRANCH  12  20
ATOM     20  C   UNL     1       0.090   9.094  20.823  0.00  0.00    +0.000 C 
ATOM     21  O   UNL     1      -0.809   8.740  21.593  0.00  0.00    +0.000 OA
ATOM     22  N   UNL     1       0.164  10.448  20.408  0.00  0.00    +0.000 N 
ATOM     23  C   UNL     1       1.000  10.992  19.335  0.00  0.00    +0.000 C 
BRANCH  22  24
ATOM     24  C   UNL     1      -0.721  11.405  21.023  0.00  0.00    +0.000 A 
ATOM     25  C   UNL     1      -0.413  11.835  22.326  0.00  0.00    +0.000 A 
ATOM     26  C   UNL     1      -1.135  12.874  22.922  0.00  0.00    +0.000 A 
ATOM     27  C   UNL     1      -2.179  13.473  22.230  0.00  0.00    +0.000 A 
ATOM     28  F   UNL     1      -2.857  14.479  22.795  0.00  0.00    +0.000 F 
ATOM     29  C   UNL     1      -2.530  13.043  20.959  0.00  0.00    +0.000 A 
ATOM     30  C   UNL     1      -1.806  12.013  20.352  0.00  0.00    +0.000 A 
ATOM     31 CL   UNL     1      -2.381  11.478  18.811  0.00  0.00    +0.000 Cl
ENDBRANCH  22  24
ENDBRANCH  12  20
TORSDOF 3
ENDMDL
MODEL 4
REMARK VINA RESULT:      -7.7      4.171     10.041
REMARK  Name = 
REMARK  5 active torsions:
REMARK  status: ('A' for Active; 'I' for Inactive)
REMARK    1  A    between atoms: C_1  and  N_2
REMARK    2  A    between atoms: C_3  and  C_5
REMARK    3  A    between atoms: C_16  and  C_17
REMARK    4  A    between atoms: N_19  and  C_20
REMARK    5  A    between atoms: N_19  and  C_21
REMARK                            x       y       z     vdW  Elec       q    Type
REMARK                         _______ _______ _______ _____ _____    ______ ____
ROOT
ATOM      1  C   UNL     1      -2.443  12.521  20.601  0.00  0.00    +0.000 A 
ATOM      2  C   UNL     1      -2.430  11.942  19.326  0.00  0.00    +0.000 A 
ATOM      3  C   UNL     1      -1.455  10.985  18.990  0.00  0.00    +0.000 A 
ATOM      4  C   UNL     1      -0.489  10.590  19.924  0.00  0.00    +0.000 A 
ATOM      5  C   UNL     1      -0.521  11.188  21.206  0.00  0.00    +0.000 A 
ATOM      6  C   UNL     1      -1.465  12.164  21.532  0.00  0.00    +0.000 A 
ATOM      7  O   UNL     1       0.451  10.954  22.145  0.00  0.00    +0.000 OA
ATOM      8  C   UNL     1       0.432   9.667  22.780  0.00  0.00    +0.000 C 
ATOM      9  C   UNL     1       0.126   8.448  21.907  0.00  0.00    +0.000 C 
ATOM     10  C   UNL     1       0.806   8.524  20.576  0.00  0.00    +0.000 A 
ATOM     11  C   UNL     1       1.874   7.701  20.124  0.00  0.00    +0.000 A 
ATOM     12  C   UNL     1       2.250   7.959  18.818  0.00  0.00    +0.000 A 
ATOM     13  S   UNL     1       1.364   9.324  18.213  0.00  0.00    +0.000 S 
ATOM     14  C   UNL     1       0.474   9.504  19.657  0.00  0.00    +0.000 A 
ENDROOT
BRANCH   1  17
ATOM     15  C   UNL     1      -5.589  13.989  22.121  0.00  0.00    +0.000 C 
ATOM     16  N   UNL     1      -4.587  13.073  21.633  0.00  0.00    +0.000 N 
ATOM     17  C   UNL     1      -3.453  13.542  21.005  0.00  0.00    +0.000 C 
ATOM     18  O   UNL     1      -3.236  14.734  20.813  0.00  0.00    +0.000 OA
ATOM     19  H   UNL     1      -4.628  12.106  21.937  0.00  0.00    +0.000 HD
ENDBRANCH   1  17
BRANCH  12  20
ATOM     20  C   UNL     1       3.302   7.361  17.983  0.00  0.00    +0.000 C 
ATOM     21  O   UNL     1       4.033   8.080  17.295  0.00  0.00    +0.000 OA
ATOM     22  N   UNL     1       3.482   5.954  17.964  0.00  0.00    +0.000 N 
ATOM     23  C   UNL     1       2.576   4.946  18.521  0.00  0.00    +0.000 C 
BRANCH  22  24
ATOM     24  C   UNL     1       4.618   5.416  17.259  0.00  0.00    +0.000 A 
ATOM     25  C   UNL     1       4.465   5.144  15.887  0.00  0.00    +0.000 A 
ATOM     26  C   UNL     1       5.565   4.770  15.109  0.00  0.00    +0.000 A 
ATOM     27  C   UNL     1       6.815   4.645  15.699  0.00  0.00    +0.000 A 
ATOM     28  F   UNL     1       7.870   4.304  14.949  0.00  0.00    +0.000 F 
ATOM     29  C   UNL     1       6.988   4.869  17.057  0.00  0.00    +0.000 A 
ATOM     30  C   UNL     1       5.895   5.255  17.839  0.00  0.00    +0.000 A 
ATOM     31 CL   UNL     1       6.187   5.411  19.537  0.00  0.00    +0.000 Cl
ENDBRANCH  22  24
ENDBRANCH  12  20
TORSDOF 3
ENDMDL
MODEL 5
REMARK VINA RESULT:      -7.7      1.034      1.213
REMARK  Name = 
REMARK  5 active torsions:
REMARK  status: ('A' for Active; 'I' for Inactive)
REMARK    1  A    between atoms: C_1  and  N_2
REMARK    2  A    between atoms: C_3  and  C_5
REMARK    3  A    between atoms: C_16  and  C_17
REMARK    4  A    between atoms: N_19  and  C_20
REMARK    5  A    between atoms: N_19  and  C_21
REMARK                            x       y       z     vdW  Elec       q    Type
REMARK                         _______ _______ _______ _____ _____    ______ ____
ROOT
ATOM      1  C   UNL     1       4.822   5.267  16.313  0.00  0.00    +0.000 A 
ATOM      2  C   UNL     1       5.013   6.655  16.316  0.00  0.00    +0.000 A 
ATOM      3  C   UNL     1       4.182   7.485  17.089  0.00  0.00    +0.000 A 
ATOM      4  C   UNL     1       3.158   6.940  17.874  0.00  0.00    +0.000 A 
ATOM      5  C   UNL     1       2.982   5.536  17.856  0.00  0.00    +0.000 A 
ATOM      6  C   UNL     1       3.783   4.712  17.063  0.00  0.00    +0.000 A 
ATOM      7  O   UNL     1       1.936   4.922  18.497  0.00  0.00    +0.000 OA
ATOM      8  C   UNL     1       2.008   4.863  19.929  0.00  0.00    +0.000 C 
ATOM      9  C   UNL     1       2.530   6.098  20.667  0.00  0.00    +0.000 C 
ATOM     10  C   UNL     1       2.004   7.369  20.078  0.00  0.00    +0.000 A 
ATOM     11  C   UNL     1       1.081   8.264  20.685  0.00  0.00    +0.000 A 
ATOM     12  C   UNL     1       0.834   9.396  19.928  0.00  0.00    +0.000 A 
ATOM     13  S   UNL     1       1.647   9.265  18.399  0.00  0.00    +0.000 S 
ATOM     14  C   UNL     1       2.342   7.758  18.793  0.00  0.00    +0.000 A 
ENDROOT
BRANCH   1  17
ATOM     15  C   UNL     1       6.296   3.546  13.276  0.00  0.00    +0.000 C 
ATOM     16  N   UNL     1       5.474   4.353  14.144  0.00  0.00    +0.000 N 
ATOM     17  C   UNL     1       5.675   4.345  15.508  0.00  0.00    +0.000 C 
ATOM     18  O   UNL     1       6.533   3.662  16.056  0.00  0.00    +0.000 OA
ATOM     19  H   UNL     1       4.890   5.071  13.727  0.00  0.00    +0.000 HD
ENDBRANCH   1  17
BRANCH  12  20
ATOM     20  C   UNL     1      -0.051  10.543  20.173  0.00  0.00    +0.000 C 
ATOM     21  O   UNL     1      -1.265  10.446  19.970  0.00  0.00    +0.000 OA
ATOM     22  N   UNL     1       0.485  11.770  20.644  0.00  0.00    +0.000 N 
ATOM     23  C   UNL     1       1.902  12.137  20.715  0.00  0.00    +0.000 C 
BRANCH  22  24
ATOM     24  C   UNL     1      -0.427  12.820  21.020  0.00  0.00    +0.000 A 
ATOM     25  C   UNL     1      -0.878  12.846  22.352  0.00  0.00    +0.000 A 
ATOM     26  C   UNL     1      -1.636  13.920  22.826  0.00  0.00    +0.000 A 
ATOM     27  C   UNL     1      -1.966  14.962  21.969  0.00  0.00    +0.000 A 
ATOM     28  F   UNL     1      -2.677  15.998  22.429  0.00  0.00    +0.000 F 
ATOM     29  C   UNL     1      -1.567  14.944  20.641  0.00  0.00    +0.000 A 
ATOM     30  C   UNL     1      -0.799  13.879  20.163  0.00  0.00    +0.000 A 
ATOM     31 CL   UNL     1      -0.438  13.894  18.471  0.00  0.00    +0.000 Cl
ENDBRANCH  22  24
ENDBRANCH  12  20
TORSDOF 3
ENDMDL
MODEL 6
REMARK VINA RESULT:      -7.6      4.426     10.369
REMARK  Name = 
REMARK  5 active torsions:
REMARK  status: ('A' for Active; 'I' for Inactive)
REMARK    1  A    between atoms: C_1  and  N_2
REMARK    2  A    between atoms: C_3  and  C_5
REMARK    3  A    between atoms: C_16  and  C_17
REMARK    4  A    between atoms: N_19  and  C_20
REMARK    5  A    between atoms: N_19  and  C_21
REMARK                            x       y       z     vdW  Elec       q    Type
REMARK                         _______ _______ _______ _____ _____    ______ ____
ROOT
ATOM      1  C   UNL     1      -2.656  13.199  22.609  0.00  0.00    +0.000 A 
ATOM      2  C   UNL     1      -1.940  12.338  23.450  0.00  0.00    +0.000 A 
ATOM      3  C   UNL     1      -1.107  11.342  22.906  0.00  0.00    +0.000 A 
ATOM      4  C   UNL     1      -0.976  11.200  21.519  0.00  0.00    +0.000 A 
ATOM      5  C   UNL     1      -1.710  12.080  20.688  0.00  0.00    +0.000 A 
ATOM      6  C   UNL     1      -2.563  13.046  21.224  0.00  0.00    +0.000 A 
ATOM      7  O   UNL     1      -1.737  11.943  19.323  0.00  0.00    +0.000 OA
ATOM      8  C   UNL     1      -0.546  12.320  18.617  0.00  0.00    +0.000 C 
ATOM      9  C   UNL     1       0.800  11.939  19.238  0.00  0.00    +0.000 C 
ATOM     10  C   UNL     1       0.779  10.561  19.821  0.00  0.00    +0.000 A 
ATOM     11  C   UNL     1       1.479   9.424  19.331  0.00  0.00    +0.000 A 
ATOM     12  C   UNL     1       1.323   8.300  20.122  0.00  0.00    +0.000 A 
ATOM     13  S   UNL     1       0.189   8.633  21.394  0.00  0.00    +0.000 S 
ATOM     14  C   UNL     1      -0.024  10.254  20.906  0.00  0.00    +0.000 A 
ENDROOT
BRANCH   1  17
ATOM     15  C   UNL     1      -4.525  16.490  22.791  0.00  0.00    +0.000 C 
ATOM     16  N   UNL     1      -3.633  15.427  22.397  0.00  0.00    +0.000 N 
ATOM     17  C   UNL     1      -3.554  14.267  23.137  0.00  0.00    +0.000 C 
ATOM     18  O   UNL     1      -4.208  14.074  24.156  0.00  0.00    +0.000 OA
ATOM     19  H   UNL     1      -3.222  15.460  21.470  0.00  0.00    +0.000 HD
ENDBRANCH   1  17
BRANCH  12  20
ATOM     20  C   UNL     1       1.850   6.937  19.971  0.00  0.00    +0.000 C 
ATOM     21  O   UNL     1       1.724   6.116  20.886  0.00  0.00    +0.000 OA
ATOM     22  N   UNL     1       2.508   6.555  18.773  0.00  0.00    +0.000 N 
ATOM     23  C   UNL     1       2.951   7.443  17.695  0.00  0.00    +0.000 C 
BRANCH  22  24
ATOM     24  C   UNL     1       2.872   5.172  18.599  0.00  0.00    +0.000 A 
ATOM     25  C   UNL     1       1.877   4.288  18.144  0.00  0.00    +0.000 A 
ATOM     26  C   UNL     1       2.197   2.970  17.803  0.00  0.00    +0.000 A 
ATOM     27  C   UNL     1       3.504   2.523  17.936  0.00  0.00    +0.000 A 
ATOM     28  F   UNL     1       3.813   1.266  17.593  0.00  0.00    +0.000 F 
ATOM     29  C   UNL     1       4.499   3.361  18.419  0.00  0.00    +0.000 A 
ATOM     30  C   UNL     1       4.188   4.683  18.750  0.00  0.00    +0.000 A 
ATOM     31 CL   UNL     1       5.469   5.620  19.439  0.00  0.00    +0.000 Cl
ENDBRANCH  22  24
ENDBRANCH  12  20
TORSDOF 3
ENDMDL
MODEL 7
REMARK VINA RESULT:      -7.6      1.958      2.344
REMARK  Name = 
REMARK  5 active torsions:
REMARK  status: ('A' for Active; 'I' for Inactive)
REMARK    1  A    between atoms: C_1  and  N_2
REMARK    2  A    between atoms: C_3  and  C_5
REMARK    3  A    between atoms: C_16  and  C_17
REMARK    4  A    between atoms: N_19  and  C_20
REMARK    5  A    between atoms: N_19  and  C_21
REMARK                            x       y       z     vdW  Elec       q    Type
REMARK                         _______ _______ _______ _____ _____    ______ ____
ROOT
ATOM      1  C   UNL     1       5.462   5.150  15.623  0.00  0.00    +0.000 A 
ATOM      2  C   UNL     1       5.442   6.515  15.937  0.00  0.00    +0.000 A 
ATOM      3  C   UNL     1       4.570   7.005  16.926  0.00  0.00    +0.000 A 
ATOM      4  C   UNL     1       3.714   6.137  17.616  0.00  0.00    +0.000 A 
ATOM      5  C   UNL     1       3.749   4.763  17.282  0.00  0.00    +0.000 A 
ATOM      6  C   UNL     1       4.589   4.278  16.278  0.00  0.00    +0.000 A 
ATOM      7  O   UNL     1       2.869   3.858  17.818  0.00  0.00    +0.000 OA
ATOM      8  C   UNL     1       3.077   3.497  19.192  0.00  0.00    +0.000 C 
ATOM      9  C   UNL     1       3.473   4.608  20.167  0.00  0.00    +0.000 C 
ATOM     10  C   UNL     1       2.712   5.872  19.918  0.00  0.00    +0.000 A 
ATOM     11  C   UNL     1       1.724   6.446  20.765  0.00  0.00    +0.000 A 
ATOM     12  C   UNL     1       1.245   7.659  20.306  0.00  0.00    +0.000 A 
ATOM     13  S   UNL     1       1.926   8.006  18.748  0.00  0.00    +0.000 S 
ATOM     14  C   UNL     1       2.872   6.585  18.743  0.00  0.00    +0.000 A 
ENDROOT
BRANCH   1  17
ATOM     15  C   UNL     1       6.549   3.454  12.414  0.00  0.00    +0.000 C 
ATOM     16  N   UNL     1       5.760   3.972  13.504  0.00  0.00    +0.000 N 
ATOM     17  C   UNL     1       6.367   4.583  14.581  0.00  0.00    +0.000 C 
ATOM     18  O   UNL     1       7.582   4.711  14.684  0.00  0.00    +0.000 OA
ATOM     19  H   UNL     1       4.758   4.063  13.375  0.00  0.00    +0.000 HD
ENDBRANCH   1  17
BRANCH  12  20
ATOM     20  C   UNL     1       0.224   8.561  20.858  0.00  0.00    +0.000 C 
ATOM     21  O   UNL     1      -0.770   8.101  21.428  0.00  0.00    +0.000 OA
ATOM     22  N   UNL     1       0.374   9.967  20.738  0.00  0.00    +0.000 N 
ATOM     23  C   UNL     1       1.348  10.676  19.904  0.00  0.00    +0.000 C 
BRANCH  22  24
ATOM     24  C   UNL     1      -0.562  10.820  21.424  0.00  0.00    +0.000 A 
ATOM     25  C   UNL     1      -1.286  11.747  20.652  0.00  0.00    +0.000 A 
ATOM     26  C   UNL     1      -2.320  12.496  21.223  0.00  0.00    +0.000 A 
ATOM     27  C   UNL     1      -2.621  12.339  22.569  0.00  0.00    +0.000 A 
ATOM     28  F   UNL     1      -3.623  13.043  23.110  0.00  0.00    +0.000 F 
ATOM     29  C   UNL     1      -1.899  11.460  23.363  0.00  0.00    +0.000 A 
ATOM     30  C   UNL     1      -0.872  10.700  22.796  0.00  0.00    +0.000 A 
ATOM     31 CL   UNL     1       0.037   9.711  23.885  0.00  0.00    +0.000 Cl
ENDBRANCH  22  24
ENDBRANCH  12  20
TORSDOF 3
ENDMDL
MODEL 8
REMARK VINA RESULT:      -7.4      4.137      9.994
REMARK  Name = 
REMARK  5 active torsions:
REMARK  status: ('A' for Active; 'I' for Inactive)
REMARK    1  A    between atoms: C_1  and  N_2
REMARK    2  A    between atoms: C_3  and  C_5
REMARK    3  A    between atoms: C_16  and  C_17
REMARK    4  A    between atoms: N_19  and  C_20
REMARK    5  A    between atoms: N_19  and  C_21
REMARK                            x       y       z     vdW  Elec       q    Type
REMARK                         _______ _______ _______ _____ _____    ______ ____
ROOT
ATOM      1  C   UNL     1      -1.883  12.295  20.781  0.00  0.00    +0.000 A 
ATOM      2  C   UNL     1      -2.005  11.757  19.493  0.00  0.00    +0.000 A 
ATOM      3  C   UNL     1      -1.082  10.802  19.031  0.00  0.00    +0.000 A 
ATOM      4  C   UNL     1      -0.033  10.366  19.850  0.00  0.00    +0.000 A 
ATOM      5  C   UNL     1       0.073  10.923  21.147  0.00  0.00    +0.000 A 
ATOM      6  C   UNL     1      -0.821  11.897  21.597  0.00  0.00    +0.000 A 
ATOM      7  O   UNL     1       1.130  10.648  21.976  0.00  0.00    +0.000 OA
ATOM      8  C   UNL     1       1.158   9.341  22.569  0.00  0.00    +0.000 C 
ATOM      9  C   UNL     1       0.749   8.154  21.693  0.00  0.00    +0.000 C 
ATOM     10  C   UNL     1       1.293   8.267  20.304  0.00  0.00    +0.000 A 
ATOM     11  C   UNL     1       2.299   7.448  19.720  0.00  0.00    +0.000 A 
ATOM     12  C   UNL     1       2.546   7.745  18.392  0.00  0.00    +0.000 A 
ATOM     13  S   UNL     1       1.622   9.138  17.922  0.00  0.00    +0.000 S 
ATOM     14  C   UNL     1       0.884   9.280  19.454  0.00  0.00    +0.000 A 
ENDROOT
BRANCH   1  17
ATOM     15  C   UNL     1      -4.280  15.228  20.826  0.00  0.00    +0.000 C 
ATOM     16  N   UNL     1      -3.305  14.247  20.419  0.00  0.00    +0.000 N 
ATOM     17  C   UNL     1      -2.833  13.312  21.316  0.00  0.00    +0.000 C 
ATOM     18  O   UNL     1      -3.192  13.265  22.488  0.00  0.00    +0.000 OA
ATOM     19  H   UNL     1      -3.127  14.125  19.427  0.00  0.00    +0.000 HD
ENDBRANCH   1  17
BRANCH  12  20
ATOM     20  C   UNL     1       3.500   7.163  17.437  0.00  0.00    +0.000 C 
ATOM     21  O   UNL     1       3.864   7.809  16.450  0.00  0.00    +0.000 OA
ATOM     22  N   UNL     1       4.009   5.855  17.646  0.00  0.00    +0.000 N 
ATOM     23  C   UNL     1       3.522   4.869  18.613  0.00  0.00    +0.000 C 
BRANCH  22  24
ATOM     24  C   UNL     1       5.057   5.379  16.779  0.00  0.00    +0.000 A 
ATOM     25  C   UNL     1       4.682   4.597  15.672  0.00  0.00    +0.000 A 
ATOM     26  C   UNL     1       5.625   4.233  14.705  0.00  0.00    +0.000 A 
ATOM     27  C   UNL     1       6.947   4.629  14.850  0.00  0.00    +0.000 A 
ATOM     28  F   UNL     1       7.845   4.295  13.915  0.00  0.00    +0.000 F 
ATOM     29  C   UNL     1       7.353   5.368  15.952  0.00  0.00    +0.000 A 
ATOM     30  C   UNL     1       6.414   5.745  16.916  0.00  0.00    +0.000 A 
ATOM     31 CL   UNL     1       7.032   6.575  18.302  0.00  0.00    +0.000 Cl
ENDBRANCH  22  24
ENDBRANCH  12  20
TORSDOF 3
ENDMDL
MODEL 9
REMARK VINA RESULT:      -7.4      4.433     10.397
REMARK  Name = 
REMARK  5 active torsions:
REMARK  status: ('A' for Active; 'I' for Inactive)
REMARK    1  A    between atoms: C_1  and  N_2
REMARK    2  A    between atoms: C_3  and  C_5
REMARK    3  A    between atoms: C_16  and  C_17
REMARK    4  A    between atoms: N_19  and  C_20
REMARK    5  A    between atoms: N_19  and  C_21
REMARK                            x       y       z     vdW  Elec       q    Type
REMARK                         _______ _______ _______ _____ _____    ______ ____
ROOT
ATOM      1  C   UNL     1      -2.489  13.528  22.354  0.00  0.00    +0.000 A 
ATOM      2  C   UNL     1      -1.558  12.864  23.163  0.00  0.00    +0.000 A 
ATOM      3  C   UNL     1      -0.765  11.830  22.634  0.00  0.00    +0.000 A 
ATOM      4  C   UNL     1      -0.886  11.453  21.290  0.00  0.00    +0.000 A 
ATOM      5  C   UNL     1      -1.833  12.137  20.491  0.00  0.00    +0.000 A 
ATOM      6  C   UNL     1      -2.646  13.140  21.022  0.00  0.00    +0.000 A 
ATOM      7  O   UNL     1      -2.106  11.762  19.200  0.00  0.00    +0.000 OA
ATOM      8  C   UNL     1      -1.104  12.066  18.218  0.00  0.00    +0.000 C 
ATOM      9  C   UNL     1       0.361  11.865  18.611  0.00  0.00    +0.000 C 
ATOM     10  C   UNL     1       0.564  10.612  19.403  0.00  0.00    +0.000 A 
ATOM     11  C   UNL     1       1.249   9.442  18.974  0.00  0.00    +0.000 A 
ATOM     12  C   UNL     1       1.338   8.468  19.953  0.00  0.00    +0.000 A 
ATOM     13  S   UNL     1       0.440   8.963  21.354  0.00  0.00    +0.000 S 
ATOM     14  C   UNL     1       0.007  10.461  20.661  0.00  0.00    +0.000 A 
ENDROOT
BRANCH   1  17
ATOM     15  C   UNL     1      -3.820  16.189  24.700  0.00  0.00    +0.000 C 
ATOM     16  N   UNL     1      -3.081  15.084  24.142  0.00  0.00    +0.000 N 
ATOM     17  C   UNL     1      -3.355  14.628  22.870  0.00  0.00    +0.000 C 
ATOM     18  O   UNL     1      -4.228  15.112  22.156  0.00  0.00    +0.000 OA
ATOM     19  H   UNL     1      -2.233  14.783  24.610  0.00  0.00    +0.000 HD
ENDBRANCH   1  17
BRANCH  12  20
ATOM     20  C   UNL     1       1.937   7.126  19.923  0.00  0.00    +0.000 C 
ATOM     21  O   UNL     1       1.695   6.317  20.825  0.00  0.00    +0.000 OA
ATOM     22  N   UNL     1       2.797   6.753  18.859  0.00  0.00    +0.000 N 
ATOM     23  C   UNL     1       3.375   7.640  17.846  0.00  0.00    +0.000 C 
BRANCH  22  24
ATOM     24  C   UNL     1       3.240   5.384  18.780  0.00  0.00    +0.000 A 
ATOM     25  C   UNL     1       4.480   5.065  19.362  0.00  0.00    +0.000 A 
ATOM     26  C   UNL     1       4.899   3.735  19.462  0.00  0.00    +0.000 A 
ATOM     27  C   UNL     1       4.094   2.720  18.961  0.00  0.00    +0.000 A 
ATOM     28  F   UNL     1       4.488   1.446  19.073  0.00  0.00    +0.000 F 
ATOM     29  C   UNL     1       2.884   3.008  18.347  0.00  0.00    +0.000 A 
ATOM     30  C   UNL     1       2.453   4.335  18.255  0.00  0.00    +0.000 A 
ATOM     31 CL   UNL     1       0.984   4.603  17.383  0.00  0.00    +0.000 Cl
ENDBRANCH  22  24
ENDBRANCH  12  20
TORSDOF 3
ENDMDL
