MODEL 1
REMARK VINA RESULT:      -8.0      0.000      0.000
REMARK  Name = 
REMARK  8 active torsions:
REMARK  status: ('A' for Active; 'I' for Inactive)
REMARK    1  A    between atoms: C_1  and  C_2
REMARK    2  A    between atoms: C_5  and  C_6
REMARK    3  A    between atoms: C_8  and  C_9
REMARK    4  A    between atoms: C_9  and  O_10
REMARK    5  A    between atoms: O_10  and  C_11
REMARK    6  A    between atoms: C_11  and  C_12
REMARK    7  A    between atoms: C_24  and  C_25
REMARK    8  A    between atoms: C_25  and  O_27
REMARK                            x       y       z     vdW  Elec       q    Type
REMARK                         _______ _______ _______ _____ _____    ______ ____
ROOT
ATOM      1  C   UNL     1       4.383   4.724  17.596  0.00  0.00    +0.000 C 
ATOM      2  O   UNL     1       4.548   4.397  19.013  0.00  0.00    +0.000 OA
ATOM      3  C   UNL     1       3.396   4.018  19.672  0.00  0.00    +0.000 A 
ATOM      4  C   UNL     1       3.456   3.846  21.050  0.00  0.00    +0.000 A 
ATOM      5  C   UNL     1       2.313   3.435  21.740  0.00  0.00    +0.000 A 
ATOM      6  C   UNL     1       1.149   3.100  21.041  0.00  0.00    +0.000 A 
ATOM      7  C   UNL     1       1.067   3.337  19.671  0.00  0.00    +0.000 A 
ATOM      8  C   UNL     1       2.156   3.916  19.021  0.00  0.00    +0.000 A 
ATOM      9  C   UNL     1       1.958   4.665  17.757  0.00  0.00    +0.000 C 
ATOM     10  C   UNL     1       3.027   5.438  17.443  0.00  0.00    +0.000 C 
ENDROOT
BRANCH   1  11
ATOM     11  C   UNL     1       4.423   3.438  16.638  0.00  0.00    +0.000 C 
ATOM     12  F   UNL     1       3.413   3.439  15.729  0.00  0.00    +0.000 F 
ATOM     13  F   UNL     1       5.575   3.358  15.934  0.00  0.00    +0.000 F 
ATOM     14  F   UNL     1       4.281   2.263  17.302  0.00  0.00    +0.000 F 
ENDBRANCH   1  11
BRANCH  10  15
ATOM     15  C   UNL     1       2.979   6.754  18.181  0.00  0.00    +0.000 C 
ATOM     16  O   UNL     1       2.317   6.977  19.182  0.00  0.00    +0.000 OA
BRANCH  15  17
ATOM     17  O   UNL     1       3.696   7.722  17.573  0.00  0.00    +0.000 OA
ATOM     18  H   UNL     1       4.243   8.256  18.191  0.00  0.00    +0.000 HD
ENDBRANCH  15  17
ENDBRANCH  10  15
BRANCH   1  19
ATOM     19  O   UNL     1       5.426   5.674  17.211  0.00  0.00    +0.000 OA
BRANCH  19  20
ATOM     20  C   UNL     1       6.563   5.636  18.088  0.00  0.00    +0.000 C 
BRANCH  20  23
ATOM     21  C   UNL     1       8.285   8.886  18.249  0.00  0.00    +0.000 A 
ATOM     22  C   UNL     1       8.157   7.590  18.815  0.00  0.00    +0.000 A 
ATOM     23  C   UNL     1       7.169   6.983  18.081  0.00  0.00    +0.000 A 
ATOM     24  O   UNL     1       6.729   7.842  17.126  0.00  0.00    +0.000 OA
ATOM     25  N   UNL     1       7.435   9.023  17.213  0.00  0.00    +0.000 NA
BRANCH  21  30
ATOM     26  C   UNL     1      12.043  13.007  19.763  0.00  0.00    +0.000 C 
ATOM     27  C   UNL     1      11.021  11.976  19.385  0.00  0.00    +0.000 A 
ATOM     28  C   UNL     1      10.295  11.288  20.360  0.00  0.00    +0.000 A 
ATOM     29  C   UNL     1       9.388  10.288  19.994  0.00  0.00    +0.000 A 
ATOM     30  C   UNL     1       9.188   9.966  18.645  0.00  0.00    +0.000 A 
ATOM     31  C   UNL     1       9.895  10.678  17.669  0.00  0.00    +0.000 A 
ATOM     32  C   UNL     1      10.807  11.671  18.036  0.00  0.00    +0.000 A 
ENDBRANCH  21  30
ENDBRANCH  20  23
ENDBRANCH  19  20
ENDBRANCH   1  19
TORSDOF 7
ENDMDL
MODEL 2
REMARK VINA RESULT:      -7.9      1.267      1.631
REMARK  Name = 
REMARK  8 active torsions:
REMARK  status: ('A' for Active; 'I' for Inactive)
REMARK    1  A    between atoms: C_1  and  C_2
REMARK    2  A    between atoms: C_5  and  C_6
REMARK    3  A    between atoms: C_8  and  C_9
REMARK    4  A    between atoms: C_9  and  O_10
REMARK    5  A    between atoms: O_10  and  C_11
REMARK    6  A    between atoms: C_11  and  C_12
REMARK    7  A    between atoms: C_24  and  C_25
REMARK    8  A    between atoms: C_25  and  O_27
REMARK                            x       y       z     vdW  Elec       q    Type
REMARK                         _______ _______ _______ _____ _____    ______ ____
ROOT
ATOM      1  C   UNL     1       4.783   4.898  18.058  0.00  0.00    +0.000 C 
ATOM      2  O   UNL     1       4.510   4.119  19.267  0.00  0.00    +0.000 OA
ATOM      3  C   UNL     1       3.225   3.629  19.378  0.00  0.00    +0.000 A 
ATOM      4  C   UNL     1       2.857   3.016  20.569  0.00  0.00    +0.000 A 
ATOM      5  C   UNL     1       1.571   2.486  20.701  0.00  0.00    +0.000 A 
ATOM      6  C   UNL     1       0.697   2.479  19.610  0.00  0.00    +0.000 A 
ATOM      7  C   UNL     1       1.038   3.152  18.439  0.00  0.00    +0.000 A 
ATOM      8  C   UNL     1       2.254   3.831  18.382  0.00  0.00    +0.000 A 
ATOM      9  C   UNL     1       2.433   4.962  17.440  0.00  0.00    +0.000 C 
ATOM     10  C   UNL     1       3.518   5.717  17.741  0.00  0.00    +0.000 C 
ENDROOT
BRANCH   1  11
ATOM     11  C   UNL     1       5.167   3.992  16.790  0.00  0.00    +0.000 C 
ATOM     12  F   UNL     1       4.676   2.729  16.891  0.00  0.00    +0.000 F 
ATOM     13  F   UNL     1       4.688   4.501  15.632  0.00  0.00    +0.000 F 
ATOM     14  F   UNL     1       6.504   3.826  16.628  0.00  0.00    +0.000 F 
ENDBRANCH   1  11
BRANCH  10  15
ATOM     15  C   UNL     1       3.195   6.722  18.820  0.00  0.00    +0.000 C 
ATOM     16  O   UNL     1       2.528   7.733  18.665  0.00  0.00    +0.000 OA
BRANCH  15  17
ATOM     17  O   UNL     1       3.794   6.439  19.996  0.00  0.00    +0.000 OA
ATOM     18  H   UNL     1       4.739   6.183  19.906  0.00  0.00    +0.000 HD
ENDBRANCH  15  17
ENDBRANCH  10  15
BRANCH   1  19
ATOM     19  O   UNL     1       5.860   5.845  18.347  0.00  0.00    +0.000 OA
BRANCH  19  20
ATOM     20  C   UNL     1       6.233   6.628  17.202  0.00  0.00    +0.000 C 
BRANCH  20  23
ATOM     21  C   UNL     1       8.469   9.369  18.224  0.00  0.00    +0.000 A 
ATOM     22  C   UNL     1       7.381   8.980  17.399  0.00  0.00    +0.000 A 
ATOM     23  C   UNL     1       7.200   7.645  17.662  0.00  0.00    +0.000 A 
ATOM     24  O   UNL     1       8.107   7.245  18.590  0.00  0.00    +0.000 OA
ATOM     25  N   UNL     1       8.888   8.321  18.960  0.00  0.00    +0.000 NA
BRANCH  21  30
ATOM     26  C   UNL     1      10.858  14.582  18.934  0.00  0.00    +0.000 C 
ATOM     27  C   UNL     1      10.258  13.229  18.691  0.00  0.00    +0.000 A 
ATOM     28  C   UNL     1       9.094  13.082  17.933  0.00  0.00    +0.000 A 
ATOM     29  C   UNL     1       8.514  11.820  17.764  0.00  0.00    +0.000 A 
ATOM     30  C   UNL     1       9.093  10.685  18.345  0.00  0.00    +0.000 A 
ATOM     31  C   UNL     1      10.276  10.832  19.079  0.00  0.00    +0.000 A 
ATOM     32  C   UNL     1      10.851  12.093  19.254  0.00  0.00    +0.000 A 
ENDBRANCH  21  30
ENDBRANCH  20  23
ENDBRANCH  19  20
ENDBRANCH   1  19
TORSDOF 7
ENDMDL
MODEL 3
REMARK VINA RESULT:      -7.9      1.264      1.421
REMARK  Name = 
REMARK  8 active torsions:
REMARK  status: ('A' for Active; 'I' for Inactive)
REMARK    1  A    between atoms: C_1  and  C_2
REMARK    2  A    between atoms: C_5  and  C_6
REMARK    3  A    between atoms: C_8  and  C_9
REMARK    4  A    between atoms: C_9  and  O_10
REMARK    5  A    between atoms: O_10  and  C_11
REMARK    6  A    between atoms: C_11  and  C_12
REMARK    7  A    between atoms: C_24  and  C_25
REMARK    8  A    between atoms: C_25  and  O_27
REMARK                            x       y       z     vdW  Elec       q    Type
REMARK                         _______ _______ _______ _____ _____    ______ ____
ROOT
ATOM      1  C   UNL     1       4.826   4.758  18.026  0.00  0.00    +0.000 C 
ATOM      2  O   UNL     1       4.546   3.994  19.243  0.00  0.00    +0.000 OA
ATOM      3  C   UNL     1       3.253   3.531  19.367  0.00  0.00    +0.000 A 
ATOM      4  C   UNL     1       2.882   2.934  20.566  0.00  0.00    +0.000 A 
ATOM      5  C   UNL     1       1.587   2.430  20.711  0.00  0.00    +0.000 A 
ATOM      6  C   UNL     1       0.705   2.431  19.627  0.00  0.00    +0.000 A 
ATOM      7  C   UNL     1       1.051   3.088  18.448  0.00  0.00    +0.000 A 
ATOM      8  C   UNL     1       2.279   3.743  18.377  0.00  0.00    +0.000 A 
ATOM      9  C   UNL     1       2.473   4.862  17.424  0.00  0.00    +0.000 C 
ATOM     10  C   UNL     1       3.574   5.599  17.712  0.00  0.00    +0.000 C 
ENDROOT
BRANCH   1  11
ATOM     11  C   UNL     1       5.183   3.835  16.763  0.00  0.00    +0.000 C 
ATOM     12  F   UNL     1       4.658   4.317  15.606  0.00  0.00    +0.000 F 
ATOM     13  F   UNL     1       6.517   3.727  16.567  0.00  0.00    +0.000 F 
ATOM     14  F   UNL     1       4.692   2.573  16.859  0.00  0.00    +0.000 F 
ENDBRANCH   1  11
BRANCH  10  15
ATOM     15  C   UNL     1       3.278   6.619  18.784  0.00  0.00    +0.000 C 
ATOM     16  O   UNL     1       2.624   7.638  18.627  0.00  0.00    +0.000 OA
BRANCH  15  17
ATOM     17  O   UNL     1       3.887   6.338  19.956  0.00  0.00    +0.000 OA
ATOM     18  H   UNL     1       3.997   7.120  20.541  0.00  0.00    +0.000 HD
ENDBRANCH  15  17
ENDBRANCH  10  15
BRANCH   1  19
ATOM     19  O   UNL     1       5.922   5.687  18.300  0.00  0.00    +0.000 OA
BRANCH  19  20
ATOM     20  C   UNL     1       6.221   6.538  17.182  0.00  0.00    +0.000 C 
BRANCH  20  23
ATOM     21  C   UNL     1       8.422   9.296  18.234  0.00  0.00    +0.000 A 
ATOM     22  C   UNL     1       7.341   8.902  17.403  0.00  0.00    +0.000 A 
ATOM     23  C   UNL     1       7.175   7.562  17.654  0.00  0.00    +0.000 A 
ATOM     24  O   UNL     1       8.084   7.165  18.581  0.00  0.00    +0.000 OA
ATOM     25  N   UNL     1       8.852   8.247  18.961  0.00  0.00    +0.000 NA
BRANCH  21  30
ATOM     26  C   UNL     1      10.919  14.498  18.537  0.00  0.00    +0.000 C 
ATOM     27  C   UNL     1      10.251  13.156  18.517  0.00  0.00    +0.000 A 
ATOM     28  C   UNL     1      10.789  12.071  19.214  0.00  0.00    +0.000 A 
ATOM     29  C   UNL     1      10.186  10.811  19.137  0.00  0.00    +0.000 A 
ATOM     30  C   UNL     1       9.031  10.618  18.368  0.00  0.00    +0.000 A 
ATOM     31  C   UNL     1       8.478  11.714  17.695  0.00  0.00    +0.000 A 
ATOM     32  C   UNL     1       9.085  12.971  17.765  0.00  0.00    +0.000 A 
ENDBRANCH  21  30
ENDBRANCH  20  23
ENDBRANCH  19  20
ENDBRANCH   1  19
TORSDOF 7
ENDMDL
MODEL 4
REMARK VINA RESULT:      -7.7      1.314      1.540
REMARK  Name = 
REMARK  8 active torsions:
REMARK  status: ('A' for Active; 'I' for Inactive)
REMARK    1  A    between atoms: C_1  and  C_2
REMARK    2  A    between atoms: C_5  and  C_6
REMARK    3  A    between atoms: C_8  and  C_9
REMARK    4  A    between atoms: C_9  and  O_10
REMARK    5  A    between atoms: O_10  and  C_11
REMARK    6  A    between atoms: C_11  and  C_12
REMARK    7  A    between atoms: C_24  and  C_25
REMARK    8  A    between atoms: C_25  and  O_27
REMARK                            x       y       z     vdW  Elec       q    Type
REMARK                         _______ _______ _______ _____ _____    ______ ____
ROOT
ATOM      1  C   UNL     1       5.609   4.818  16.853  0.00  0.00    +0.000 C 
ATOM      2  O   UNL     1       5.771   4.164  18.152  0.00  0.00    +0.000 OA
ATOM      3  C   UNL     1       4.658   3.499  18.624  0.00  0.00    +0.000 A 
ATOM      4  C   UNL     1       4.696   2.991  19.917  0.00  0.00    +0.000 A 
ATOM      5  C   UNL     1       3.594   2.289  20.412  0.00  0.00    +0.000 A 
ATOM      6  C   UNL     1       2.505   2.010  19.581  0.00  0.00    +0.000 A 
ATOM      7  C   UNL     1       2.436   2.576  18.310  0.00  0.00    +0.000 A 
ATOM      8  C   UNL     1       3.461   3.423  17.892  0.00  0.00    +0.000 A 
ATOM      9  C   UNL     1       3.208   4.440  16.844  0.00  0.00    +0.000 C 
ATOM     10  C   UNL     1       4.178   5.386  16.798  0.00  0.00    +0.000 C 
ENDROOT
BRANCH   1  11
ATOM     11  C   UNL     1       5.842   3.831  15.610  0.00  0.00    +0.000 C 
ATOM     12  F   UNL     1       5.691   2.525  15.952  0.00  0.00    +0.000 F 
ATOM     13  F   UNL     1       4.977   4.067  14.598  0.00  0.00    +0.000 F 
ATOM     14  F   UNL     1       7.093   3.904  15.088  0.00  0.00    +0.000 F 
ENDBRANCH   1  11
BRANCH  10  15
ATOM     15  C   UNL     1       3.940   6.456  17.836  0.00  0.00    +0.000 C 
ATOM     16  O   UNL     1       3.443   6.274  18.935  0.00  0.00    +0.000 OA
BRANCH  15  17
ATOM     17  O   UNL     1       4.264   7.691  17.397  0.00  0.00    +0.000 OA
ATOM     18  H   UNL     1       3.498   8.199  17.046  0.00  0.00    +0.000 HD
ENDBRANCH  15  17
ENDBRANCH  10  15
BRANCH   1  19
ATOM     19  O   UNL     1       6.534   5.949  16.782  0.00  0.00    +0.000 OA
BRANCH  19  20
ATOM     20  C   UNL     1       7.345   6.079  17.960  0.00  0.00    +0.000 C 
BRANCH  20  23
ATOM     21  C   UNL     1       8.633   9.506  18.346  0.00  0.00    +0.000 A 
ATOM     22  C   UNL     1       8.681   8.169  18.819  0.00  0.00    +0.000 A 
ATOM     23  C   UNL     1       7.771   7.490  18.046  0.00  0.00    +0.000 A 
ATOM     24  O   UNL     1       7.213   8.349  17.155  0.00  0.00    +0.000 OA
ATOM     25  N   UNL     1       7.761   9.604  17.324  0.00  0.00    +0.000 NA
BRANCH  21  30
ATOM     26  C   UNL     1      11.842  13.965  20.138  0.00  0.00    +0.000 C 
ATOM     27  C   UNL     1      10.959  12.840  19.690  0.00  0.00    +0.000 A 
ATOM     28  C   UNL     1      10.340  11.996  20.616  0.00  0.00    +0.000 A 
ATOM     29  C   UNL     1       9.566  10.915  20.182  0.00  0.00    +0.000 A 
ATOM     30  C   UNL     1       9.393  10.664  18.814  0.00  0.00    +0.000 A 
ATOM     31  C   UNL     1       9.990  11.529  17.890  0.00  0.00    +0.000 A 
ATOM     32  C   UNL     1      10.769  12.604  18.323  0.00  0.00    +0.000 A 
ENDBRANCH  21  30
ENDBRANCH  20  23
ENDBRANCH  19  20
ENDBRANCH   1  19
TORSDOF 7
ENDMDL
MODEL 5
REMARK VINA RESULT:      -7.7      6.015      8.561
REMARK  Name = 
REMARK  8 active torsions:
REMARK  status: ('A' for Active; 'I' for Inactive)
REMARK    1  A    between atoms: C_1  and  C_2
REMARK    2  A    between atoms: C_5  and  C_6
REMARK    3  A    between atoms: C_8  and  C_9
REMARK    4  A    between atoms: C_9  and  O_10
REMARK    5  A    between atoms: O_10  and  C_11
REMARK    6  A    between atoms: C_11  and  C_12
REMARK    7  A    between atoms: C_24  and  C_25
REMARK    8  A    between atoms: C_25  and  O_27
REMARK                            x       y       z     vdW  Elec       q    Type
REMARK                         _______ _______ _______ _____ _____    ______ ____
ROOT
ATOM      1  C   UNL     1      -0.166  10.990  19.370  0.00  0.00    +0.000 C 
ATOM      2  O   UNL     1      -0.730  10.826  20.710  0.00  0.00    +0.000 OA
ATOM      3  C   UNL     1      -1.485  11.887  21.168  0.00  0.00    +0.000 A 
ATOM      4  C   UNL     1      -1.918  11.862  22.489  0.00  0.00    +0.000 A 
ATOM      5  C   UNL     1      -2.707  12.908  22.973  0.00  0.00    +0.000 A 
ATOM      6  C   UNL     1      -3.145  13.917  22.111  0.00  0.00    +0.000 A 
ATOM      7  C   UNL     1      -2.658  13.980  20.807  0.00  0.00    +0.000 A 
ATOM      8  C   UNL     1      -1.729  13.030  20.389  0.00  0.00    +0.000 A 
ATOM      9  C   UNL     1      -0.801  13.334  19.273  0.00  0.00    +0.000 C 
ATOM     10  C   UNL     1       0.240  12.468  19.217  0.00  0.00    +0.000 C 
ENDROOT
BRANCH   1  11
ATOM     11  C   UNL     1      -1.186  10.590  18.198  0.00  0.00    +0.000 C 
ATOM     12  F   UNL     1      -1.477  11.640  17.386  0.00  0.00    +0.000 F 
ATOM     13  F   UNL     1      -0.696   9.612  17.402  0.00  0.00    +0.000 F 
ATOM     14  F   UNL     1      -2.393  10.166  18.651  0.00  0.00    +0.000 F 
ENDBRANCH   1  11
BRANCH  10  15
ATOM     15  C   UNL     1       1.332  12.870  20.179  0.00  0.00    +0.000 C 
ATOM     16  O   UNL     1       2.092  13.812  20.028  0.00  0.00    +0.000 OA
BRANCH  15  17
ATOM     17  O   UNL     1       1.451  12.020  21.221  0.00  0.00    +0.000 OA
ATOM     18  H   UNL     1       2.114  11.308  21.076  0.00  0.00    +0.000 HD
ENDBRANCH  15  17
ENDBRANCH  10  15
BRANCH   1  19
ATOM     19  O   UNL     1       1.053  10.187  19.275  0.00  0.00    +0.000 OA
BRANCH  19  20
ATOM     20  C   UNL     1       1.068   9.089  20.201  0.00  0.00    +0.000 C 
BRANCH  20  23
ATOM     21  C   UNL     1       3.102   6.571  18.448  0.00  0.00    +0.000 A 
ATOM     22  C   UNL     1       2.532   7.870  18.396  0.00  0.00    +0.000 A 
ATOM     23  C   UNL     1       1.845   7.999  19.578  0.00  0.00    +0.000 A 
ATOM     24  O   UNL     1       1.992   6.863  20.307  0.00  0.00    +0.000 OA
ATOM     25  N   UNL     1       2.792   5.976  19.616  0.00  0.00    +0.000 NA
BRANCH  21  30
ATOM     26  C   UNL     1       6.222   3.989  14.326  0.00  0.00    +0.000 C 
ATOM     27  C   UNL     1       5.455   4.640  15.438  0.00  0.00    +0.000 A 
ATOM     28  C   UNL     1       4.722   3.879  16.352  0.00  0.00    +0.000 A 
ATOM     29  C   UNL     1       3.964   4.504  17.347  0.00  0.00    +0.000 A 
ATOM     30  C   UNL     1       3.933   5.902  17.449  0.00  0.00    +0.000 A 
ATOM     31  C   UNL     1       4.692   6.660  16.550  0.00  0.00    +0.000 A 
ATOM     32  C   UNL     1       5.443   6.036  15.551  0.00  0.00    +0.000 A 
ENDBRANCH  21  30
ENDBRANCH  20  23
ENDBRANCH  19  20
ENDBRANCH   1  19
TORSDOF 7
ENDMDL
MODEL 6
REMARK VINA RESULT:      -7.6      6.025      8.860
REMARK  Name = 
REMARK  8 active torsions:
REMARK  status: ('A' for Active; 'I' for Inactive)
REMARK    1  A    between atoms: C_1  and  C_2
REMARK    2  A    between atoms: C_5  and  C_6
REMARK    3  A    between atoms: C_8  and  C_9
REMARK    4  A    between atoms: C_9  and  O_10
REMARK    5  A    between atoms: O_10  and  C_11
REMARK    6  A    between atoms: C_11  and  C_12
REMARK    7  A    between atoms: C_24  and  C_25
REMARK    8  A    between atoms: C_25  and  O_27
REMARK                            x       y       z     vdW  Elec       q    Type
REMARK                         _______ _______ _______ _____ _____    ______ ____
ROOT
ATOM      1  C   UNL     1      -0.295  10.743  20.579  0.00  0.00    +0.000 C 
ATOM      2  O   UNL     1       0.997  11.329  20.219  0.00  0.00    +0.000 OA
ATOM      3  C   UNL     1       0.941  12.593  19.668  0.00  0.00    +0.000 A 
ATOM      4  C   UNL     1       2.114  13.141  19.162  0.00  0.00    +0.000 A 
ATOM      5  C   UNL     1       2.094  14.429  18.624  0.00  0.00    +0.000 A 
ATOM      6  C   UNL     1       0.931  15.202  18.688  0.00  0.00    +0.000 A 
ATOM      7  C   UNL     1      -0.260  14.632  19.132  0.00  0.00    +0.000 A 
ATOM      8  C   UNL     1      -0.268  13.288  19.499  0.00  0.00    +0.000 A 
ATOM      9  C   UNL     1      -1.529  12.509  19.454  0.00  0.00    +0.000 C 
ATOM     10  C   UNL     1      -1.312  11.172  19.505  0.00  0.00    +0.000 C 
ENDROOT
BRANCH   1  11
ATOM     11  C   UNL     1      -0.819  11.200  22.026  0.00  0.00    +0.000 C 
ATOM     12  F   UNL     1      -0.140  12.274  22.506  0.00  0.00    +0.000 F 
ATOM     13  F   UNL     1      -2.127  11.545  22.013  0.00  0.00    +0.000 F 
ATOM     14  F   UNL     1      -0.669  10.248  22.981  0.00  0.00    +0.000 F 
ENDBRANCH   1  11
BRANCH  10  15
ATOM     15  C   UNL     1      -0.975  10.626  18.139  0.00  0.00    +0.000 C 
ATOM     16  O   UNL     1      -1.749  10.552  17.199  0.00  0.00    +0.000 OA
BRANCH  15  17
ATOM     17  O   UNL     1       0.281  10.136  18.067  0.00  0.00    +0.000 OA
ATOM     18  H   UNL     1       0.401   9.286  18.546  0.00  0.00    +0.000 HD
ENDBRANCH  15  17
ENDBRANCH  10  15
BRANCH   1  19
ATOM     19  O   UNL     1      -0.180   9.286  20.520  0.00  0.00    +0.000 OA
BRANCH  19  20
ATOM     20  C   UNL     1       0.924   8.785  21.289  0.00  0.00    +0.000 C 
BRANCH  20  23
ATOM     21  C   UNL     1       2.751   6.448  19.108  0.00  0.00    +0.000 A 
ATOM     22  C   UNL     1       2.374   7.798  19.337  0.00  0.00    +0.000 A 
ATOM     23  C   UNL     1       1.600   7.758  20.469  0.00  0.00    +0.000 A 
ATOM     24  O   UNL     1       1.516   6.477  20.910  0.00  0.00    +0.000 OA
ATOM     25  N   UNL     1       2.248   5.658  20.076  0.00  0.00    +0.000 NA
BRANCH  21  30
ATOM     26  C   UNL     1       5.841   4.382  14.684  0.00  0.00    +0.000 C 
ATOM     27  C   UNL     1       5.082   4.894  15.871  0.00  0.00    +0.000 A 
ATOM     28  C   UNL     1       4.351   4.029  16.689  0.00  0.00    +0.000 A 
ATOM     29  C   UNL     1       3.600   4.530  17.757  0.00  0.00    +0.000 A 
ATOM     30  C   UNL     1       3.574   5.904  18.029  0.00  0.00    +0.000 A 
ATOM     31  C   UNL     1       4.331   6.765  17.226  0.00  0.00    +0.000 A 
ATOM     32  C   UNL     1       5.075   6.265  16.154  0.00  0.00    +0.000 A 
ENDBRANCH  21  30
ENDBRANCH  20  23
ENDBRANCH  19  20
ENDBRANCH   1  19
TORSDOF 7
ENDMDL
MODEL 7
REMARK VINA RESULT:      -7.6      6.214      8.871
REMARK  Name = 
REMARK  8 active torsions:
REMARK  status: ('A' for Active; 'I' for Inactive)
REMARK    1  A    between atoms: C_1  and  C_2
REMARK    2  A    between atoms: C_5  and  C_6
REMARK    3  A    between atoms: C_8  and  C_9
REMARK    4  A    between atoms: C_9  and  O_10
REMARK    5  A    between atoms: O_10  and  C_11
REMARK    6  A    between atoms: C_11  and  C_12
REMARK    7  A    between atoms: C_24  and  C_25
REMARK    8  A    between atoms: C_25  and  O_27
REMARK                            x       y       z     vdW  Elec       q    Type
REMARK                         _______ _______ _______ _____ _____    ______ ____
ROOT
ATOM      1  C   UNL     1      -0.231  11.468  19.006  0.00  0.00    +0.000 C 
ATOM      2  O   UNL     1      -0.257  11.639  20.459  0.00  0.00    +0.000 OA
ATOM      3  C   UNL     1      -0.557  12.911  20.901  0.00  0.00    +0.000 A 
ATOM      4  C   UNL     1      -0.446  13.177  22.260  0.00  0.00    +0.000 A 
ATOM      5  C   UNL     1      -0.770  14.448  22.740  0.00  0.00    +0.000 A 
ATOM      6  C   UNL     1      -1.300  15.413  21.879  0.00  0.00    +0.000 A 
ATOM      7  C   UNL     1      -1.349  15.171  20.508  0.00  0.00    +0.000 A 
ATOM      8  C   UNL     1      -0.855  13.964  20.018  0.00  0.00    +0.000 A 
ATOM      9  C   UNL     1      -0.387  13.862  18.615  0.00  0.00    +0.000 C 
ATOM     10  C   UNL     1       0.363  12.754  18.401  0.00  0.00    +0.000 C 
ENDROOT
BRANCH   1  11
ATOM     11  C   UNL     1      -1.680  11.197  18.371  0.00  0.00    +0.000 C 
ATOM     12  F   UNL     1      -1.871   9.889  18.061  0.00  0.00    +0.000 F 
ATOM     13  F   UNL     1      -2.681  11.546  19.211  0.00  0.00    +0.000 F 
ATOM     14  F   UNL     1      -1.892  11.859  17.205  0.00  0.00    +0.000 F 
ENDBRANCH   1  11
BRANCH  10  15
ATOM     15  C   UNL     1       1.796  12.980  18.819  0.00  0.00    +0.000 C 
ATOM     16  O   UNL     1       2.170  13.806  19.637  0.00  0.00    +0.000 OA
BRANCH  15  17
ATOM     17  O   UNL     1       2.670  12.218  18.127  0.00  0.00    +0.000 OA
ATOM     18  H   UNL     1       2.978  11.425  18.619  0.00  0.00    +0.000 HD
ENDBRANCH  15  17
ENDBRANCH  10  15
BRANCH   1  19
ATOM     19  O   UNL     1       0.677  10.368  18.681  0.00  0.00    +0.000 OA
BRANCH  19  20
ATOM     20  C   UNL     1       0.968   9.535  19.814  0.00  0.00    +0.000 C 
BRANCH  20  23
ATOM     21  C   UNL     1       3.035   6.853  18.370  0.00  0.00    +0.000 A 
ATOM     22  C   UNL     1       2.434   8.122  18.159  0.00  0.00    +0.000 A 
ATOM     23  C   UNL     1       1.761   8.390  19.325  0.00  0.00    +0.000 A 
ATOM     24  O   UNL     1       1.945   7.363  20.194  0.00  0.00    +0.000 OA
ATOM     25  N   UNL     1       2.755   6.410  19.611  0.00  0.00    +0.000 NA
BRANCH  21  30
ATOM     26  C   UNL     1       6.166   3.838  14.562  0.00  0.00    +0.000 C 
ATOM     27  C   UNL     1       5.394   4.604  15.595  0.00  0.00    +0.000 A 
ATOM     28  C   UNL     1       4.611   3.945  16.546  0.00  0.00    +0.000 A 
ATOM     29  C   UNL     1       3.850   4.675  17.466  0.00  0.00    +0.000 A 
ATOM     30  C   UNL     1       3.867   6.076  17.453  0.00  0.00    +0.000 A 
ATOM     31  C   UNL     1       4.675   6.733  16.518  0.00  0.00    +0.000 A 
ATOM     32  C   UNL     1       5.429   6.004  15.594  0.00  0.00    +0.000 A 
ENDBRANCH  21  30
ENDBRANCH  20  23
ENDBRANCH  19  20
ENDBRANCH   1  19
TORSDOF 7
ENDMDL
MODEL 8
REMARK VINA RESULT:      -7.5      5.991      8.859
REMARK  Name = 
REMARK  8 active torsions:
REMARK  status: ('A' for Active; 'I' for Inactive)
REMARK    1  A    between atoms: C_1  and  C_2
REMARK    2  A    between atoms: C_5  and  C_6
REMARK    3  A    between atoms: C_8  and  C_9
REMARK    4  A    between atoms: C_9  and  O_10
REMARK    5  A    between atoms: O_10  and  C_11
REMARK    6  A    between atoms: C_11  and  C_12
REMARK    7  A    between atoms: C_24  and  C_25
REMARK    8  A    between atoms: C_25  and  O_27
REMARK                            x       y       z     vdW  Elec       q    Type
REMARK                         _______ _______ _______ _____ _____    ______ ____
ROOT
ATOM      1  C   UNL     1      -0.284  10.649  20.713  0.00  0.00    +0.000 C 
ATOM      2  O   UNL     1       1.018  11.268  20.458  0.00  0.00    +0.000 OA
ATOM      3  C   UNL     1       0.976  12.523  19.885  0.00  0.00    +0.000 A 
ATOM      4  C   UNL     1       2.173  13.098  19.476  0.00  0.00    +0.000 A 
ATOM      5  C   UNL     1       2.164  14.378  18.919  0.00  0.00    +0.000 A 
ATOM      6  C   UNL     1       0.979  15.118  18.869  0.00  0.00    +0.000 A 
ATOM      7  C   UNL     1      -0.230  14.519  19.215  0.00  0.00    +0.000 A 
ATOM      8  C   UNL     1      -0.233  13.180  19.601  0.00  0.00    +0.000 A 
ATOM      9  C   UNL     1      -1.463  12.364  19.457  0.00  0.00    +0.000 C 
ATOM     10  C   UNL     1      -1.214  11.035  19.547  0.00  0.00    +0.000 C 
ENDROOT
BRANCH   1  11
ATOM     11  C   UNL     1      -0.945  11.109  22.101  0.00  0.00    +0.000 C 
ATOM     12  F   UNL     1      -2.215  11.563  21.942  0.00  0.00    +0.000 F 
ATOM     13  F   UNL     1      -1.006  10.099  22.999  0.00  0.00    +0.000 F 
ATOM     14  F   UNL     1      -0.289  12.134  22.700  0.00  0.00    +0.000 F 
ENDBRANCH   1  11
BRANCH  10  15
ATOM     15  C   UNL     1      -0.742  10.482  18.224  0.00  0.00    +0.000 C 
ATOM     16  O   UNL     1       0.236   9.770  18.066  0.00  0.00    +0.000 OA
BRANCH  15  17
ATOM     17  O   UNL     1      -1.478  10.922  17.181  0.00  0.00    +0.000 OA
ATOM     18  H   UNL     1      -2.188  10.299  16.908  0.00  0.00    +0.000 HD
ENDBRANCH  15  17
ENDBRANCH  10  15
BRANCH   1  19
ATOM     19  O   UNL     1      -0.123   9.196  20.685  0.00  0.00    +0.000 OA
BRANCH  19  20
ATOM     20  C   UNL     1       1.090   8.759  21.318  0.00  0.00    +0.000 C 
BRANCH  20  23
ATOM     21  C   UNL     1       2.738   6.379  19.043  0.00  0.00    +0.000 A 
ATOM     22  C   UNL     1       2.479   7.744  19.336  0.00  0.00    +0.000 A 
ATOM     23  C   UNL     1       1.685   7.718  20.456  0.00  0.00    +0.000 A 
ATOM     24  O   UNL     1       1.479   6.429  20.829  0.00  0.00    +0.000 OA
ATOM     25  N   UNL     1       2.150   5.590  19.963  0.00  0.00    +0.000 NA
BRANCH  21  30
ATOM     26  C   UNL     1       6.020   4.074  14.883  0.00  0.00    +0.000 C 
ATOM     27  C   UNL     1       5.130   4.694  15.919  0.00  0.00    +0.000 A 
ATOM     28  C   UNL     1       5.127   6.075  16.134  0.00  0.00    +0.000 A 
ATOM     29  C   UNL     1       4.335   6.632  17.144  0.00  0.00    +0.000 A 
ATOM     30  C   UNL     1       3.528   5.818  17.949  0.00  0.00    +0.000 A 
ATOM     31  C   UNL     1       3.511   4.438  17.711  0.00  0.00    +0.000 A 
ATOM     32  C   UNL     1       4.308   3.881  16.708  0.00  0.00    +0.000 A 
ENDBRANCH  21  30
ENDBRANCH  20  23
ENDBRANCH  19  20
ENDBRANCH   1  19
TORSDOF 7
ENDMDL
MODEL 9
REMARK VINA RESULT:      -7.5      6.291      8.975
REMARK  Name = 
REMARK  8 active torsions:
REMARK  status: ('A' for Active; 'I' for Inactive)
REMARK    1  A    between atoms: C_1  and  C_2
REMARK    2  A    between atoms: C_5  and  C_6
REMARK    3  A    between atoms: C_8  and  C_9
REMARK    4  A    between atoms: C_9  and  O_10
REMARK    5  A    between atoms: O_10  and  C_11
REMARK    6  A    between atoms: C_11  and  C_12
REMARK    7  A    between atoms: C_24  and  C_25
REMARK    8  A    between atoms: C_25  and  O_27
REMARK                            x       y       z     vdW  Elec       q    Type
REMARK                         _______ _______ _______ _____ _____    ______ ____
ROOT
ATOM      1  C   UNL     1      -0.299  11.583  18.982  0.00  0.00    +0.000 C 
ATOM      2  O   UNL     1      -0.171  11.837  20.418  0.00  0.00    +0.000 OA
ATOM      3  C   UNL     1      -0.366  13.147  20.807  0.00  0.00    +0.000 A 
ATOM      4  C   UNL     1      -0.106  13.484  22.130  0.00  0.00    +0.000 A 
ATOM      5  C   UNL     1      -0.321  14.795  22.560  0.00  0.00    +0.000 A 
ATOM      6  C   UNL     1      -0.891  15.735  21.697  0.00  0.00    +0.000 A 
ATOM      7  C   UNL     1      -1.089  15.419  20.354  0.00  0.00    +0.000 A 
ATOM      8  C   UNL     1      -0.703  14.161  19.895  0.00  0.00    +0.000 A 
ATOM      9  C   UNL     1      -0.384  13.956  18.462  0.00  0.00    +0.000 C 
ATOM     10  C   UNL     1       0.289  12.799  18.244  0.00  0.00    +0.000 C 
ENDROOT
BRANCH   1  11
ATOM     11  C   UNL     1      -1.816  11.352  18.511  0.00  0.00    +0.000 C 
ATOM     12  F   UNL     1      -2.715  11.819  19.415  0.00  0.00    +0.000 F 
ATOM     13  F   UNL     1      -2.089  11.971  17.340  0.00  0.00    +0.000 F 
ATOM     14  F   UNL     1      -2.140  10.043  18.354  0.00  0.00    +0.000 F 
ENDBRANCH   1  11
BRANCH  10  15
ATOM     15  C   UNL     1       1.766  12.975  18.504  0.00  0.00    +0.000 C 
ATOM     16  O   UNL     1       2.255  13.800  19.259  0.00  0.00    +0.000 OA
BRANCH  15  17
ATOM     17  O   UNL     1       2.531  12.164  17.743  0.00  0.00    +0.000 OA
ATOM     18  H   UNL     1       3.495  12.338  17.827  0.00  0.00    +0.000 HD
ENDBRANCH  15  17
ENDBRANCH  10  15
BRANCH   1  19
ATOM     19  O   UNL     1       0.520  10.421  18.639  0.00  0.00    +0.000 OA
BRANCH  19  20
ATOM     20  C   UNL     1       0.898   9.648  19.790  0.00  0.00    +0.000 C 
BRANCH  20  23
ATOM     21  C   UNL     1       2.951   6.952  18.352  0.00  0.00    +0.000 A 
ATOM     22  C   UNL     1       2.327   8.206  18.126  0.00  0.00    +0.000 A 
ATOM     23  C   UNL     1       1.689   8.499  19.306  0.00  0.00    +0.000 A 
ATOM     24  O   UNL     1       1.916   7.500  20.196  0.00  0.00    +0.000 OA
ATOM     25  N   UNL     1       2.719   6.541  19.613  0.00  0.00    +0.000 NA
BRANCH  21  30
ATOM     26  C   UNL     1       6.305   3.765  14.889  0.00  0.00    +0.000 C 
ATOM     27  C   UNL     1       5.400   4.606  15.738  0.00  0.00    +0.000 A 
ATOM     28  C   UNL     1       5.446   6.002  15.680  0.00  0.00    +0.000 A 
ATOM     29  C   UNL     1       4.637   6.773  16.521  0.00  0.00    +0.000 A 
ATOM     30  C   UNL     1       3.762   6.160  17.429  0.00  0.00    +0.000 A 
ATOM     31  C   UNL     1       3.697   4.763  17.463  0.00  0.00    +0.000 A 
ATOM     32  C   UNL     1       4.511   3.992  16.629  0.00  0.00    +0.000 A 
ENDBRANCH  21  30
ENDBRANCH  20  23
ENDBRANCH  19  20
ENDBRANCH   1  19
TORSDOF 7
ENDMDL
