MODEL 1
REMARK VINA RESULT:      -8.2      0.000      0.000
REMARK  Name = 
REMARK  11 active torsions:
REMARK  status: ('A' for Active; 'I' for Inactive)
REMARK    1  A    between atoms: C_1  and  C_2
REMARK    2  A    between atoms: N_4  and  C_5
REMARK    3  A    between atoms: C_5  and  C_6
REMARK    4  A    between atoms: C_5  and  C_7
REMARK    5  A    between atoms: C_10  and  O_11
REMARK    6  A    between atoms: O_11  and  C_12
REMARK    7  A    between atoms: N_15  and  C_16
REMARK    8  A    between atoms: N_21  and  C_22
REMARK    9  A    between atoms: N_21  and  C_23
REMARK   10  A    between atoms: C_23  and  C_24
REMARK   11  A    between atoms: C_23  and  C_25
REMARK                            x       y       z     vdW  Elec       q    Type
REMARK                         _______ _______ _______ _____ _____    ______ ____
ROOT
ATOM      1  C   UNL     1       2.267   6.742  18.810  0.00  0.00    +0.000 C 
ATOM      2  C   UNL     1       2.006   7.943  17.896  0.00  0.00    +0.000 C 
ATOM      3  C   UNL     1       1.826   9.137  18.836  0.00  0.00    +0.000 C 
ATOM      4  N   UNL     1       1.252   8.542  20.026  0.00  0.00    +0.000 N 
ATOM      5  C   UNL     1       1.591   7.133  20.137  0.00  0.00    +0.000 C 
ENDROOT
BRANCH   4   6
ATOM      6  C   UNL     1       0.711   9.277  21.059  0.00  0.00    +0.000 A 
ATOM      7  N   UNL     1       0.827   8.785  22.304  0.00  0.00    +0.000 NA
ATOM      8  C   UNL     1       0.321   9.529  23.301  0.00  0.00    +0.000 A 
ATOM      9  N   UNL     1      -0.320  10.703  23.183  0.00  0.00    +0.000 NA
ATOM     10  C   UNL     1      -0.430  11.217  21.942  0.00  0.00    +0.000 A 
ATOM     11  N   UNL     1      -1.067  12.450  21.802  0.00  0.00    +0.000 N 
ATOM     12  C   UNL     1      -0.731  13.342  20.705  0.00  0.00    +0.000 C 
ATOM     13  C   UNL     1       0.093  10.516  20.856  0.00  0.00    +0.000 A 
ATOM     14  F   UNL     1      -0.043  11.015  19.613  0.00  0.00    +0.000 F 
BRANCH  11  15
ATOM     15  C   UNL     1      -2.173  12.767  22.718  0.00  0.00    +0.000 C 
ATOM     16  C   UNL     1      -1.805  13.930  23.634  0.00  0.00    +0.000 C 
ATOM     17  C   UNL     1      -3.463  13.086  21.950  0.00  0.00    +0.000 C 
ENDBRANCH  11  15
ENDBRANCH   4   6
BRANCH   1  18
ATOM     18  O   UNL     1       3.683   6.524  18.951  0.00  0.00    +0.000 OA
BRANCH  18  22
ATOM     19  C   UNL     1       5.537   4.765  15.616  0.00  0.00    +0.000 A 
ATOM     20  C   UNL     1       5.058   3.996  16.686  0.00  0.00    +0.000 A 
ATOM     21  C   UNL     1       4.436   4.613  17.784  0.00  0.00    +0.000 A 
ATOM     22  C   UNL     1       4.303   6.003  17.837  0.00  0.00    +0.000 A 
ATOM     23  C   UNL     1       4.759   6.762  16.762  0.00  0.00    +0.000 A 
ATOM     24  C   UNL     1       5.366   6.152  15.665  0.00  0.00    +0.000 A 
BRANCH  19  25
ATOM     25  C   UNL     1       6.204   4.118  14.410  0.00  0.00    +0.000 C 
ATOM     26  C   UNL     1       7.316   5.013  13.848  0.00  0.00    +0.000 C 
BRANCH  25  30
ATOM     27  C   UNL     1       4.312   3.115  11.283  0.00  0.00    +0.000 C 
ATOM     28  C   UNL     1       5.504   3.260  12.191  0.00  0.00    +0.000 C 
ATOM     29  O   UNL     1       6.624   2.872  11.880  0.00  0.00    +0.000 OA
ATOM     30  N   UNL     1       5.200   3.845  13.395  0.00  0.00    +0.000 N 
ATOM     31  H   UNL     1       4.254   4.168  13.555  0.00  0.00    +0.000 HD
ENDBRANCH  25  30
ENDBRANCH  19  25
ENDBRANCH  18  22
ENDBRANCH   1  18
TORSDOF 6
ENDMDL
MODEL 2
REMARK VINA RESULT:      -8.0      1.269      1.417
REMARK  Name = 
REMARK  11 active torsions:
REMARK  status: ('A' for Active; 'I' for Inactive)
REMARK    1  A    between atoms: C_1  and  C_2
REMARK    2  A    between atoms: N_4  and  C_5
REMARK    3  A    between atoms: C_5  and  C_6
REMARK    4  A    between atoms: C_5  and  C_7
REMARK    5  A    between atoms: C_10  and  O_11
REMARK    6  A    between atoms: O_11  and  C_12
REMARK    7  A    between atoms: N_15  and  C_16
REMARK    8  A    between atoms: N_21  and  C_22
REMARK    9  A    between atoms: N_21  and  C_23
REMARK   10  A    between atoms: C_23  and  C_24
REMARK   11  A    between atoms: C_23  and  C_25
REMARK                            x       y       z     vdW  Elec       q    Type
REMARK                         _______ _______ _______ _____ _____    ______ ____
ROOT
ATOM      1  C   UNL     1       2.935   5.470  19.218  0.00  0.00    +0.000 C 
ATOM      2  C   UNL     1       2.370   6.144  17.964  0.00  0.00    +0.000 C 
ATOM      3  C   UNL     1       2.147   7.607  18.354  0.00  0.00    +0.000 C 
ATOM      4  N   UNL     1       1.844   7.533  19.770  0.00  0.00    +0.000 N 
ATOM      5  C   UNL     1       2.403   6.336  20.375  0.00  0.00    +0.000 C 
ENDROOT
BRANCH   4   6
ATOM      6  C   UNL     1       1.350   8.593  20.498  0.00  0.00    +0.000 A 
ATOM      7  N   UNL     1       1.290   8.461  21.834  0.00  0.00    +0.000 NA
ATOM      8  C   UNL     1       0.835   9.515  22.530  0.00  0.00    +0.000 A 
ATOM      9  N   UNL     1       0.401  10.683  22.029  0.00  0.00    +0.000 NA
ATOM     10  C   UNL     1       0.470  10.838  20.692  0.00  0.00    +0.000 A 
ATOM     11  N   UNL     1       0.052  12.054  20.154  0.00  0.00    +0.000 N 
ATOM     12  C   UNL     1       0.609  12.550  18.907  0.00  0.00    +0.000 C 
ATOM     13  C   UNL     1       0.956   9.797  19.901  0.00  0.00    +0.000 A 
ATOM     14  F   UNL     1       0.997   9.940  18.563  0.00  0.00    +0.000 F 
BRANCH  11  15
ATOM     15  C   UNL     1      -1.056  12.760  20.816  0.00  0.00    +0.000 C 
ATOM     16  C   UNL     1      -0.836  14.270  20.783  0.00  0.00    +0.000 C 
ATOM     17  C   UNL     1      -2.406  12.407  20.178  0.00  0.00    +0.000 C 
ENDBRANCH  11  15
ENDBRANCH   4   6
BRANCH   1  18
ATOM     18  O   UNL     1       4.373   5.442  19.161  0.00  0.00    +0.000 OA
BRANCH  18  22
ATOM     19  C   UNL     1       5.875   4.406  15.377  0.00  0.00    +0.000 A 
ATOM     20  C   UNL     1       5.035   3.546  16.098  0.00  0.00    +0.000 A 
ATOM     21  C   UNL     1       4.543   3.924  17.358  0.00  0.00    +0.000 A 
ATOM     22  C   UNL     1       4.899   5.153  17.922  0.00  0.00    +0.000 A 
ATOM     23  C   UNL     1       5.715   6.014  17.192  0.00  0.00    +0.000 A 
ATOM     24  C   UNL     1       6.195   5.647  15.935  0.00  0.00    +0.000 A 
BRANCH  19  25
ATOM     25  C   UNL     1       6.412   4.023  14.005  0.00  0.00    +0.000 C 
ATOM     26  C   UNL     1       7.438   5.049  13.506  0.00  0.00    +0.000 C 
BRANCH  25  30
ATOM     27  C   UNL     1       4.084   3.130  11.150  0.00  0.00    +0.000 C 
ATOM     28  C   UNL     1       5.322   3.046  12.001  0.00  0.00    +0.000 C 
ATOM     29  O   UNL     1       6.239   2.268  11.763  0.00  0.00    +0.000 OA
ATOM     30  N   UNL     1       5.304   3.907  13.071  0.00  0.00    +0.000 N 
ATOM     31  H   UNL     1       4.521   4.541  13.173  0.00  0.00    +0.000 HD
ENDBRANCH  25  30
ENDBRANCH  19  25
ENDBRANCH  18  22
ENDBRANCH   1  18
TORSDOF 6
ENDMDL
MODEL 3
REMARK VINA RESULT:      -8.0      3.015      4.799
REMARK  Name = 
REMARK  11 active torsions:
REMARK  status: ('A' for Active; 'I' for Inactive)
REMARK    1  A    between atoms: C_1  and  C_2
REMARK    2  A    between atoms: N_4  and  C_5
REMARK    3  A    between atoms: C_5  and  C_6
REMARK    4  A    between atoms: C_5  and  C_7
REMARK    5  A    between atoms: C_10  and  O_11
REMARK    6  A    between atoms: O_11  and  C_12
REMARK    7  A    between atoms: N_15  and  C_16
REMARK    8  A    between atoms: N_21  and  C_22
REMARK    9  A    between atoms: N_21  and  C_23
REMARK   10  A    between atoms: C_23  and  C_24
REMARK   11  A    between atoms: C_23  and  C_25
REMARK                            x       y       z     vdW  Elec       q    Type
REMARK                         _______ _______ _______ _____ _____    ______ ____
ROOT
ATOM      1  C   UNL     1       0.809   9.740  18.846  0.00  0.00    +0.000 C 
ATOM      2  C   UNL     1       1.409  11.146  18.751  0.00  0.00    +0.000 C 
ATOM      3  C   UNL     1       0.474  12.042  19.566  0.00  0.00    +0.000 C 
ATOM      4  N   UNL     1      -0.820  11.408  19.407  0.00  0.00    +0.000 N 
ATOM      5  C   UNL     1      -0.688   9.993  19.103  0.00  0.00    +0.000 C 
ENDROOT
BRANCH   4   6
ATOM      6  C   UNL     1      -2.007  11.997  19.784  0.00  0.00    +0.000 A 
ATOM      7  N   UNL     1      -2.008  12.740  20.904  0.00  0.00    +0.000 NA
ATOM      8  C   UNL     1      -3.166  13.332  21.239  0.00  0.00    +0.000 A 
ATOM      9  N   UNL     1      -4.337  13.234  20.590  0.00  0.00    +0.000 NA
ATOM     10  C   UNL     1      -4.348  12.506  19.456  0.00  0.00    +0.000 A 
ATOM     11  N   UNL     1      -5.548  12.417  18.751  0.00  0.00    +0.000 N 
ATOM     12  C   UNL     1      -5.554  12.208  17.312  0.00  0.00    +0.000 C 
ATOM     13  C   UNL     1      -3.179  11.881  19.026  0.00  0.00    +0.000 A 
ATOM     14  F   UNL     1      -3.196  11.128  17.910  0.00  0.00    +0.000 F 
BRANCH  11  15
ATOM     15  C   UNL     1      -6.803  12.413  19.517  0.00  0.00    +0.000 C 
ATOM     16  C   UNL     1      -7.866  13.262  18.824  0.00  0.00    +0.000 C 
ATOM     17  C   UNL     1      -7.324  10.986  19.735  0.00  0.00    +0.000 C 
ENDBRANCH  11  15
ENDBRANCH   4   6
BRANCH   1  18
ATOM     18  O   UNL     1       1.438   9.002  19.909  0.00  0.00    +0.000 OA
BRANCH  18  22
ATOM     19  C   UNL     1       3.241   5.438  18.609  0.00  0.00    +0.000 A 
ATOM     20  C   UNL     1       3.301   6.615  17.849  0.00  0.00    +0.000 A 
ATOM     21  C   UNL     1       2.694   7.793  18.315  0.00  0.00    +0.000 A 
ATOM     22  C   UNL     1       2.004   7.805  19.530  0.00  0.00    +0.000 A 
ATOM     23  C   UNL     1       1.967   6.640  20.293  0.00  0.00    +0.000 A 
ATOM     24  C   UNL     1       2.579   5.472  19.839  0.00  0.00    +0.000 A 
BRANCH  19  25
ATOM     25  C   UNL     1       3.901   4.152  18.130  0.00  0.00    +0.000 C 
ATOM     26  C   UNL     1       3.422   2.947  18.950  0.00  0.00    +0.000 C 
BRANCH  25  30
ATOM     27  C   UNL     1       7.606   4.555  17.443  0.00  0.00    +0.000 C 
ATOM     28  C   UNL     1       6.140   4.480  17.113  0.00  0.00    +0.000 C 
ATOM     29  O   UNL     1       5.711   4.596  15.972  0.00  0.00    +0.000 OA
ATOM     30  N   UNL     1       5.345   4.292  18.218  0.00  0.00    +0.000 N 
ATOM     31  H   UNL     1       5.787   4.172  19.121  0.00  0.00    +0.000 HD
ENDBRANCH  25  30
ENDBRANCH  19  25
ENDBRANCH  18  22
ENDBRANCH   1  18
TORSDOF 6
ENDMDL
MODEL 4
REMARK VINA RESULT:      -7.9      3.436      5.420
REMARK  Name = 
REMARK  11 active torsions:
REMARK  status: ('A' for Active; 'I' for Inactive)
REMARK    1  A    between atoms: C_1  and  C_2
REMARK    2  A    between atoms: N_4  and  C_5
REMARK    3  A    between atoms: C_5  and  C_6
REMARK    4  A    between atoms: C_5  and  C_7
REMARK    5  A    between atoms: C_10  and  O_11
REMARK    6  A    between atoms: O_11  and  C_12
REMARK    7  A    between atoms: N_15  and  C_16
REMARK    8  A    between atoms: N_21  and  C_22
REMARK    9  A    between atoms: N_21  and  C_23
REMARK   10  A    between atoms: C_23  and  C_24
REMARK   11  A    between atoms: C_23  and  C_25
REMARK                            x       y       z     vdW  Elec       q    Type
REMARK                         _______ _______ _______ _____ _____    ______ ____
ROOT
ATOM      1  C   UNL     1      -0.150  11.156  18.687  0.00  0.00    +0.000 C 
ATOM      2  C   UNL     1      -0.021  12.680  18.623  0.00  0.00    +0.000 C 
ATOM      3  C   UNL     1      -1.117  13.219  19.547  0.00  0.00    +0.000 C 
ATOM      4  N   UNL     1      -2.160  12.218  19.446  0.00  0.00    +0.000 N 
ATOM      5  C   UNL     1      -1.625  10.923  19.061  0.00  0.00    +0.000 C 
ENDROOT
BRANCH   4   6
ATOM      6  C   UNL     1      -3.436  12.399  19.935  0.00  0.00    +0.000 A 
ATOM      7  N   UNL     1      -4.462  12.231  19.083  0.00  0.00    +0.000 NA
ATOM      8  C   UNL     1      -5.698  12.381  19.584  0.00  0.00    +0.000 A 
ATOM      9  N   UNL     1      -6.021  12.714  20.845  0.00  0.00    +0.000 NA
ATOM     10  C   UNL     1      -5.004  12.869  21.715  0.00  0.00    +0.000 A 
ATOM     11  N   UNL     1      -5.319  13.186  23.036  0.00  0.00    +0.000 N 
ATOM     12  C   UNL     1      -4.440  12.799  24.127  0.00  0.00    +0.000 C 
ATOM     13  C   UNL     1      -3.690  12.705  21.278  0.00  0.00    +0.000 A 
ATOM     14  F   UNL     1      -2.673  12.890  22.139  0.00  0.00    +0.000 F 
BRANCH  11  15
ATOM     15  C   UNL     1      -6.498  14.030  23.284  0.00  0.00    +0.000 C 
ATOM     16  C   UNL     1      -7.482  13.330  24.217  0.00  0.00    +0.000 C 
ATOM     17  C   UNL     1      -6.100  15.395  23.861  0.00  0.00    +0.000 C 
ENDBRANCH  11  15
ENDBRANCH   4   6
BRANCH   1  18
ATOM     18  O   UNL     1       0.762  10.622  19.664  0.00  0.00    +0.000 OA
BRANCH  18  22
ATOM     19  C   UNL     1       2.658   7.005  18.678  0.00  0.00    +0.000 A 
ATOM     20  C   UNL     1       2.078   7.214  19.936  0.00  0.00    +0.000 A 
ATOM     21  C   UNL     1       1.444   8.432  20.234  0.00  0.00    +0.000 A 
ATOM     22  C   UNL     1       1.401   9.461  19.288  0.00  0.00    +0.000 A 
ATOM     23  C   UNL     1       1.959   9.241  18.031  0.00  0.00    +0.000 A 
ATOM     24  C   UNL     1       2.578   8.028  17.729  0.00  0.00    +0.000 A 
BRANCH  19  25
ATOM     25  C   UNL     1       3.340   5.689  18.329  0.00  0.00    +0.000 C 
ATOM     26  C   UNL     1       2.697   4.517  19.080  0.00  0.00    +0.000 C 
BRANCH  25  30
ATOM     27  C   UNL     1       7.111   5.333  18.459  0.00  0.00    +0.000 C 
ATOM     28  C   UNL     1       5.721   5.116  17.927  0.00  0.00    +0.000 C 
ATOM     29  O   UNL     1       5.488   4.426  16.942  0.00  0.00    +0.000 OA
ATOM     30  N   UNL     1       4.757   5.785  18.641  0.00  0.00    +0.000 N 
ATOM     31  H   UNL     1       5.034   6.307  19.464  0.00  0.00    +0.000 HD
ENDBRANCH  25  30
ENDBRANCH  19  25
ENDBRANCH  18  22
ENDBRANCH   1  18
TORSDOF 6
ENDMDL
MODEL 5
REMARK VINA RESULT:      -7.9      2.734      4.253
REMARK  Name = 
REMARK  11 active torsions:
REMARK  status: ('A' for Active; 'I' for Inactive)
REMARK    1  A    between atoms: C_1  and  C_2
REMARK    2  A    between atoms: N_4  and  C_5
REMARK    3  A    between atoms: C_5  and  C_6
REMARK    4  A    between atoms: C_5  and  C_7
REMARK    5  A    between atoms: C_10  and  O_11
REMARK    6  A    between atoms: O_11  and  C_12
REMARK    7  A    between atoms: N_15  and  C_16
REMARK    8  A    between atoms: N_21  and  C_22
REMARK    9  A    between atoms: N_21  and  C_23
REMARK   10  A    between atoms: C_23  and  C_24
REMARK   11  A    between atoms: C_23  and  C_25
REMARK                            x       y       z     vdW  Elec       q    Type
REMARK                         _______ _______ _______ _____ _____    ______ ____
ROOT
ATOM      1  C   UNL     1       1.386   8.518  21.088  0.00  0.00    +0.000 C 
ATOM      2  C   UNL     1       1.557   9.099  22.495  0.00  0.00    +0.000 C 
ATOM      3  C   UNL     1       0.262   9.862  22.780  0.00  0.00    +0.000 C 
ATOM      4  N   UNL     1      -0.154  10.316  21.468  0.00  0.00    +0.000 N 
ATOM      5  C   UNL     1       0.381   9.471  20.414  0.00  0.00    +0.000 C 
ENDROOT
BRANCH   4   6
ATOM      6  C   UNL     1      -1.157  11.240  21.265  0.00  0.00    +0.000 A 
ATOM      7  N   UNL     1      -1.405  11.627  20.003  0.00  0.00    +0.000 NA
ATOM      8  C   UNL     1      -2.405  12.505  19.821  0.00  0.00    +0.000 A 
ATOM      9  N   UNL     1      -3.166  13.064  20.775  0.00  0.00    +0.000 NA
ATOM     10  C   UNL     1      -2.941  12.674  22.045  0.00  0.00    +0.000 A 
ATOM     11  N   UNL     1      -3.741  13.223  23.047  0.00  0.00    +0.000 N 
ATOM     12  C   UNL     1      -4.008  12.489  24.273  0.00  0.00    +0.000 C 
ATOM     13  C   UNL     1      -1.936  11.746  22.313  0.00  0.00    +0.000 A 
ATOM     14  F   UNL     1      -1.689  11.379  23.584  0.00  0.00    +0.000 F 
BRANCH  11  15
ATOM     15  C   UNL     1      -4.203  14.609  22.884  0.00  0.00    +0.000 C 
ATOM     16  C   UNL     1      -5.512  14.838  23.634  0.00  0.00    +0.000 C 
ATOM     17  C   UNL     1      -3.141  15.613  23.353  0.00  0.00    +0.000 C 
ENDBRANCH  11  15
ENDBRANCH   4   6
BRANCH   1  18
ATOM     18  O   UNL     1       0.902   7.165  21.166  0.00  0.00    +0.000 OA
BRANCH  18  22
ATOM     19  C   UNL     1       3.115   4.531  18.755  0.00  0.00    +0.000 A 
ATOM     20  C   UNL     1       3.281   5.921  18.675  0.00  0.00    +0.000 A 
ATOM     21  C   UNL     1       2.531   6.775  19.499  0.00  0.00    +0.000 A 
ATOM     22  C   UNL     1       1.594   6.256  20.397  0.00  0.00    +0.000 A 
ATOM     23  C   UNL     1       1.449   4.874  20.490  0.00  0.00    +0.000 A 
ATOM     24  C   UNL     1       2.200   4.022  19.682  0.00  0.00    +0.000 A 
BRANCH  19  25
ATOM     25  C   UNL     1       3.925   3.584  17.879  0.00  0.00    +0.000 C 
ATOM     26  C   UNL     1       3.585   2.120  18.187  0.00  0.00    +0.000 C 
BRANCH  25  30
ATOM     27  C   UNL     1       7.566   4.581  17.552  0.00  0.00    +0.000 C 
ATOM     28  C   UNL     1       6.123   4.468  17.142  0.00  0.00    +0.000 C 
ATOM     29  O   UNL     1       5.697   4.915  16.084  0.00  0.00    +0.000 OA
ATOM     30  N   UNL     1       5.342   3.838  18.080  0.00  0.00    +0.000 N 
ATOM     31  H   UNL     1       5.783   3.468  18.913  0.00  0.00    +0.000 HD
ENDBRANCH  25  30
ENDBRANCH  19  25
ENDBRANCH  18  22
ENDBRANCH   1  18
TORSDOF 6
ENDMDL
MODEL 6
REMARK VINA RESULT:      -7.8      3.469      5.316
REMARK  Name = 
REMARK  11 active torsions:
REMARK  status: ('A' for Active; 'I' for Inactive)
REMARK    1  A    between atoms: C_1  and  C_2
REMARK    2  A    between atoms: N_4  and  C_5
REMARK    3  A    between atoms: C_5  and  C_6
REMARK    4  A    between atoms: C_5  and  C_7
REMARK    5  A    between atoms: C_10  and  O_11
REMARK    6  A    between atoms: O_11  and  C_12
REMARK    7  A    between atoms: N_15  and  C_16
REMARK    8  A    between atoms: N_21  and  C_22
REMARK    9  A    between atoms: N_21  and  C_23
REMARK   10  A    between atoms: C_23  and  C_24
REMARK   11  A    between atoms: C_23  and  C_25
REMARK                            x       y       z     vdW  Elec       q    Type
REMARK                         _______ _______ _______ _____ _____    ______ ____
ROOT
ATOM      1  C   UNL     1       0.709  10.337  18.525  0.00  0.00    +0.000 C 
ATOM      2  C   UNL     1       0.856  11.849  18.716  0.00  0.00    +0.000 C 
ATOM      3  C   UNL     1      -0.537  12.346  19.110  0.00  0.00    +0.000 C 
ATOM      4  N   UNL     1      -1.425  11.425  18.429  0.00  0.00    +0.000 N 
ATOM      5  C   UNL     1      -0.777  10.151  18.166  0.00  0.00    +0.000 C 
ENDROOT
BRANCH   4   6
ATOM      6  C   UNL     1      -2.783  11.624  18.313  0.00  0.00    +0.000 A 
ATOM      7  N   UNL     1      -3.367  11.294  17.149  0.00  0.00    +0.000 NA
ATOM      8  C   UNL     1      -4.696  11.466  17.065  0.00  0.00    +0.000 A 
ATOM      9  N   UNL     1      -5.504  11.967  18.013  0.00  0.00    +0.000 NA
ATOM     10  C   UNL     1      -4.937  12.288  19.192  0.00  0.00    +0.000 A 
ATOM     11  N   UNL     1      -5.763  12.782  20.200  0.00  0.00    +0.000 N 
ATOM     12  C   UNL     1      -5.426  12.594  21.602  0.00  0.00    +0.000 C 
ATOM     13  C   UNL     1      -3.564  12.114  19.368  0.00  0.00    +0.000 A 
ATOM     14  F   UNL     1      -2.992  12.463  20.535  0.00  0.00    +0.000 F 
BRANCH  11  15
ATOM     15  C   UNL     1      -6.917  13.606  19.809  0.00  0.00    +0.000 C 
ATOM     16  C   UNL     1      -7.835  13.858  21.001  0.00  0.00    +0.000 C 
ATOM     17  C   UNL     1      -6.472  14.939  19.192  0.00  0.00    +0.000 C 
ENDBRANCH  11  15
ENDBRANCH   4   6
BRANCH   1  18
ATOM     18  O   UNL     1       1.080   9.646  19.732  0.00  0.00    +0.000 OA
BRANCH  18  22
ATOM     19  C   UNL     1       2.857   5.913  18.985  0.00  0.00    +0.000 A 
ATOM     20  C   UNL     1       2.842   6.929  18.020  0.00  0.00    +0.000 A 
ATOM     21  C   UNL     1       2.246   8.170  18.302  0.00  0.00    +0.000 A 
ATOM     22  C   UNL     1       1.641   8.403  19.540  0.00  0.00    +0.000 A 
ATOM     23  C   UNL     1       1.679   7.399  20.505  0.00  0.00    +0.000 A 
ATOM     24  C   UNL     1       2.280   6.171  20.233  0.00  0.00    +0.000 A 
BRANCH  19  25
ATOM     25  C   UNL     1       3.506   4.564  18.707  0.00  0.00    +0.000 C 
ATOM     26  C   UNL     1       3.044   3.509  19.720  0.00  0.00    +0.000 C 
BRANCH  25  30
ATOM     27  C   UNL     1       7.205   4.739  17.902  0.00  0.00    +0.000 C 
ATOM     28  C   UNL     1       5.735   4.588  17.618  0.00  0.00    +0.000 C 
ATOM     29  O   UNL     1       5.294   4.395  16.492  0.00  0.00    +0.000 OA
ATOM     30  N   UNL     1       4.952   4.712  18.740  0.00  0.00    +0.000 N 
ATOM     31  H   UNL     1       5.402   4.837  19.637  0.00  0.00    +0.000 HD
ENDBRANCH  25  30
ENDBRANCH  19  25
ENDBRANCH  18  22
ENDBRANCH   1  18
TORSDOF 6
ENDMDL
MODEL 7
REMARK VINA RESULT:      -7.8      3.651      5.461
REMARK  Name = 
REMARK  11 active torsions:
REMARK  status: ('A' for Active; 'I' for Inactive)
REMARK    1  A    between atoms: C_1  and  C_2
REMARK    2  A    between atoms: N_4  and  C_5
REMARK    3  A    between atoms: C_5  and  C_6
REMARK    4  A    between atoms: C_5  and  C_7
REMARK    5  A    between atoms: C_10  and  O_11
REMARK    6  A    between atoms: O_11  and  C_12
REMARK    7  A    between atoms: N_15  and  C_16
REMARK    8  A    between atoms: N_21  and  C_22
REMARK    9  A    between atoms: N_21  and  C_23
REMARK   10  A    between atoms: C_23  and  C_24
REMARK   11  A    between atoms: C_23  and  C_25
REMARK                            x       y       z     vdW  Elec       q    Type
REMARK                         _______ _______ _______ _____ _____    ______ ____
ROOT
ATOM      1  C   UNL     1       0.644  10.496  18.475  0.00  0.00    +0.000 C 
ATOM      2  C   UNL     1       0.815  12.006  18.670  0.00  0.00    +0.000 C 
ATOM      3  C   UNL     1      -0.547  12.510  19.154  0.00  0.00    +0.000 C 
ATOM      4  N   UNL     1      -1.483  11.603  18.520  0.00  0.00    +0.000 N 
ATOM      5  C   UNL     1      -0.863  10.327  18.206  0.00  0.00    +0.000 C 
ENDROOT
BRANCH   4   6
ATOM      6  C   UNL     1      -2.844  11.815  18.490  0.00  0.00    +0.000 A 
ATOM      7  N   UNL     1      -3.499  11.509  17.357  0.00  0.00    +0.000 NA
ATOM      8  C   UNL     1      -4.829  11.693  17.356  0.00  0.00    +0.000 A 
ATOM      9  N   UNL     1      -5.575  12.183  18.360  0.00  0.00    +0.000 NA
ATOM     10  C   UNL     1      -4.935  12.479  19.508  0.00  0.00    +0.000 A 
ATOM     11  N   UNL     1      -5.695  12.961  20.572  0.00  0.00    +0.000 N 
ATOM     12  C   UNL     1      -5.276  12.745  21.947  0.00  0.00    +0.000 C 
ATOM     13  C   UNL     1      -3.556  12.291  19.597  0.00  0.00    +0.000 A 
ATOM     14  F   UNL     1      -2.911  12.615  20.734  0.00  0.00    +0.000 F 
BRANCH  11  15
ATOM     15  C   UNL     1      -6.863  13.800  20.266  0.00  0.00    +0.000 C 
ATOM     16  C   UNL     1      -7.916  13.690  21.364  0.00  0.00    +0.000 C 
ATOM     17  C   UNL     1      -6.462  15.267  20.061  0.00  0.00    +0.000 C 
ENDBRANCH  11  15
ENDBRANCH   4   6
BRANCH   1  18
ATOM     18  O   UNL     1       1.082   9.791  19.650  0.00  0.00    +0.000 OA
BRANCH  18  22
ATOM     19  C   UNL     1       3.065   6.199  18.748  0.00  0.00    +0.000 A 
ATOM     20  C   UNL     1       3.021   7.266  17.840  0.00  0.00    +0.000 A 
ATOM     21  C   UNL     1       2.356   8.457  18.173  0.00  0.00    +0.000 A 
ATOM     22  C   UNL     1       1.710   8.590  19.406  0.00  0.00    +0.000 A 
ATOM     23  C   UNL     1       1.776   7.537  20.315  0.00  0.00    +0.000 A 
ATOM     24  C   UNL     1       2.446   6.357  19.992  0.00  0.00    +0.000 A 
BRANCH  19  25
ATOM     25  C   UNL     1       3.789   4.902  18.413  0.00  0.00    +0.000 C 
ATOM     26  C   UNL     1       4.566   5.027  17.096  0.00  0.00    +0.000 C 
BRANCH  25  30
ATOM     27  C   UNL     1       1.699   1.794  18.988  0.00  0.00    +0.000 C 
ATOM     28  C   UNL     1       2.744   2.832  19.295  0.00  0.00    +0.000 C 
ATOM     29  O   UNL     1       3.433   2.800  20.307  0.00  0.00    +0.000 OA
ATOM     30  N   UNL     1       2.824   3.818  18.341  0.00  0.00    +0.000 N 
ATOM     31  H   UNL     1       2.239   3.748  17.518  0.00  0.00    +0.000 HD
ENDBRANCH  25  30
ENDBRANCH  19  25
ENDBRANCH  18  22
ENDBRANCH   1  18
TORSDOF 6
ENDMDL
MODEL 8
REMARK VINA RESULT:      -7.8      3.371      4.829
REMARK  Name = 
REMARK  11 active torsions:
REMARK  status: ('A' for Active; 'I' for Inactive)
REMARK    1  A    between atoms: C_1  and  C_2
REMARK    2  A    between atoms: N_4  and  C_5
REMARK    3  A    between atoms: C_5  and  C_6
REMARK    4  A    between atoms: C_5  and  C_7
REMARK    5  A    between atoms: C_10  and  O_11
REMARK    6  A    between atoms: O_11  and  C_12
REMARK    7  A    between atoms: N_15  and  C_16
REMARK    8  A    between atoms: N_21  and  C_22
REMARK    9  A    between atoms: N_21  and  C_23
REMARK   10  A    between atoms: C_23  and  C_24
REMARK   11  A    between atoms: C_23  and  C_25
REMARK                            x       y       z     vdW  Elec       q    Type
REMARK                         _______ _______ _______ _____ _____    ______ ____
ROOT
ATOM      1  C   UNL     1       0.356  10.168  18.694  0.00  0.00    +0.000 C 
ATOM      2  C   UNL     1       0.835  11.615  18.848  0.00  0.00    +0.000 C 
ATOM      3  C   UNL     1      -0.212  12.299  19.729  0.00  0.00    +0.000 C 
ATOM      4  N   UNL     1      -1.437  11.597  19.398  0.00  0.00    +0.000 N 
ATOM      5  C   UNL     1      -1.168  10.260  18.895  0.00  0.00    +0.000 C 
ENDROOT
BRANCH   4   6
ATOM      6  C   UNL     1      -2.687  12.026  19.786  0.00  0.00    +0.000 A 
ATOM      7  N   UNL     1      -3.682  11.948  18.886  0.00  0.00    +0.000 NA
ATOM      8  C   UNL     1      -4.900  12.342  19.291  0.00  0.00    +0.000 A 
ATOM      9  N   UNL     1      -5.226  12.839  20.495  0.00  0.00    +0.000 NA
ATOM     10  C   UNL     1      -4.243  12.909  21.414  0.00  0.00    +0.000 A 
ATOM     11  N   UNL     1      -4.567  13.396  22.680  0.00  0.00    +0.000 N 
ATOM     12  C   UNL     1      -3.821  12.975  23.854  0.00  0.00    +0.000 C 
ATOM     13  C   UNL     1      -2.954  12.495  21.078  0.00  0.00    +0.000 A 
ATOM     14  F   UNL     1      -1.965  12.593  21.986  0.00  0.00    +0.000 F 
BRANCH  11  15
ATOM     15  C   UNL     1      -5.599  14.438  22.778  0.00  0.00    +0.000 C 
ATOM     16  C   UNL     1      -6.633  14.083  23.843  0.00  0.00    +0.000 C 
ATOM     17  C   UNL     1      -4.983  15.812  23.076  0.00  0.00    +0.000 C 
ENDBRANCH  11  15
ENDBRANCH   4   6
BRANCH   1  18
ATOM     18  O   UNL     1       0.995   9.327  19.672  0.00  0.00    +0.000 OA
BRANCH  18  22
ATOM     19  C   UNL     1       3.554   6.322  18.235  0.00  0.00    +0.000 A 
ATOM     20  C   UNL     1       2.946   6.233  19.495  0.00  0.00    +0.000 A 
ATOM     21  C   UNL     1       2.089   7.251  19.945  0.00  0.00    +0.000 A 
ATOM     22  C   UNL     1       1.846   8.377  19.153  0.00  0.00    +0.000 A 
ATOM     23  C   UNL     1       2.433   8.450  17.892  0.00  0.00    +0.000 A 
ATOM     24  C   UNL     1       3.274   7.436  17.438  0.00  0.00    +0.000 A 
BRANCH  19  25
ATOM     25  C   UNL     1       4.477   5.225  17.722  0.00  0.00    +0.000 C 
ATOM     26  C   UNL     1       3.772   3.863  17.723  0.00  0.00    +0.000 C 
BRANCH  25  30
ATOM     27  C   UNL     1       7.915   5.719  19.237  0.00  0.00    +0.000 C 
ATOM     28  C   UNL     1       6.779   5.961  18.281  0.00  0.00    +0.000 C 
ATOM     29  O   UNL     1       6.839   6.786  17.377  0.00  0.00    +0.000 OA
ATOM     30  N   UNL     1       5.676   5.185  18.542  0.00  0.00    +0.000 N 
ATOM     31  H   UNL     1       5.726   4.503  19.289  0.00  0.00    +0.000 HD
ENDBRANCH  25  30
ENDBRANCH  19  25
ENDBRANCH  18  22
ENDBRANCH   1  18
TORSDOF 6
ENDMDL
MODEL 9
REMARK VINA RESULT:      -7.7      3.043      5.386
REMARK  Name = 
REMARK  11 active torsions:
REMARK  status: ('A' for Active; 'I' for Inactive)
REMARK    1  A    between atoms: C_1  and  C_2
REMARK    2  A    between atoms: N_4  and  C_5
REMARK    3  A    between atoms: C_5  and  C_6
REMARK    4  A    between atoms: C_5  and  C_7
REMARK    5  A    between atoms: C_10  and  O_11
REMARK    6  A    between atoms: O_11  and  C_12
REMARK    7  A    between atoms: N_15  and  C_16
REMARK    8  A    between atoms: N_21  and  C_22
REMARK    9  A    between atoms: N_21  and  C_23
REMARK   10  A    between atoms: C_23  and  C_24
REMARK   11  A    between atoms: C_23  and  C_25
REMARK                            x       y       z     vdW  Elec       q    Type
REMARK                         _______ _______ _______ _____ _____    ______ ____
ROOT
ATOM      1  C   UNL     1       0.670  11.053  21.217  0.00  0.00    +0.000 C 
ATOM      2  C   UNL     1       0.225  10.275  22.459  0.00  0.00    +0.000 C 
ATOM      3  C   UNL     1      -1.043  10.980  22.947  0.00  0.00    +0.000 C 
ATOM      4  N   UNL     1      -0.829  12.360  22.556  0.00  0.00    +0.000 N 
ATOM      5  C   UNL     1       0.090  12.462  21.435  0.00  0.00    +0.000 C 
ENDROOT
BRANCH   4   6
ATOM      6  C   UNL     1      -1.615  13.404  22.993  0.00  0.00    +0.000 A 
ATOM      7  N   UNL     1      -1.073  14.273  23.863  0.00  0.00    +0.000 NA
ATOM      8  C   UNL     1      -1.843  15.301  24.254  0.00  0.00    +0.000 A 
ATOM      9  N   UNL     1      -3.115  15.537  23.892  0.00  0.00    +0.000 NA
ATOM     10  C   UNL     1      -3.667  14.684  23.008  0.00  0.00    +0.000 A 
ATOM     11  N   UNL     1      -4.977  14.928  22.597  0.00  0.00    +0.000 N 
ATOM     12  C   UNL     1      -5.443  14.494  21.290  0.00  0.00    +0.000 C 
ATOM     13  C   UNL     1      -2.923  13.604  22.534  0.00  0.00    +0.000 A 
ATOM     14  F   UNL     1      -3.484  12.734  21.674  0.00  0.00    +0.000 F 
BRANCH  11  15
ATOM     15  C   UNL     1      -5.908  15.523  23.568  0.00  0.00    +0.000 C 
ATOM     16  C   UNL     1      -6.555  16.783  23.000  0.00  0.00    +0.000 C 
ATOM     17  C   UNL     1      -6.988  14.520  23.997  0.00  0.00    +0.000 C 
ENDBRANCH  11  15
ENDBRANCH   4   6
BRANCH   1  18
ATOM     18  O   UNL     1       0.164  10.421  20.028  0.00  0.00    +0.000 OA
BRANCH  18  22
ATOM     19  C   UNL     1       2.607   7.459  18.324  0.00  0.00    +0.000 A 
ATOM     20  C   UNL     1       2.188   8.579  17.594  0.00  0.00    +0.000 A 
ATOM     21  C   UNL     1       1.377   9.557  18.194  0.00  0.00    +0.000 A 
ATOM     22  C   UNL     1       0.958   9.417  19.520  0.00  0.00    +0.000 A 
ATOM     23  C   UNL     1       1.396   8.314  20.249  0.00  0.00    +0.000 A 
ATOM     24  C   UNL     1       2.211   7.349  19.661  0.00  0.00    +0.000 A 
BRANCH  19  25
ATOM     25  C   UNL     1       3.496   6.392  17.699  0.00  0.00    +0.000 C 
ATOM     26  C   UNL     1       3.156   5.000  18.246  0.00  0.00    +0.000 C 
BRANCH  25  30
ATOM     27  C   UNL     1       7.206   7.125  17.454  0.00  0.00    +0.000 C 
ATOM     28  C   UNL     1       5.822   6.820  16.949  0.00  0.00    +0.000 C 
ATOM     29  O   UNL     1       5.563   6.695  15.758  0.00  0.00    +0.000 OA
ATOM     30  N   UNL     1       4.889   6.719  17.953  0.00  0.00    +0.000 N 
ATOM     31  H   UNL     1       5.197   6.803  18.914  0.00  0.00    +0.000 HD
ENDBRANCH  25  30
ENDBRANCH  19  25
ENDBRANCH  18  22
ENDBRANCH   1  18
TORSDOF 6
ENDMDL
