MODEL 1
REMARK VINA RESULT:      -7.5      0.000      0.000
REMARK  Name = 
REMARK  9 active torsions:
REMARK  status: ('A' for Active; 'I' for Inactive)
REMARK    1  A    between atoms: C_1  and  O_2
REMARK    2  A    between atoms: O_2  and  C_3
REMARK    3  A    between atoms: C_9  and  C_10
REMARK    4  A    between atoms: C_10  and  C_11
REMARK    5  A    between atoms: C_10  and  C_12
REMARK    6  A    between atoms: C_10  and  C_13
REMARK    7  A    between atoms: C_13  and  N_14
REMARK    8  A    between atoms: C_15  and  C_16
REMARK    9  A    between atoms: N_19  and  C_20
REMARK                            x       y       z     vdW  Elec       q    Type
REMARK                         _______ _______ _______ _____ _____    ______ ____
ROOT
ATOM      1  C   UNL     1       2.499   6.560  19.321  0.00  0.00    +0.000 A 
ATOM      2  C   UNL     1       1.927   5.472  19.969  0.00  0.00    +0.000 A 
ATOM      3  C   UNL     1       2.274   4.165  19.615  0.00  0.00    +0.000 A 
ATOM      4  C   UNL     1       3.211   3.981  18.589  0.00  0.00    +0.000 A 
ATOM      5  C   UNL     1       3.783   5.046  17.887  0.00  0.00    +0.000 A 
ATOM      6  C   UNL     1       3.401   6.356  18.266  0.00  0.00    +0.000 A 
ATOM      7  C   UNL     1       4.678   4.493  16.894  0.00  0.00    +0.000 A 
ATOM      8  C   UNL     1       4.639   3.120  17.084  0.00  0.00    +0.000 A 
ATOM      9  N   UNL     1       3.751   2.824  18.079  0.00  0.00    +0.000 N 
ATOM     10  C   UNL     1       3.449   1.490  18.543  0.00  0.00    +0.000 C 
ENDROOT
BRANCH   7  11
ATOM     11  C   UNL     1       5.539   5.244  15.863  0.00  0.00    +0.000 C 
ATOM     12  C   UNL     1       5.569   4.492  14.515  0.00  0.00    +0.000 C 
ATOM     13  C   UNL     1       4.961   6.658  15.632  0.00  0.00    +0.000 C 
BRANCH  11  14
ATOM     14  C   UNL     1       7.015   5.432  16.348  0.00  0.00    +0.000 C 
BRANCH  14  15
ATOM     15  N   UNL     1       7.380   6.813  16.638  0.00  0.00    +0.000 N 
ATOM     16  C   UNL     1       7.768   7.200  17.898  0.00  0.00    +0.000 C 
ATOM     17  C   UNL     1       8.232   8.631  17.989  0.00  0.00    +0.000 C 
ATOM     18  O   UNL     1       7.747   6.460  18.875  0.00  0.00    +0.000 OA
ATOM     19  H   UNL     1       7.605   7.414  15.854  0.00  0.00    +0.000 HD
ENDBRANCH  14  15
ENDBRANCH  11  14
ENDBRANCH   7  11
BRANCH   1  21
ATOM     20  C   UNL     1       1.470   8.081  20.806  0.00  0.00    +0.000 C 
ATOM     21  O   UNL     1       2.223   7.871  19.614  0.00  0.00    +0.000 OA
ENDBRANCH   1  21
TORSDOF 4
ENDMDL
MODEL 2
REMARK VINA RESULT:      -7.5      1.940      2.882
REMARK  Name = 
REMARK  9 active torsions:
REMARK  status: ('A' for Active; 'I' for Inactive)
REMARK    1  A    between atoms: C_1  and  O_2
REMARK    2  A    between atoms: O_2  and  C_3
REMARK    3  A    between atoms: C_9  and  C_10
REMARK    4  A    between atoms: C_10  and  C_11
REMARK    5  A    between atoms: C_10  and  C_12
REMARK    6  A    between atoms: C_10  and  C_13
REMARK    7  A    between atoms: C_13  and  N_14
REMARK    8  A    between atoms: C_15  and  C_16
REMARK    9  A    between atoms: N_19  and  C_20
REMARK                            x       y       z     vdW  Elec       q    Type
REMARK                         _______ _______ _______ _____ _____    ______ ____
ROOT
ATOM      1  C   UNL     1       2.267   7.076  19.632  0.00  0.00    +0.000 A 
ATOM      2  C   UNL     1       1.825   6.043  20.450  0.00  0.00    +0.000 A 
ATOM      3  C   UNL     1       2.469   4.803  20.448  0.00  0.00    +0.000 A 
ATOM      4  C   UNL     1       3.569   4.627  19.597  0.00  0.00    +0.000 A 
ATOM      5  C   UNL     1       4.023   5.626  18.731  0.00  0.00    +0.000 A 
ATOM      6  C   UNL     1       3.342   6.868  18.755  0.00  0.00    +0.000 A 
ATOM      7  C   UNL     1       5.150   5.096  17.994  0.00  0.00    +0.000 A 
ATOM      8  C   UNL     1       5.349   3.817  18.492  0.00  0.00    +0.000 A 
ATOM      9  N   UNL     1       4.394   3.541  19.429  0.00  0.00    +0.000 N 
ATOM     10  C   UNL     1       4.289   2.296  20.155  0.00  0.00    +0.000 C 
ENDROOT
BRANCH   7  11
ATOM     11  C   UNL     1       5.996   5.793  16.915  0.00  0.00    +0.000 C 
ATOM     12  C   UNL     1       5.097   6.469  15.857  0.00  0.00    +0.000 C 
ATOM     13  C   UNL     1       6.890   6.870  17.569  0.00  0.00    +0.000 C 
BRANCH  11  14
ATOM     14  C   UNL     1       6.952   4.798  16.176  0.00  0.00    +0.000 C 
BRANCH  14  15
ATOM     15  N   UNL     1       6.348   4.123  15.034  0.00  0.00    +0.000 N 
ATOM     16  C   UNL     1       6.742   4.404  13.747  0.00  0.00    +0.000 C 
ATOM     17  C   UNL     1       6.108   3.524  12.702  0.00  0.00    +0.000 C 
ATOM     18  O   UNL     1       7.540   5.288  13.457  0.00  0.00    +0.000 OA
ATOM     19  H   UNL     1       5.841   3.265  15.211  0.00  0.00    +0.000 HD
ENDBRANCH  14  15
ENDBRANCH  11  14
ENDBRANCH   7  11
BRANCH   1  21
ATOM     20  C   UNL     1       1.762   8.969  18.313  0.00  0.00    +0.000 C 
ATOM     21  O   UNL     1       1.701   8.324  19.582  0.00  0.00    +0.000 OA
ENDBRANCH   1  21
TORSDOF 4
ENDMDL
MODEL 3
REMARK VINA RESULT:      -7.3      2.627      4.238
REMARK  Name = 
REMARK  9 active torsions:
REMARK  status: ('A' for Active; 'I' for Inactive)
REMARK    1  A    between atoms: C_1  and  O_2
REMARK    2  A    between atoms: O_2  and  C_3
REMARK    3  A    between atoms: C_9  and  C_10
REMARK    4  A    between atoms: C_10  and  C_11
REMARK    5  A    between atoms: C_10  and  C_12
REMARK    6  A    between atoms: C_10  and  C_13
REMARK    7  A    between atoms: C_13  and  N_14
REMARK    8  A    between atoms: C_15  and  C_16
REMARK    9  A    between atoms: N_19  and  C_20
REMARK                            x       y       z     vdW  Elec       q    Type
REMARK                         _______ _______ _______ _____ _____    ______ ____
ROOT
ATOM      1  C   UNL     1       2.713   3.138  18.095  0.00  0.00    +0.000 A 
ATOM      2  C   UNL     1       1.567   3.919  18.198  0.00  0.00    +0.000 A 
ATOM      3  C   UNL     1       1.640   5.311  18.103  0.00  0.00    +0.000 A 
ATOM      4  C   UNL     1       2.896   5.899  17.905  0.00  0.00    +0.000 A 
ATOM      5  C   UNL     1       4.078   5.154  17.834  0.00  0.00    +0.000 A 
ATOM      6  C   UNL     1       3.967   3.746  17.942  0.00  0.00    +0.000 A 
ATOM      7  C   UNL     1       5.175   6.079  17.649  0.00  0.00    +0.000 A 
ATOM      8  C   UNL     1       4.591   7.334  17.568  0.00  0.00    +0.000 A 
ATOM      9  N   UNL     1       3.241   7.219  17.740  0.00  0.00    +0.000 N 
ATOM     10  C   UNL     1       2.311   8.326  17.722  0.00  0.00    +0.000 C 
ENDROOT
BRANCH   7  11
ATOM     11  C   UNL     1       6.675   5.764  17.521  0.00  0.00    +0.000 C 
ATOM     12  C   UNL     1       7.476   7.030  17.147  0.00  0.00    +0.000 C 
ATOM     13  C   UNL     1       7.209   5.216  18.863  0.00  0.00    +0.000 C 
BRANCH  11  14
ATOM     14  C   UNL     1       6.962   4.671  16.439  0.00  0.00    +0.000 C 
BRANCH  14  15
ATOM     15  N   UNL     1       7.593   5.178  15.227  0.00  0.00    +0.000 N 
ATOM     16  C   UNL     1       7.192   4.755  13.982  0.00  0.00    +0.000 C 
ATOM     17  C   UNL     1       7.861   5.477  12.840  0.00  0.00    +0.000 C 
ATOM     18  O   UNL     1       6.363   3.872  13.797  0.00  0.00    +0.000 OA
ATOM     19  H   UNL     1       8.131   6.033  15.300  0.00  0.00    +0.000 HD
ENDBRANCH  14  15
ENDBRANCH  11  14
ENDBRANCH   7  11
BRANCH   1  21
ATOM     20  C   UNL     1       3.964   1.195  18.579  0.00  0.00    +0.000 C 
ATOM     21  O   UNL     1       2.727   1.769  18.165  0.00  0.00    +0.000 OA
ENDBRANCH   1  21
TORSDOF 4
ENDMDL
MODEL 4
REMARK VINA RESULT:      -7.3      2.495      4.150
REMARK  Name = 
REMARK  9 active torsions:
REMARK  status: ('A' for Active; 'I' for Inactive)
REMARK    1  A    between atoms: C_1  and  O_2
REMARK    2  A    between atoms: O_2  and  C_3
REMARK    3  A    between atoms: C_9  and  C_10
REMARK    4  A    between atoms: C_10  and  C_11
REMARK    5  A    between atoms: C_10  and  C_12
REMARK    6  A    between atoms: C_10  and  C_13
REMARK    7  A    between atoms: C_13  and  N_14
REMARK    8  A    between atoms: C_15  and  C_16
REMARK    9  A    between atoms: N_19  and  C_20
REMARK                            x       y       z     vdW  Elec       q    Type
REMARK                         _______ _______ _______ _____ _____    ______ ____
ROOT
ATOM      1  C   UNL     1       3.585   3.021  19.347  0.00  0.00    +0.000 A 
ATOM      2  C   UNL     1       2.328   3.613  19.306  0.00  0.00    +0.000 A 
ATOM      3  C   UNL     1       2.170   4.925  18.852  0.00  0.00    +0.000 A 
ATOM      4  C   UNL     1       3.311   5.629  18.444  0.00  0.00    +0.000 A 
ATOM      5  C   UNL     1       4.598   5.085  18.505  0.00  0.00    +0.000 A 
ATOM      6  C   UNL     1       4.721   3.755  18.977  0.00  0.00    +0.000 A 
ATOM      7  C   UNL     1       5.527   6.088  18.031  0.00  0.00    +0.000 A 
ATOM      8  C   UNL     1       4.745   7.171  17.661  0.00  0.00    +0.000 A 
ATOM      9  N   UNL     1       3.433   6.897  17.927  0.00  0.00    +0.000 N 
ATOM     10  C   UNL     1       2.335   7.801  17.674  0.00  0.00    +0.000 C 
ENDROOT
BRANCH   7  11
ATOM     11  C   UNL     1       7.057   5.989  17.910  0.00  0.00    +0.000 C 
ATOM     12  C   UNL     1       7.642   7.250  17.238  0.00  0.00    +0.000 C 
ATOM     13  C   UNL     1       7.682   5.838  19.315  0.00  0.00    +0.000 C 
BRANCH  11  14
ATOM     14  C   UNL     1       7.507   4.742  17.077  0.00  0.00    +0.000 C 
BRANCH  14  15
ATOM     15  N   UNL     1       6.590   4.375  16.005  0.00  0.00    +0.000 N 
ATOM     16  C   UNL     1       6.853   4.704  14.696  0.00  0.00    +0.000 C 
ATOM     17  C   UNL     1       5.869   4.136  13.707  0.00  0.00    +0.000 C 
ATOM     18  O   UNL     1       7.801   5.397  14.346  0.00  0.00    +0.000 OA
ATOM     19  H   UNL     1       5.910   3.650  16.196  0.00  0.00    +0.000 HD
ENDBRANCH  14  15
ENDBRANCH  11  14
ENDBRANCH   7  11
BRANCH   1  21
ATOM     20  C   UNL     1       4.851   1.600  20.744  0.00  0.00    +0.000 C 
ATOM     21  O   UNL     1       3.824   1.737  19.766  0.00  0.00    +0.000 OA
ENDBRANCH   1  21
TORSDOF 4
ENDMDL
MODEL 5
REMARK VINA RESULT:      -7.2      2.154      5.579
REMARK  Name = 
REMARK  9 active torsions:
REMARK  status: ('A' for Active; 'I' for Inactive)
REMARK    1  A    between atoms: C_1  and  O_2
REMARK    2  A    between atoms: O_2  and  C_3
REMARK    3  A    between atoms: C_9  and  C_10
REMARK    4  A    between atoms: C_10  and  C_11
REMARK    5  A    between atoms: C_10  and  C_12
REMARK    6  A    between atoms: C_10  and  C_13
REMARK    7  A    between atoms: C_13  and  N_14
REMARK    8  A    between atoms: C_15  and  C_16
REMARK    9  A    between atoms: N_19  and  C_20
REMARK                            x       y       z     vdW  Elec       q    Type
REMARK                         _______ _______ _______ _____ _____    ______ ____
ROOT
ATOM      1  C   UNL     1       5.757   4.218  14.636  0.00  0.00    +0.000 A 
ATOM      2  C   UNL     1       6.917   4.950  14.862  0.00  0.00    +0.000 A 
ATOM      3  C   UNL     1       7.289   5.320  16.157  0.00  0.00    +0.000 A 
ATOM      4  C   UNL     1       6.461   4.938  17.221  0.00  0.00    +0.000 A 
ATOM      5  C   UNL     1       5.266   4.235  17.035  0.00  0.00    +0.000 A 
ATOM      6  C   UNL     1       4.917   3.883  15.709  0.00  0.00    +0.000 A 
ATOM      7  C   UNL     1       4.665   4.032  18.336  0.00  0.00    +0.000 A 
ATOM      8  C   UNL     1       5.555   4.581  19.245  0.00  0.00    +0.000 A 
ATOM      9  N   UNL     1       6.609   5.133  18.574  0.00  0.00    +0.000 N 
ATOM     10  C   UNL     1       7.727   5.799  19.200  0.00  0.00    +0.000 C 
ENDROOT
BRANCH   7  11
ATOM     11  C   UNL     1       3.342   3.322  18.673  0.00  0.00    +0.000 C 
ATOM     12  C   UNL     1       3.246   1.959  17.954  0.00  0.00    +0.000 C 
ATOM     13  C   UNL     1       3.251   3.088  20.198  0.00  0.00    +0.000 C 
BRANCH  11  14
ATOM     14  C   UNL     1       2.092   4.173  18.270  0.00  0.00    +0.000 C 
BRANCH  14  15
ATOM     15  N   UNL     1       2.409   5.506  17.774  0.00  0.00    +0.000 N 
ATOM     16  C   UNL     1       2.484   6.586  18.622  0.00  0.00    +0.000 C 
ATOM     17  C   UNL     1       2.949   7.858  17.962  0.00  0.00    +0.000 C 
ATOM     18  O   UNL     1       2.204   6.536  19.814  0.00  0.00    +0.000 OA
ATOM     19  H   UNL     1       2.835   5.578  16.858  0.00  0.00    +0.000 HD
ENDBRANCH  14  15
ENDBRANCH  11  14
ENDBRANCH   7  11
BRANCH   1  21
ATOM     20  C   UNL     1       6.361   3.523  12.463  0.00  0.00    +0.000 C 
ATOM     21  O   UNL     1       5.327   3.806  13.401  0.00  0.00    +0.000 OA
ENDBRANCH   1  21
TORSDOF 4
ENDMDL
MODEL 6
REMARK VINA RESULT:      -7.2      2.075      3.066
REMARK  Name = 
REMARK  9 active torsions:
REMARK  status: ('A' for Active; 'I' for Inactive)
REMARK    1  A    between atoms: C_1  and  O_2
REMARK    2  A    between atoms: O_2  and  C_3
REMARK    3  A    between atoms: C_9  and  C_10
REMARK    4  A    between atoms: C_10  and  C_11
REMARK    5  A    between atoms: C_10  and  C_12
REMARK    6  A    between atoms: C_10  and  C_13
REMARK    7  A    between atoms: C_13  and  N_14
REMARK    8  A    between atoms: C_15  and  C_16
REMARK    9  A    between atoms: N_19  and  C_20
REMARK                            x       y       z     vdW  Elec       q    Type
REMARK                         _______ _______ _______ _____ _____    ______ ____
ROOT
ATOM      1  C   UNL     1       2.705   7.595  17.934  0.00  0.00    +0.000 A 
ATOM      2  C   UNL     1       1.708   6.769  18.440  0.00  0.00    +0.000 A 
ATOM      3  C   UNL     1       2.018   5.508  18.957  0.00  0.00    +0.000 A 
ATOM      4  C   UNL     1       3.358   5.098  18.950  0.00  0.00    +0.000 A 
ATOM      5  C   UNL     1       4.386   5.882  18.417  0.00  0.00    +0.000 A 
ATOM      6  C   UNL     1       4.034   7.150  17.894  0.00  0.00    +0.000 A 
ATOM      7  C   UNL     1       5.623   5.144  18.555  0.00  0.00    +0.000 A 
ATOM      8  C   UNL     1       5.284   3.971  19.212  0.00  0.00    +0.000 A 
ATOM      9  N   UNL     1       3.934   3.944  19.425  0.00  0.00    +0.000 N 
ATOM     10  C   UNL     1       3.226   2.869  20.080  0.00  0.00    +0.000 C 
ENDROOT
BRANCH   7  11
ATOM     11  C   UNL     1       7.037   5.564  18.118  0.00  0.00    +0.000 C 
ATOM     12  C   UNL     1       7.017   6.950  17.437  0.00  0.00    +0.000 C 
ATOM     13  C   UNL     1       7.966   5.628  19.351  0.00  0.00    +0.000 C 
BRANCH  11  14
ATOM     14  C   UNL     1       7.678   4.542  17.120  0.00  0.00    +0.000 C 
BRANCH  14  15
ATOM     15  N   UNL     1       6.788   4.111  16.050  0.00  0.00    +0.000 N 
ATOM     16  C   UNL     1       6.950   4.559  14.760  0.00  0.00    +0.000 C 
ATOM     17  C   UNL     1       6.026   3.912  13.761  0.00  0.00    +0.000 C 
ATOM     18  O   UNL     1       7.772   5.407  14.433  0.00  0.00    +0.000 OA
ATOM     19  H   UNL     1       6.230   3.281  16.209  0.00  0.00    +0.000 HD
ENDBRANCH  14  15
ENDBRANCH  11  14
ENDBRANCH   7  11
BRANCH   1  21
ATOM     20  C   UNL     1       1.314   9.503  17.894  0.00  0.00    +0.000 C 
ATOM     21  O   UNL     1       2.488   8.848  17.421  0.00  0.00    +0.000 OA
ENDBRANCH   1  21
TORSDOF 4
ENDMDL
MODEL 7
REMARK VINA RESULT:      -7.1      2.520      4.088
REMARK  Name = 
REMARK  9 active torsions:
REMARK  status: ('A' for Active; 'I' for Inactive)
REMARK    1  A    between atoms: C_1  and  O_2
REMARK    2  A    between atoms: O_2  and  C_3
REMARK    3  A    between atoms: C_9  and  C_10
REMARK    4  A    between atoms: C_10  and  C_11
REMARK    5  A    between atoms: C_10  and  C_12
REMARK    6  A    between atoms: C_10  and  C_13
REMARK    7  A    between atoms: C_13  and  N_14
REMARK    8  A    between atoms: C_15  and  C_16
REMARK    9  A    between atoms: N_19  and  C_20
REMARK                            x       y       z     vdW  Elec       q    Type
REMARK                         _______ _______ _______ _____ _____    ______ ____
ROOT
ATOM      1  C   UNL     1       2.234   4.875  20.934  0.00  0.00    +0.000 A 
ATOM      2  C   UNL     1       1.481   6.035  21.069  0.00  0.00    +0.000 A 
ATOM      3  C   UNL     1       1.628   7.092  20.167  0.00  0.00    +0.000 A 
ATOM      4  C   UNL     1       2.556   6.953  19.126  0.00  0.00    +0.000 A 
ATOM      5  C   UNL     1       3.360   5.819  18.975  0.00  0.00    +0.000 A 
ATOM      6  C   UNL     1       3.190   4.771  19.913  0.00  0.00    +0.000 A 
ATOM      7  C   UNL     1       4.207   6.026  17.820  0.00  0.00    +0.000 A 
ATOM      8  C   UNL     1       3.833   7.256  17.302  0.00  0.00    +0.000 A 
ATOM      9  N   UNL     1       2.865   7.808  18.094  0.00  0.00    +0.000 N 
ATOM     10  C   UNL     1       2.242   9.090  17.861  0.00  0.00    +0.000 C 
ENDROOT
BRANCH   7  11
ATOM     11  C   UNL     1       5.273   5.082  17.239  0.00  0.00    +0.000 C 
ATOM     12  C   UNL     1       6.373   4.781  18.280  0.00  0.00    +0.000 C 
ATOM     13  C   UNL     1       4.614   3.751  16.813  0.00  0.00    +0.000 C 
BRANCH  11  14
ATOM     14  C   UNL     1       5.960   5.675  15.964  0.00  0.00    +0.000 C 
BRANCH  14  15
ATOM     15  N   UNL     1       5.806   4.860  14.766  0.00  0.00    +0.000 N 
ATOM     16  C   UNL     1       6.813   4.759  13.836  0.00  0.00    +0.000 C 
ATOM     17  C   UNL     1       6.534   3.775  12.729  0.00  0.00    +0.000 C 
ATOM     18  O   UNL     1       7.854   5.403  13.887  0.00  0.00    +0.000 OA
ATOM     19  H   UNL     1       5.070   4.165  14.763  0.00  0.00    +0.000 HD
ENDBRANCH  14  15
ENDBRANCH  11  14
ENDBRANCH   7  11
BRANCH   1  21
ATOM     20  C   UNL     1       2.245   2.521  21.125  0.00  0.00    +0.000 C 
ATOM     21  O   UNL     1       2.143   3.789  21.767  0.00  0.00    +0.000 OA
ENDBRANCH   1  21
TORSDOF 4
ENDMDL
MODEL 8
REMARK VINA RESULT:      -7.0      1.116      1.250
REMARK  Name = 
REMARK  9 active torsions:
REMARK  status: ('A' for Active; 'I' for Inactive)
REMARK    1  A    between atoms: C_1  and  O_2
REMARK    2  A    between atoms: O_2  and  C_3
REMARK    3  A    between atoms: C_9  and  C_10
REMARK    4  A    between atoms: C_10  and  C_11
REMARK    5  A    between atoms: C_10  and  C_12
REMARK    6  A    between atoms: C_10  and  C_13
REMARK    7  A    between atoms: C_13  and  N_14
REMARK    8  A    between atoms: C_15  and  C_16
REMARK    9  A    between atoms: N_19  and  C_20
REMARK                            x       y       z     vdW  Elec       q    Type
REMARK                         _______ _______ _______ _____ _____    ______ ____
ROOT
ATOM      1  C   UNL     1       2.659   6.848  18.792  0.00  0.00    +0.000 A 
ATOM      2  C   UNL     1       2.040   5.865  19.556  0.00  0.00    +0.000 A 
ATOM      3  C   UNL     1       2.325   4.513  19.348  0.00  0.00    +0.000 A 
ATOM      4  C   UNL     1       3.246   4.174  18.348  0.00  0.00    +0.000 A 
ATOM      5  C   UNL     1       3.862   5.128  17.532  0.00  0.00    +0.000 A 
ATOM      6  C   UNL     1       3.544   6.488  17.766  0.00  0.00    +0.000 A 
ATOM      7  C   UNL     1       4.725   4.428  16.605  0.00  0.00    +0.000 A 
ATOM      8  C   UNL     1       4.624   3.087  16.945  0.00  0.00    +0.000 A 
ATOM      9  N   UNL     1       3.729   2.944  17.968  0.00  0.00    +0.000 N 
ATOM     10  C   UNL     1       3.368   1.684  18.576  0.00  0.00    +0.000 C 
ENDROOT
BRANCH   7  11
ATOM     11  C   UNL     1       5.614   5.020  15.498  0.00  0.00    +0.000 C 
ATOM     12  C   UNL     1       5.419   4.262  14.167  0.00  0.00    +0.000 C 
ATOM     13  C   UNL     1       5.255   6.507  15.281  0.00  0.00    +0.000 C 
BRANCH  11  14
ATOM     14  C   UNL     1       7.134   4.970  15.867  0.00  0.00    +0.000 C 
BRANCH  14  15
ATOM     15  N   UNL     1       7.402   4.903  17.298  0.00  0.00    +0.000 N 
ATOM     16  C   UNL     1       7.607   6.042  18.040  0.00  0.00    +0.000 C 
ATOM     17  C   UNL     1       7.740   5.798  19.521  0.00  0.00    +0.000 C 
ATOM     18  O   UNL     1       7.676   7.166  17.558  0.00  0.00    +0.000 OA
ATOM     19  H   UNL     1       7.167   4.045  17.781  0.00  0.00    +0.000 HD
ENDBRANCH  14  15
ENDBRANCH  11  14
ENDBRANCH   7  11
BRANCH   1  21
ATOM     20  C   UNL     1       1.843   8.840  17.821  0.00  0.00    +0.000 C 
ATOM     21  O   UNL     1       2.445   8.194  18.940  0.00  0.00    +0.000 OA
ENDBRANCH   1  21
TORSDOF 4
ENDMDL
MODEL 9
REMARK VINA RESULT:      -6.9      1.881      3.028
REMARK  Name = 
REMARK  9 active torsions:
REMARK  status: ('A' for Active; 'I' for Inactive)
REMARK    1  A    between atoms: C_1  and  O_2
REMARK    2  A    between atoms: O_2  and  C_3
REMARK    3  A    between atoms: C_9  and  C_10
REMARK    4  A    between atoms: C_10  and  C_11
REMARK    5  A    between atoms: C_10  and  C_12
REMARK    6  A    between atoms: C_10  and  C_13
REMARK    7  A    between atoms: C_13  and  N_14
REMARK    8  A    between atoms: C_15  and  C_16
REMARK    9  A    between atoms: N_19  and  C_20
REMARK                            x       y       z     vdW  Elec       q    Type
REMARK                         _______ _______ _______ _____ _____    ______ ____
ROOT
ATOM      1  C   UNL     1       2.807   3.903  20.009  0.00  0.00    +0.000 A 
ATOM      2  C   UNL     1       2.035   4.980  20.432  0.00  0.00    +0.000 A 
ATOM      3  C   UNL     1       2.100   6.209  19.771  0.00  0.00    +0.000 A 
ATOM      4  C   UNL     1       2.965   6.330  18.675  0.00  0.00    +0.000 A 
ATOM      5  C   UNL     1       3.786   5.285  18.240  0.00  0.00    +0.000 A 
ATOM      6  C   UNL     1       3.700   4.056  18.938  0.00  0.00    +0.000 A 
ATOM      7  C   UNL     1       4.554   5.765  17.112  0.00  0.00    +0.000 A 
ATOM      8  C   UNL     1       4.118   7.062  16.892  0.00  0.00    +0.000 A 
ATOM      9  N   UNL     1       3.189   7.396  17.836  0.00  0.00    +0.000 N 
ATOM     10  C   UNL     1       2.521   8.674  17.919  0.00  0.00    +0.000 C 
ENDROOT
BRANCH   7  11
ATOM     11  C   UNL     1       5.605   5.006  16.283  0.00  0.00    +0.000 C 
ATOM     12  C   UNL     1       5.392   3.480  16.383  0.00  0.00    +0.000 C 
ATOM     13  C   UNL     1       5.501   5.427  14.800  0.00  0.00    +0.000 C 
BRANCH  11  14
ATOM     14  C   UNL     1       7.067   5.324  16.743  0.00  0.00    +0.000 C 
BRANCH  14  15
ATOM     15  N   UNL     1       7.360   6.747  16.865  0.00  0.00    +0.000 N 
ATOM     16  C   UNL     1       7.884   7.272  18.023  0.00  0.00    +0.000 C 
ATOM     17  C   UNL     1       8.246   8.731  17.930  0.00  0.00    +0.000 C 
ATOM     18  O   UNL     1       8.051   6.624  19.049  0.00  0.00    +0.000 OA
ATOM     19  H   UNL     1       7.431   7.286  16.011  0.00  0.00    +0.000 HD
ENDBRANCH  14  15
ENDBRANCH  11  14
ENDBRANCH   7  11
BRANCH   1  21
ATOM     20  C   UNL     1       2.079   2.578  21.823  0.00  0.00    +0.000 C 
ATOM     21  O   UNL     1       2.795   2.663  20.593  0.00  0.00    +0.000 OA
ENDBRANCH   1  21
TORSDOF 4
ENDMDL
