MODEL 1
REMARK VINA RESULT:      -7.7      0.000      0.000
REMARK  Name = 
REMARK  12 active torsions:
REMARK  status: ('A' for Active; 'I' for Inactive)
REMARK    1  A    between atoms: C_1  and  C_2
REMARK    2  A    between atoms: C_2  and  C_3
REMARK    3  A    between atoms: C_3  and  C_4
REMARK    4  A    between atoms: C_4  and  C_5
REMARK    5  A    between atoms: C_5  and  C_6
REMARK    6  A    between atoms: C_6  and  C_7
REMARK    7  A    between atoms: C_7  and  N_8
REMARK    8  A    between atoms: C_11  and  C_12
REMARK    9  A    between atoms: C_12  and  C_13
REMARK   10  A    between atoms: N_15  and  C_16
REMARK   11  A    between atoms: C_23  and  O_24
REMARK   12  A    between atoms: O_24  and  C_25
REMARK                            x       y       z     vdW  Elec       q    Type
REMARK                         _______ _______ _______ _____ _____    ______ ____
ROOT
ATOM      1  C   UNL     1       1.764   8.098  19.502  0.00  0.00    +0.000 C 
ATOM      2  O   UNL     1       1.504   7.808  20.666  0.00  0.00    +0.000 OA
ATOM      3  N   UNL     1       1.291   9.192  18.797  0.00  0.00    +0.000 N 
ATOM      4  H   UNL     1       1.491   9.213  17.807  0.00  0.00    +0.000 HD
ENDROOT
BRANCH   3   5
ATOM      5  C   UNL     1       0.457  10.226  19.315  0.00  0.00    +0.000 A 
ATOM      6  C   UNL     1       0.856  10.974  20.421  0.00  0.00    +0.000 A 
ATOM      7  C   UNL     1       0.008  11.937  20.924  0.00  0.00    +0.000 A 
ATOM      8  N   UNL     1      -1.197  12.212  20.400  0.00  0.00    +0.000 NA
ATOM      9  C   UNL     1      -1.583  11.525  19.321  0.00  0.00    +0.000 A 
ATOM     10  C   UNL     1      -2.831  11.836  18.804  0.00  0.00    +0.000 A 
ATOM     11  C   UNL     1      -3.348  11.199  17.674  0.00  0.00    +0.000 A 
ATOM     12  C   UNL     1      -2.598  10.223  17.034  0.00  0.00    +0.000 A 
ATOM     13  C   UNL     1      -1.341   9.882  17.551  0.00  0.00    +0.000 A 
ATOM     14  C   UNL     1      -0.800  10.517  18.706  0.00  0.00    +0.000 A 
BRANCH  12  15
ATOM     15  O   UNL     1      -2.974   9.534  15.915  0.00  0.00    +0.000 OA
ATOM     16  C   UNL     1      -2.943  10.250  14.682  0.00  0.00    +0.000 C 
ENDBRANCH  12  15
ENDBRANCH   3   5
BRANCH   1  17
ATOM     17  C   UNL     1       2.642   7.172  18.686  0.00  0.00    +0.000 C 
BRANCH  17  21
ATOM     18  N   UNL     1       4.322   4.048  17.520  0.00  0.00    +0.000 NA
ATOM     19  C   UNL     1       5.036   5.222  18.047  0.00  0.00    +0.000 C 
ATOM     20  C   UNL     1       4.526   5.594  19.438  0.00  0.00    +0.000 C 
ATOM     21  C   UNL     1       3.019   5.887  19.444  0.00  0.00    +0.000 C 
ATOM     22  C   UNL     1       2.301   4.669  18.843  0.00  0.00    +0.000 C 
ATOM     23  C   UNL     1       2.868   4.265  17.476  0.00  0.00    +0.000 C 
BRANCH  18  24
ATOM     24  C   UNL     1       4.815   3.657  16.187  0.00  0.00    +0.000 C 
BRANCH  24  25
ATOM     25  C   UNL     1       6.158   4.289  15.795  0.00  0.00    +0.000 C 
BRANCH  25  26
ATOM     26  C   UNL     1       6.507   4.078  14.322  0.00  0.00    +0.000 C 
BRANCH  26  27
ATOM     27  C   UNL     1       5.242   4.022  13.469  0.00  0.00    +0.000 C 
BRANCH  27  28
ATOM     28  C   UNL     1       5.557   3.563  12.047  0.00  0.00    +0.000 C 
BRANCH  28  30
ATOM     29  C   UNL     1       3.613   3.705  10.461  0.00  0.00    +0.000 C 
ATOM     30  C   UNL     1       4.371   2.820  11.435  0.00  0.00    +0.000 C 
ENDBRANCH  28  30
ENDBRANCH  27  28
ENDBRANCH  26  27
ENDBRANCH  25  26
ENDBRANCH  24  25
ENDBRANCH  18  24
ENDBRANCH  17  21
ENDBRANCH   1  17
TORSDOF 10
ENDMDL
MODEL 2
REMARK VINA RESULT:      -7.5      2.009      3.171
REMARK  Name = 
REMARK  12 active torsions:
REMARK  status: ('A' for Active; 'I' for Inactive)
REMARK    1  A    between atoms: C_1  and  C_2
REMARK    2  A    between atoms: C_2  and  C_3
REMARK    3  A    between atoms: C_3  and  C_4
REMARK    4  A    between atoms: C_4  and  C_5
REMARK    5  A    between atoms: C_5  and  C_6
REMARK    6  A    between atoms: C_6  and  C_7
REMARK    7  A    between atoms: C_7  and  N_8
REMARK    8  A    between atoms: C_11  and  C_12
REMARK    9  A    between atoms: C_12  and  C_13
REMARK   10  A    between atoms: N_15  and  C_16
REMARK   11  A    between atoms: C_23  and  O_24
REMARK   12  A    between atoms: O_24  and  C_25
REMARK                            x       y       z     vdW  Elec       q    Type
REMARK                         _______ _______ _______ _____ _____    ______ ____
ROOT
ATOM      1  C   UNL     1       1.614   8.327  19.803  0.00  0.00    +0.000 C 
ATOM      2  O   UNL     1       1.334   8.091  20.975  0.00  0.00    +0.000 OA
ATOM      3  N   UNL     1       1.210   9.424  19.061  0.00  0.00    +0.000 N 
ATOM      4  H   UNL     1       1.413   9.401  18.071  0.00  0.00    +0.000 HD
ENDROOT
BRANCH   3   5
ATOM      5  C   UNL     1       0.439  10.524  19.541  0.00  0.00    +0.000 A 
ATOM      6  C   UNL     1       0.943  11.365  20.533  0.00  0.00    +0.000 A 
ATOM      7  C   UNL     1       0.155  12.392  21.006  0.00  0.00    +0.000 A 
ATOM      8  N   UNL     1      -1.085  12.645  20.559  0.00  0.00    +0.000 NA
ATOM      9  C   UNL     1      -1.572  11.865  19.588  0.00  0.00    +0.000 A 
ATOM     10  C   UNL     1      -2.853  12.155  19.147  0.00  0.00    +0.000 A 
ATOM     11  C   UNL     1      -3.474  11.425  18.132  0.00  0.00    +0.000 A 
ATOM     12  C   UNL     1      -2.796  10.374  17.532  0.00  0.00    +0.000 A 
ATOM     13  C   UNL     1      -1.506  10.054  17.975  0.00  0.00    +0.000 A 
ATOM     14  C   UNL     1      -0.860  10.785  19.013  0.00  0.00    +0.000 A 
BRANCH  12  15
ATOM     15  O   UNL     1      -3.276   9.590  16.520  0.00  0.00    +0.000 OA
ATOM     16  C   UNL     1      -2.939   9.981  15.191  0.00  0.00    +0.000 C 
ENDBRANCH  12  15
ENDBRANCH   3   5
BRANCH   1  17
ATOM     17  C   UNL     1       2.436   7.323  19.021  0.00  0.00    +0.000 C 
BRANCH  17  21
ATOM     18  N   UNL     1       4.167   4.092  18.312  0.00  0.00    +0.000 NA
ATOM     19  C   UNL     1       4.310   4.847  19.567  0.00  0.00    +0.000 C 
ATOM     20  C   UNL     1       2.949   5.103  20.210  0.00  0.00    +0.000 C 
ATOM     21  C   UNL     1       2.001   5.870  19.277  0.00  0.00    +0.000 C 
ATOM     22  C   UNL     1       1.909   5.088  17.957  0.00  0.00    +0.000 C 
ATOM     23  C   UNL     1       3.286   4.780  17.356  0.00  0.00    +0.000 C 
BRANCH  18  24
ATOM     24  C   UNL     1       5.472   3.814  17.685  0.00  0.00    +0.000 C 
BRANCH  24  25
ATOM     25  C   UNL     1       5.743   4.607  16.399  0.00  0.00    +0.000 C 
BRANCH  25  26
ATOM     26  C   UNL     1       6.926   5.567  16.532  0.00  0.00    +0.000 C 
BRANCH  26  27
ATOM     27  C   UNL     1       7.657   5.346  17.854  0.00  0.00    +0.000 C 
BRANCH  27  28
ATOM     28  C   UNL     1       7.976   6.675  18.535  0.00  0.00    +0.000 C 
BRANCH  28  30
ATOM     29  C   UNL     1       8.283   9.126  18.071  0.00  0.00    +0.000 C 
ATOM     30  C   UNL     1       7.564   7.854  17.655  0.00  0.00    +0.000 C 
ENDBRANCH  28  30
ENDBRANCH  27  28
ENDBRANCH  26  27
ENDBRANCH  25  26
ENDBRANCH  24  25
ENDBRANCH  18  24
ENDBRANCH  17  21
ENDBRANCH   1  17
TORSDOF 10
ENDMDL
MODEL 3
REMARK VINA RESULT:      -7.4      1.194      1.370
REMARK  Name = 
REMARK  12 active torsions:
REMARK  status: ('A' for Active; 'I' for Inactive)
REMARK    1  A    between atoms: C_1  and  C_2
REMARK    2  A    between atoms: C_2  and  C_3
REMARK    3  A    between atoms: C_3  and  C_4
REMARK    4  A    between atoms: C_4  and  C_5
REMARK    5  A    between atoms: C_5  and  C_6
REMARK    6  A    between atoms: C_6  and  C_7
REMARK    7  A    between atoms: C_7  and  N_8
REMARK    8  A    between atoms: C_11  and  C_12
REMARK    9  A    between atoms: C_12  and  C_13
REMARK   10  A    between atoms: N_15  and  C_16
REMARK   11  A    between atoms: C_23  and  O_24
REMARK   12  A    between atoms: O_24  and  C_25
REMARK                            x       y       z     vdW  Elec       q    Type
REMARK                         _______ _______ _______ _____ _____    ______ ____
ROOT
ATOM      1  C   UNL     1       2.126   9.055  18.203  0.00  0.00    +0.000 C 
ATOM      2  O   UNL     1       2.400  10.033  17.514  0.00  0.00    +0.000 OA
ATOM      3  N   UNL     1       1.215   9.006  19.245  0.00  0.00    +0.000 N 
ATOM      4  H   UNL     1       1.206   8.161  19.799  0.00  0.00    +0.000 HD
ENDROOT
BRANCH   3   5
ATOM      5  C   UNL     1       0.374  10.074  19.674  0.00  0.00    +0.000 A 
ATOM      6  C   UNL     1       0.653  10.772  20.848  0.00  0.00    +0.000 A 
ATOM      7  C   UNL     1      -0.204  11.770  21.257  0.00  0.00    +0.000 A 
ATOM      8  N   UNL     1      -1.306  12.127  20.579  0.00  0.00    +0.000 NA
ATOM      9  C   UNL     1      -1.572  11.489  19.435  0.00  0.00    +0.000 A 
ATOM     10  C   UNL     1      -2.716  11.884  18.759  0.00  0.00    +0.000 A 
ATOM     11  C   UNL     1      -3.101  11.306  17.549  0.00  0.00    +0.000 A 
ATOM     12  C   UNL     1      -2.323  10.303  16.989  0.00  0.00    +0.000 A 
ATOM     13  C   UNL     1      -1.173   9.877  17.666  0.00  0.00    +0.000 A 
ATOM     14  C   UNL     1      -0.767  10.453  18.905  0.00  0.00    +0.000 A 
BRANCH  12  15
ATOM     15  O   UNL     1      -2.573   9.664  15.807  0.00  0.00    +0.000 OA
ATOM     16  C   UNL     1      -3.335  10.383  14.840  0.00  0.00    +0.000 C 
ENDBRANCH  12  15
ENDBRANCH   3   5
BRANCH   1  17
ATOM     17  C   UNL     1       2.870   7.755  17.973  0.00  0.00    +0.000 C 
BRANCH  17  21
ATOM     18  N   UNL     1       3.922   4.182  18.228  0.00  0.00    +0.000 NA
ATOM     19  C   UNL     1       4.613   5.296  18.897  0.00  0.00    +0.000 C 
ATOM     20  C   UNL     1       3.648   6.093  19.772  0.00  0.00    +0.000 C 
ATOM     21  C   UNL     1       2.466   6.654  18.969  0.00  0.00    +0.000 C 
ATOM     22  C   UNL     1       1.793   5.480  18.241  0.00  0.00    +0.000 C 
ATOM     23  C   UNL     1       2.786   4.648  17.419  0.00  0.00    +0.000 C 
BRANCH  18  24
ATOM     24  C   UNL     1       4.841   3.385  17.396  0.00  0.00    +0.000 C 
BRANCH  24  25
ATOM     25  C   UNL     1       5.065   3.942  15.983  0.00  0.00    +0.000 C 
BRANCH  25  26
ATOM     26  C   UNL     1       6.505   4.400  15.746  0.00  0.00    +0.000 C 
BRANCH  26  27
ATOM     27  C   UNL     1       6.776   4.582  14.255  0.00  0.00    +0.000 C 
BRANCH  27  28
ATOM     28  C   UNL     1       5.948   3.605  13.422  0.00  0.00    +0.000 C 
BRANCH  28  30
ATOM     29  C   UNL     1       6.724   2.217  11.477  0.00  0.00    +0.000 C 
ATOM     30  C   UNL     1       6.392   3.617  11.961  0.00  0.00    +0.000 C 
ENDBRANCH  28  30
ENDBRANCH  27  28
ENDBRANCH  26  27
ENDBRANCH  25  26
ENDBRANCH  24  25
ENDBRANCH  18  24
ENDBRANCH  17  21
ENDBRANCH   1  17
TORSDOF 10
ENDMDL
MODEL 4
REMARK VINA RESULT:      -7.3      2.492      3.097
REMARK  Name = 
REMARK  12 active torsions:
REMARK  status: ('A' for Active; 'I' for Inactive)
REMARK    1  A    between atoms: C_1  and  C_2
REMARK    2  A    between atoms: C_2  and  C_3
REMARK    3  A    between atoms: C_3  and  C_4
REMARK    4  A    between atoms: C_4  and  C_5
REMARK    5  A    between atoms: C_5  and  C_6
REMARK    6  A    between atoms: C_6  and  C_7
REMARK    7  A    between atoms: C_7  and  N_8
REMARK    8  A    between atoms: C_11  and  C_12
REMARK    9  A    between atoms: C_12  and  C_13
REMARK   10  A    between atoms: N_15  and  C_16
REMARK   11  A    between atoms: C_23  and  O_24
REMARK   12  A    between atoms: O_24  and  C_25
REMARK                            x       y       z     vdW  Elec       q    Type
REMARK                         _______ _______ _______ _____ _____    ______ ____
ROOT
ATOM      1  C   UNL     1       2.003   9.018  18.158  0.00  0.00    +0.000 C 
ATOM      2  O   UNL     1       2.271   9.967  17.428  0.00  0.00    +0.000 OA
ATOM      3  N   UNL     1       1.127   9.021  19.231  0.00  0.00    +0.000 N 
ATOM      4  H   UNL     1       1.122   8.196  19.813  0.00  0.00    +0.000 HD
ENDROOT
BRANCH   3   5
ATOM      5  C   UNL     1       0.320  10.119  19.651  0.00  0.00    +0.000 A 
ATOM      6  C   UNL     1       0.667  10.866  20.777  0.00  0.00    +0.000 A 
ATOM      7  C   UNL     1      -0.158  11.894  21.181  0.00  0.00    +0.000 A 
ATOM      8  N   UNL     1      -1.289  12.234  20.544  0.00  0.00    +0.000 NA
ATOM      9  C   UNL     1      -1.621  11.547  19.446  0.00  0.00    +0.000 A 
ATOM     10  C   UNL     1      -2.793  11.925  18.811  0.00  0.00    +0.000 A 
ATOM     11  C   UNL     1      -3.246  11.297  17.650  0.00  0.00    +0.000 A 
ATOM     12  C   UNL     1      -2.508  10.259  17.100  0.00  0.00    +0.000 A 
ATOM     13  C   UNL     1      -1.329   9.849  17.736  0.00  0.00    +0.000 A 
ATOM     14  C   UNL     1      -0.854  10.477  18.924  0.00  0.00    +0.000 A 
BRANCH  12  15
ATOM     15  O   UNL     1      -2.826   9.569  15.963  0.00  0.00    +0.000 OA
ATOM     16  C   UNL     1      -3.237  10.343  14.838  0.00  0.00    +0.000 C 
ENDBRANCH  12  15
ENDBRANCH   3   5
BRANCH   1  17
ATOM     17  C   UNL     1       2.714   7.697  17.948  0.00  0.00    +0.000 C 
BRANCH  17  21
ATOM     18  N   UNL     1       3.933   4.267  18.779  0.00  0.00    +0.000 NA
ATOM     19  C   UNL     1       4.083   5.433  19.664  0.00  0.00    +0.000 C 
ATOM     20  C   UNL     1       2.729   6.083  19.948  0.00  0.00    +0.000 C 
ATOM     21  C   UNL     1       2.018   6.526  18.661  0.00  0.00    +0.000 C 
ATOM     22  C   UNL     1       1.919   5.304  17.735  0.00  0.00    +0.000 C 
ATOM     23  C   UNL     1       3.275   4.621  17.512  0.00  0.00    +0.000 C 
BRANCH  18  24
ATOM     24  C   UNL     1       5.225   3.611  18.510  0.00  0.00    +0.000 C 
BRANCH  24  25
ATOM     25  C   UNL     1       6.422   4.569  18.436  0.00  0.00    +0.000 C 
BRANCH  25  26
ATOM     26  C   UNL     1       7.166   4.489  17.102  0.00  0.00    +0.000 C 
BRANCH  26  27
ATOM     27  C   UNL     1       7.301   5.874  16.474  0.00  0.00    +0.000 C 
BRANCH  27  28
ATOM     28  C   UNL     1       6.265   6.840  17.046  0.00  0.00    +0.000 C 
BRANCH  28  30
ATOM     29  C   UNL     1       8.248   7.837  18.224  0.00  0.00    +0.000 C 
ATOM     30  C   UNL     1       6.927   8.127  17.534  0.00  0.00    +0.000 C 
ENDBRANCH  28  30
ENDBRANCH  27  28
ENDBRANCH  26  27
ENDBRANCH  25  26
ENDBRANCH  24  25
ENDBRANCH  18  24
ENDBRANCH  17  21
ENDBRANCH   1  17
TORSDOF 10
ENDMDL
MODEL 5
REMARK VINA RESULT:      -7.2      1.442      1.971
REMARK  Name = 
REMARK  12 active torsions:
REMARK  status: ('A' for Active; 'I' for Inactive)
REMARK    1  A    between atoms: C_1  and  C_2
REMARK    2  A    between atoms: C_2  and  C_3
REMARK    3  A    between atoms: C_3  and  C_4
REMARK    4  A    between atoms: C_4  and  C_5
REMARK    5  A    between atoms: C_5  and  C_6
REMARK    6  A    between atoms: C_6  and  C_7
REMARK    7  A    between atoms: C_7  and  N_8
REMARK    8  A    between atoms: C_11  and  C_12
REMARK    9  A    between atoms: C_12  and  C_13
REMARK   10  A    between atoms: N_15  and  C_16
REMARK   11  A    between atoms: C_23  and  O_24
REMARK   12  A    between atoms: O_24  and  C_25
REMARK                            x       y       z     vdW  Elec       q    Type
REMARK                         _______ _______ _______ _____ _____    ______ ____
ROOT
ATOM      1  C   UNL     1       1.896   6.528  19.695  0.00  0.00    +0.000 C 
ATOM      2  O   UNL     1       1.487   5.835  20.621  0.00  0.00    +0.000 OA
ATOM      3  N   UNL     1       1.789   7.904  19.581  0.00  0.00    +0.000 N 
ATOM      4  H   UNL     1       2.056   8.306  18.693  0.00  0.00    +0.000 HD
ENDROOT
BRANCH   3   5
ATOM      5  C   UNL     1       1.236   8.785  20.555  0.00  0.00    +0.000 A 
ATOM      6  C   UNL     1       1.641   8.716  21.888  0.00  0.00    +0.000 A 
ATOM      7  C   UNL     1       1.055   9.553  22.813  0.00  0.00    +0.000 A 
ATOM      8  N   UNL     1       0.107  10.453  22.506  0.00  0.00    +0.000 NA
ATOM      9  C   UNL     1      -0.272  10.552  21.227  0.00  0.00    +0.000 A 
ATOM     10  C   UNL     1      -1.249  11.493  20.945  0.00  0.00    +0.000 A 
ATOM     11  C   UNL     1      -1.726  11.704  19.650  0.00  0.00    +0.000 A 
ATOM     12  C   UNL     1      -1.211  10.958  18.600  0.00  0.00    +0.000 A 
ATOM     13  C   UNL     1      -0.234   9.989  18.867  0.00  0.00    +0.000 A 
ATOM     14  C   UNL     1       0.260   9.757  20.184  0.00  0.00    +0.000 A 
BRANCH  12  15
ATOM     15  O   UNL     1      -1.573  11.072  17.287  0.00  0.00    +0.000 OA
ATOM     16  C   UNL     1      -2.222   9.945  16.701  0.00  0.00    +0.000 C 
ENDBRANCH  12  15
ENDBRANCH   3   5
BRANCH   1  17
ATOM     17  C   UNL     1       2.542   5.859  18.499  0.00  0.00    +0.000 C 
BRANCH  17  21
ATOM     18  N   UNL     1       5.525   4.796  16.520  0.00  0.00    +0.000 NA
ATOM     19  C   UNL     1       5.463   6.028  17.323  0.00  0.00    +0.000 C 
ATOM     20  C   UNL     1       5.094   5.718  18.773  0.00  0.00    +0.000 C 
ATOM     21  C   UNL     1       3.749   4.987  18.885  0.00  0.00    +0.000 C 
ATOM     22  C   UNL     1       3.821   3.733  17.998  0.00  0.00    +0.000 C 
ATOM     23  C   UNL     1       4.258   4.050  16.562  0.00  0.00    +0.000 C 
BRANCH  18  24
ATOM     24  C   UNL     1       5.902   5.071  15.121  0.00  0.00    +0.000 C 
BRANCH  24  25
ATOM     25  C   UNL     1       6.583   3.897  14.404  0.00  0.00    +0.000 C 
BRANCH  25  26
ATOM     26  C   UNL     1       6.358   3.913  12.891  0.00  0.00    +0.000 C 
BRANCH  26  27
ATOM     27  C   UNL     1       4.888   3.670  12.561  0.00  0.00    +0.000 C 
BRANCH  27  28
ATOM     28  C   UNL     1       4.742   2.771  11.335  0.00  0.00    +0.000 C 
BRANCH  28  30
ATOM     29  C   UNL     1       3.227   4.163   9.891  0.00  0.00    +0.000 C 
ATOM     30  C   UNL     1       3.348   2.899  10.724  0.00  0.00    +0.000 C 
ENDBRANCH  28  30
ENDBRANCH  27  28
ENDBRANCH  26  27
ENDBRANCH  25  26
ENDBRANCH  24  25
ENDBRANCH  18  24
ENDBRANCH  17  21
ENDBRANCH   1  17
TORSDOF 10
ENDMDL
MODEL 6
REMARK VINA RESULT:      -7.2      2.865      9.784
REMARK  Name = 
REMARK  12 active torsions:
REMARK  status: ('A' for Active; 'I' for Inactive)
REMARK    1  A    between atoms: C_1  and  C_2
REMARK    2  A    between atoms: C_2  and  C_3
REMARK    3  A    between atoms: C_3  and  C_4
REMARK    4  A    between atoms: C_4  and  C_5
REMARK    5  A    between atoms: C_5  and  C_6
REMARK    6  A    between atoms: C_6  and  C_7
REMARK    7  A    between atoms: C_7  and  N_8
REMARK    8  A    between atoms: C_11  and  C_12
REMARK    9  A    between atoms: C_12  and  C_13
REMARK   10  A    between atoms: N_15  and  C_16
REMARK   11  A    between atoms: C_23  and  O_24
REMARK   12  A    between atoms: O_24  and  C_25
REMARK                            x       y       z     vdW  Elec       q    Type
REMARK                         _______ _______ _______ _____ _____    ______ ____
ROOT
ATOM      1  C   UNL     1       1.976   7.468  19.554  0.00  0.00    +0.000 C 
ATOM      2  O   UNL     1       1.869   6.696  20.503  0.00  0.00    +0.000 OA
ATOM      3  N   UNL     1       2.487   7.172  18.300  0.00  0.00    +0.000 N 
ATOM      4  H   UNL     1       2.631   7.952  17.676  0.00  0.00    +0.000 HD
ENDROOT
BRANCH   3   5
ATOM      5  C   UNL     1       2.928   5.891  17.856  0.00  0.00    +0.000 A 
ATOM      6  C   UNL     1       2.064   4.797  17.870  0.00  0.00    +0.000 A 
ATOM      7  C   UNL     1       2.536   3.563  17.475  0.00  0.00    +0.000 A 
ATOM      8  N   UNL     1       3.794   3.346  17.062  0.00  0.00    +0.000 NA
ATOM      9  C   UNL     1       4.628   4.390  17.016  0.00  0.00    +0.000 A 
ATOM     10  C   UNL     1       5.918   4.131  16.582  0.00  0.00    +0.000 A 
ATOM     11  C   UNL     1       6.883   5.135  16.477  0.00  0.00    +0.000 A 
ATOM     12  C   UNL     1       6.553   6.440  16.811  0.00  0.00    +0.000 A 
ATOM     13  C   UNL     1       5.258   6.719  17.268  0.00  0.00    +0.000 A 
ATOM     14  C   UNL     1       4.263   5.707  17.386  0.00  0.00    +0.000 A 
BRANCH  12  15
ATOM     15  O   UNL     1       7.391   7.518  16.740  0.00  0.00    +0.000 OA
ATOM     16  C   UNL     1       7.958   7.969  17.968  0.00  0.00    +0.000 C 
ENDBRANCH  12  15
ENDBRANCH   3   5
BRANCH   1  17
ATOM     17  C   UNL     1       1.577   8.918  19.730  0.00  0.00    +0.000 C 
BRANCH  17  21
ATOM     18  N   UNL     1      -0.017  12.206  18.960  0.00  0.00    +0.000 NA
ATOM     19  C   UNL     1       1.415  12.031  19.254  0.00  0.00    +0.000 C 
ATOM     20  C   UNL     1       2.046  11.008  18.310  0.00  0.00    +0.000 C 
ATOM     21  C   UNL     1       1.353   9.641  18.390  0.00  0.00    +0.000 C 
ATOM     22  C   UNL     1      -0.146   9.857  18.131  0.00  0.00    +0.000 C 
ATOM     23  C   UNL     1      -0.752  10.935  19.040  0.00  0.00    +0.000 C 
BRANCH  18  24
ATOM     24  C   UNL     1      -0.641  13.206  19.846  0.00  0.00    +0.000 C 
BRANCH  24  25
ATOM     25  C   UNL     1      -2.176  13.195  19.837  0.00  0.00    +0.000 C 
BRANCH  25  26
ATOM     26  C   UNL     1      -2.772  12.546  21.086  0.00  0.00    +0.000 C 
BRANCH  26  27
ATOM     27  C   UNL     1      -1.871  12.776  22.297  0.00  0.00    +0.000 C 
BRANCH  27  28
ATOM     28  C   UNL     1      -1.622  11.471  23.052  0.00  0.00    +0.000 C 
BRANCH  28  30
ATOM     29  C   UNL     1      -0.161   9.433  23.218  0.00  0.00    +0.000 C 
ATOM     30  C   UNL     1      -0.344  10.792  22.564  0.00  0.00    +0.000 C 
ENDBRANCH  28  30
ENDBRANCH  27  28
ENDBRANCH  26  27
ENDBRANCH  25  26
ENDBRANCH  24  25
ENDBRANCH  18  24
ENDBRANCH  17  21
ENDBRANCH   1  17
TORSDOF 10
ENDMDL
MODEL 7
REMARK VINA RESULT:      -7.2      2.309      3.970
REMARK  Name = 
REMARK  12 active torsions:
REMARK  status: ('A' for Active; 'I' for Inactive)
REMARK    1  A    between atoms: C_1  and  C_2
REMARK    2  A    between atoms: C_2  and  C_3
REMARK    3  A    between atoms: C_3  and  C_4
REMARK    4  A    between atoms: C_4  and  C_5
REMARK    5  A    between atoms: C_5  and  C_6
REMARK    6  A    between atoms: C_6  and  C_7
REMARK    7  A    between atoms: C_7  and  N_8
REMARK    8  A    between atoms: C_11  and  C_12
REMARK    9  A    between atoms: C_12  and  C_13
REMARK   10  A    between atoms: N_15  and  C_16
REMARK   11  A    between atoms: C_23  and  O_24
REMARK   12  A    between atoms: O_24  and  C_25
REMARK                            x       y       z     vdW  Elec       q    Type
REMARK                         _______ _______ _______ _____ _____    ______ ____
ROOT
ATOM      1  C   UNL     1       1.893   8.630  18.112  0.00  0.00    +0.000 C 
ATOM      2  O   UNL     1       2.222   9.542  17.360  0.00  0.00    +0.000 OA
ATOM      3  N   UNL     1       1.072   8.729  19.224  0.00  0.00    +0.000 N 
ATOM      4  H   UNL     1       1.010   7.912  19.814  0.00  0.00    +0.000 HD
ENDROOT
BRANCH   3   5
ATOM      5  C   UNL     1       0.401   9.906  19.668  0.00  0.00    +0.000 A 
ATOM      6  C   UNL     1       0.860  10.609  20.781  0.00  0.00    +0.000 A 
ATOM      7  C   UNL     1       0.164  11.718  21.210  0.00  0.00    +0.000 A 
ATOM      8  N   UNL     1      -0.944  12.179  20.608  0.00  0.00    +0.000 NA
ATOM      9  C   UNL     1      -1.381  11.534  19.521  0.00  0.00    +0.000 A 
ATOM     10  C   UNL     1      -2.525  12.038  18.922  0.00  0.00    +0.000 A 
ATOM     11  C   UNL     1      -3.079  11.464  17.777  0.00  0.00    +0.000 A 
ATOM     12  C   UNL     1      -2.473  10.354  17.204  0.00  0.00    +0.000 A 
ATOM     13  C   UNL     1      -1.326   9.820  17.805  0.00  0.00    +0.000 A 
ATOM     14  C   UNL     1      -0.750  10.389  18.977  0.00  0.00    +0.000 A 
BRANCH  12  15
ATOM     15  O   UNL     1      -2.898   9.706  16.079  0.00  0.00    +0.000 OA
ATOM     16  C   UNL     1      -3.293  10.523  14.979  0.00  0.00    +0.000 C 
ENDBRANCH  12  15
ENDBRANCH   3   5
BRANCH   1  17
ATOM     17  C   UNL     1       2.456   7.242  17.885  0.00  0.00    +0.000 C 
BRANCH  17  21
ATOM     18  N   UNL     1       4.835   4.375  17.641  0.00  0.00    +0.000 NA
ATOM     19  C   UNL     1       4.550   5.307  16.538  0.00  0.00    +0.000 C 
ATOM     20  C   UNL     1       4.805   6.752  16.964  0.00  0.00    +0.000 C 
ATOM     21  C   UNL     1       3.962   7.155  18.182  0.00  0.00    +0.000 C 
ATOM     22  C   UNL     1       4.239   6.138  19.301  0.00  0.00    +0.000 C 
ATOM     23  C   UNL     1       4.044   4.687  18.841  0.00  0.00    +0.000 C 
BRANCH  18  24
ATOM     24  C   UNL     1       4.617   2.971  17.244  0.00  0.00    +0.000 C 
BRANCH  24  25
ATOM     25  C   UNL     1       3.561   2.231  18.076  0.00  0.00    +0.000 C 
BRANCH  25  26
ATOM     26  C   UNL     1       2.130   2.598  17.681  0.00  0.00    +0.000 C 
BRANCH  26  27
ATOM     27  C   UNL     1       1.142   2.162  18.761  0.00  0.00    +0.000 C 
BRANCH  27  28
ATOM     28  C   UNL     1       0.850   3.304  19.732  0.00  0.00    +0.000 C 
BRANCH  28  30
ATOM     29  C   UNL     1       2.422   3.329  21.693  0.00  0.00    +0.000 C 
ATOM     30  C   UNL     1       1.072   2.863  21.178  0.00  0.00    +0.000 C 
ENDBRANCH  28  30
ENDBRANCH  27  28
ENDBRANCH  26  27
ENDBRANCH  25  26
ENDBRANCH  24  25
ENDBRANCH  18  24
ENDBRANCH  17  21
ENDBRANCH   1  17
TORSDOF 10
ENDMDL
MODEL 8
REMARK VINA RESULT:      -7.1      2.945     10.271
REMARK  Name = 
REMARK  12 active torsions:
REMARK  status: ('A' for Active; 'I' for Inactive)
REMARK    1  A    between atoms: C_1  and  C_2
REMARK    2  A    between atoms: C_2  and  C_3
REMARK    3  A    between atoms: C_3  and  C_4
REMARK    4  A    between atoms: C_4  and  C_5
REMARK    5  A    between atoms: C_5  and  C_6
REMARK    6  A    between atoms: C_6  and  C_7
REMARK    7  A    between atoms: C_7  and  N_8
REMARK    8  A    between atoms: C_11  and  C_12
REMARK    9  A    between atoms: C_12  and  C_13
REMARK   10  A    between atoms: N_15  and  C_16
REMARK   11  A    between atoms: C_23  and  O_24
REMARK   12  A    between atoms: O_24  and  C_25
REMARK                            x       y       z     vdW  Elec       q    Type
REMARK                         _______ _______ _______ _____ _____    ______ ____
ROOT
ATOM      1  C   UNL     1       2.138   7.492  19.518  0.00  0.00    +0.000 C 
ATOM      2  O   UNL     1       2.410   6.879  20.546  0.00  0.00    +0.000 OA
ATOM      3  N   UNL     1       2.386   7.081  18.219  0.00  0.00    +0.000 N 
ATOM      4  H   UNL     1       2.225   7.762  17.491  0.00  0.00    +0.000 HD
ENDROOT
BRANCH   3   5
ATOM      5  C   UNL     1       2.949   5.831  17.829  0.00  0.00    +0.000 A 
ATOM      6  C   UNL     1       2.177   4.670  17.836  0.00  0.00    +0.000 A 
ATOM      7  C   UNL     1       2.764   3.471  17.495  0.00  0.00    +0.000 A 
ATOM      8  N   UNL     1       4.053   3.347  17.141  0.00  0.00    +0.000 NA
ATOM      9  C   UNL     1       4.800   4.455  17.101  0.00  0.00    +0.000 A 
ATOM     10  C   UNL     1       6.126   4.293  16.730  0.00  0.00    +0.000 A 
ATOM     11  C   UNL     1       7.009   5.370  16.638  0.00  0.00    +0.000 A 
ATOM     12  C   UNL     1       6.560   6.652  16.922  0.00  0.00    +0.000 A 
ATOM     13  C   UNL     1       5.228   6.834  17.317  0.00  0.00    +0.000 A 
ATOM     14  C   UNL     1       4.314   5.746  17.420  0.00  0.00    +0.000 A 
BRANCH  12  15
ATOM     15  O   UNL     1       7.310   7.793  16.858  0.00  0.00    +0.000 OA
ATOM     16  C   UNL     1       8.131   8.083  17.986  0.00  0.00    +0.000 C 
ENDBRANCH  12  15
ENDBRANCH   3   5
BRANCH   1  17
ATOM     17  C   UNL     1       1.520   8.871  19.620  0.00  0.00    +0.000 C 
BRANCH  17  21
ATOM     18  N   UNL     1      -0.135  12.082  18.677  0.00  0.00    +0.000 NA
ATOM     19  C   UNL     1       1.289  11.959  19.026  0.00  0.00    +0.000 C 
ATOM     20  C   UNL     1       1.981  10.923  18.143  0.00  0.00    +0.000 C 
ATOM     21  C   UNL     1       1.324   9.539  18.249  0.00  0.00    +0.000 C 
ATOM     22  C   UNL     1      -0.170   9.704  17.930  0.00  0.00    +0.000 C 
ATOM     23  C   UNL     1      -0.838  10.794  18.777  0.00  0.00    +0.000 C 
BRANCH  18  24
ATOM     24  C   UNL     1      -0.818  13.095  19.503  0.00  0.00    +0.000 C 
BRANCH  24  25
ATOM     25  C   UNL     1      -1.422  12.552  20.806  0.00  0.00    +0.000 C 
BRANCH  25  26
ATOM     26  C   UNL     1      -0.585  12.899  22.038  0.00  0.00    +0.000 C 
BRANCH  26  27
ATOM     27  C   UNL     1      -1.482  13.134  23.252  0.00  0.00    +0.000 C 
BRANCH  27  28
ATOM     28  C   UNL     1      -2.657  12.158  23.263  0.00  0.00    +0.000 C 
BRANCH  28  30
ATOM     29  C   UNL     1      -3.528  14.036  24.687  0.00  0.00    +0.000 C 
ATOM     30  C   UNL     1      -3.894  12.798  23.888  0.00  0.00    +0.000 C 
ENDBRANCH  28  30
ENDBRANCH  27  28
ENDBRANCH  26  27
ENDBRANCH  25  26
ENDBRANCH  24  25
ENDBRANCH  18  24
ENDBRANCH  17  21
ENDBRANCH   1  17
TORSDOF 10
ENDMDL
MODEL 9
REMARK VINA RESULT:      -7.0      5.599      9.668
REMARK  Name = 
REMARK  12 active torsions:
REMARK  status: ('A' for Active; 'I' for Inactive)
REMARK    1  A    between atoms: C_1  and  C_2
REMARK    2  A    between atoms: C_2  and  C_3
REMARK    3  A    between atoms: C_3  and  C_4
REMARK    4  A    between atoms: C_4  and  C_5
REMARK    5  A    between atoms: C_5  and  C_6
REMARK    6  A    between atoms: C_6  and  C_7
REMARK    7  A    between atoms: C_7  and  N_8
REMARK    8  A    between atoms: C_11  and  C_12
REMARK    9  A    between atoms: C_12  and  C_13
REMARK   10  A    between atoms: N_15  and  C_16
REMARK   11  A    between atoms: C_23  and  O_24
REMARK   12  A    between atoms: O_24  and  C_25
REMARK                            x       y       z     vdW  Elec       q    Type
REMARK                         _______ _______ _______ _____ _____    ______ ____
ROOT
ATOM      1  C   UNL     1       7.942   8.430  18.036  0.00  0.00    +0.000 C 
ATOM      2  O   UNL     1       8.586   7.696  18.779  0.00  0.00    +0.000 OA
ATOM      3  N   UNL     1       6.949   8.045  17.150  0.00  0.00    +0.000 N 
ATOM      4  H   UNL     1       6.613   8.753  16.512  0.00  0.00    +0.000 HD
ENDROOT
BRANCH   3   5
ATOM      5  C   UNL     1       6.444   6.723  16.980  0.00  0.00    +0.000 A 
ATOM      6  C   UNL     1       7.248   5.717  16.447  0.00  0.00    +0.000 A 
ATOM      7  C   UNL     1       6.715   4.461  16.256  0.00  0.00    +0.000 A 
ATOM      8  N   UNL     1       5.451   4.135  16.565  0.00  0.00    +0.000 NA
ATOM      9  C   UNL     1       4.674   5.080  17.105  0.00  0.00    +0.000 A 
ATOM     10  C   UNL     1       3.375   4.709  17.414  0.00  0.00    +0.000 A 
ATOM     11  C   UNL     1       2.466   5.597  17.991  0.00  0.00    +0.000 A 
ATOM     12  C   UNL     1       2.862   6.896  18.274  0.00  0.00    +0.000 A 
ATOM     13  C   UNL     1       4.166   7.296  17.952  0.00  0.00    +0.000 A 
ATOM     14  C   UNL     1       5.105   6.404  17.358  0.00  0.00    +0.000 A 
BRANCH  12  15
ATOM     15  O   UNL     1       2.083   7.861  18.850  0.00  0.00    +0.000 OA
ATOM     16  C   UNL     1       1.840   7.736  20.249  0.00  0.00    +0.000 C 
ENDBRANCH  12  15
ENDBRANCH   3   5
BRANCH   1  17
ATOM     17  C   UNL     1       8.260   9.911  17.999  0.00  0.00    +0.000 C 
BRANCH  17  21
ATOM     18  N   UNL     1       9.666  13.169  19.159  0.00  0.00    +0.000 NA
ATOM     19  C   UNL     1       8.849  12.278  19.998  0.00  0.00    +0.000 C 
ATOM     20  C   UNL     1       9.455  10.876  20.059  0.00  0.00    +0.000 C 
ATOM     21  C   UNL     1       9.604  10.247  18.667  0.00  0.00    +0.000 C 
ATOM     22  C   UNL     1      10.416  11.220  17.797  0.00  0.00    +0.000 C 
ATOM     23  C   UNL     1       9.835  12.639  17.798  0.00  0.00    +0.000 C 
BRANCH  18  24
ATOM     24  C   UNL     1       9.111  14.534  19.105  0.00  0.00    +0.000 C 
BRANCH  24  25
ATOM     25  C   UNL     1       7.683  14.662  19.655  0.00  0.00    +0.000 C 
BRANCH  25  26
ATOM     26  C   UNL     1       6.752  15.433  18.717  0.00  0.00    +0.000 C 
BRANCH  26  27
ATOM     27  C   UNL     1       5.976  14.473  17.818  0.00  0.00    +0.000 C 
BRANCH  27  28
ATOM     28  C   UNL     1       4.479  14.778  17.853  0.00  0.00    +0.000 C 
BRANCH  28  30
ATOM     29  C   UNL     1       2.891  16.722  17.736  0.00  0.00    +0.000 C 
ATOM     30  C   UNL     1       4.225  16.226  18.267  0.00  0.00    +0.000 C 
ENDBRANCH  28  30
ENDBRANCH  27  28
ENDBRANCH  26  27
ENDBRANCH  25  26
ENDBRANCH  24  25
ENDBRANCH  18  24
ENDBRANCH  17  21
ENDBRANCH   1  17
TORSDOF 10
ENDMDL
