MODEL 1
REMARK VINA RESULT:      -7.7      0.000      0.000
REMARK  Name = 
REMARK  6 active torsions:
REMARK  status: ('A' for Active; 'I' for Inactive)
REMARK    1  A    between atoms: C_1  and  O_2
REMARK    2  A    between atoms: O_2  and  C_3
REMARK    3  A    between atoms: N_10  and  C_11
REMARK    4  A    between atoms: C_15  and  N_16
REMARK    5  A    between atoms: C_22  and  O_23
REMARK    6  A    between atoms: O_23  and  C_24
REMARK                            x       y       z     vdW  Elec       q    Type
REMARK                         _______ _______ _______ _____ _____    ______ ____
ROOT
ATOM      1  C   UNL     1       6.334   4.658  16.604  0.00  0.00    +0.000 A 
ATOM      2  C   UNL     1       5.129   3.939  16.510  0.00  0.00    +0.000 A 
ATOM      3  C   UNL     1       4.016   4.235  17.285  0.00  0.00    +0.000 A 
ATOM      4  N   UNL     1       2.877   3.574  17.050  0.00  0.00    +0.000 NA
ATOM      5  C   UNL     1       1.805   3.955  17.751  0.00  0.00    +0.000 A 
ATOM      6  N   UNL     1       1.770   4.929  18.667  0.00  0.00    +0.000 NA
ATOM      7  C   UNL     1       2.924   5.577  18.909  0.00  0.00    +0.000 A 
ATOM      8  N   UNL     1       2.915   6.688  19.786  0.00  0.00    +0.000 N 
ATOM      9  C   UNL     1       4.116   5.246  18.243  0.00  0.00    +0.000 A 
ATOM     10  C   UNL     1       5.359   5.894  18.424  0.00  0.00    +0.000 A 
ATOM     11  C   UNL     1       6.466   5.618  17.611  0.00  0.00    +0.000 A 
ATOM     12  H   UNL     1       3.627   6.615  20.503  0.00  0.00    +0.000 HD
ENDROOT
BRANCH   8  13
ATOM     13  C   UNL     1       1.904   7.632  20.034  0.00  0.00    +0.000 A 
ATOM     14  C   UNL     1       1.187   7.553  21.241  0.00  0.00    +0.000 A 
ATOM     15  C   UNL     1       0.273   8.546  21.612  0.00  0.00    +0.000 A 
ATOM     16  C   UNL     1       0.069   9.650  20.788  0.00  0.00    +0.000 A 
ATOM     17  C   UNL     1       0.778   9.744  19.586  0.00  0.00    +0.000 A 
ATOM     18  C   UNL     1       1.688   8.745  19.212  0.00  0.00    +0.000 A 
BRANCH  17  19
ATOM     19  N   UNL     1       0.599  10.920  18.725  0.00  0.00    +0.000 N 
ATOM     20  O   UNL     1      -0.536  11.134  18.276  0.00  0.00    +0.000 OA
ATOM     21  O   UNL     1       1.586  11.635  18.501  0.00  0.00    +0.000 OA
ENDBRANCH  17  19
ENDBRANCH   8  13
BRANCH   1  23
ATOM     22  C   UNL     1       7.153   4.828  14.385  0.00  0.00    +0.000 C 
ATOM     23  O   UNL     1       7.371   4.425  15.740  0.00  0.00    +0.000 OA
ENDBRANCH   1  23
BRANCH  11  24
ATOM     24  O   UNL     1       7.533   6.401  17.945  0.00  0.00    +0.000 OA
ATOM     25  C   UNL     1       7.590   7.750  17.515  0.00  0.00    +0.000 C 
ENDBRANCH  11  24
TORSDOF 4
ENDMDL
MODEL 2
REMARK VINA RESULT:      -7.6      1.644      2.004
REMARK  Name = 
REMARK  6 active torsions:
REMARK  status: ('A' for Active; 'I' for Inactive)
REMARK    1  A    between atoms: C_1  and  O_2
REMARK    2  A    between atoms: O_2  and  C_3
REMARK    3  A    between atoms: N_10  and  C_11
REMARK    4  A    between atoms: C_15  and  N_16
REMARK    5  A    between atoms: C_22  and  O_23
REMARK    6  A    between atoms: O_23  and  C_24
REMARK                            x       y       z     vdW  Elec       q    Type
REMARK                         _______ _______ _______ _____ _____    ______ ____
ROOT
ATOM      1  C   UNL     1       5.992   4.484  15.937  0.00  0.00    +0.000 A 
ATOM      2  C   UNL     1       4.827   3.766  16.268  0.00  0.00    +0.000 A 
ATOM      3  C   UNL     1       3.845   4.276  17.106  0.00  0.00    +0.000 A 
ATOM      4  N   UNL     1       2.720   3.573  17.275  0.00  0.00    +0.000 NA
ATOM      5  C   UNL     1       1.759   4.142  18.010  0.00  0.00    +0.000 A 
ATOM      6  N   UNL     1       1.826   5.342  18.596  0.00  0.00    +0.000 NA
ATOM      7  C   UNL     1       2.968   6.035  18.435  0.00  0.00    +0.000 A 
ATOM      8  N   UNL     1       3.045   7.356  18.938  0.00  0.00    +0.000 N 
ATOM      9  C   UNL     1       4.049   5.525  17.696  0.00  0.00    +0.000 A 
ATOM     10  C   UNL     1       5.268   6.200  17.461  0.00  0.00    +0.000 A 
ATOM     11  C   UNL     1       6.238   5.699  16.583  0.00  0.00    +0.000 A 
ATOM     12  H   UNL     1       3.869   7.499  19.510  0.00  0.00    +0.000 HD
ENDROOT
BRANCH   8  13
ATOM     13  C   UNL     1       2.041   8.328  19.075  0.00  0.00    +0.000 A 
ATOM     14  C   UNL     1       1.523   8.934  17.916  0.00  0.00    +0.000 A 
ATOM     15  C   UNL     1       0.423   9.799  17.975  0.00  0.00    +0.000 A 
ATOM     16  C   UNL     1      -0.193  10.062  19.195  0.00  0.00    +0.000 A 
ATOM     17  C   UNL     1       0.308   9.463  20.355  0.00  0.00    +0.000 A 
ATOM     18  C   UNL     1       1.413   8.604  20.297  0.00  0.00    +0.000 A 
BRANCH  17  19
ATOM     19  N   UNL     1      -0.354   9.705  21.644  0.00  0.00    +0.000 N 
ATOM     20  O   UNL     1      -0.387   8.770  22.456  0.00  0.00    +0.000 OA
ATOM     21  O   UNL     1      -0.836  10.829  21.851  0.00  0.00    +0.000 OA
ENDBRANCH  17  19
ENDBRANCH   8  13
BRANCH   1  23
ATOM     22  C   UNL     1       6.409   3.964  13.662  0.00  0.00    +0.000 C 
ATOM     23  O   UNL     1       6.882   4.008  15.012  0.00  0.00    +0.000 OA
ENDBRANCH   1  23
BRANCH  11  24
ATOM     24  O   UNL     1       7.302   6.548  16.484  0.00  0.00    +0.000 OA
ATOM     25  C   UNL     1       7.574   7.475  17.520  0.00  0.00    +0.000 C 
ENDBRANCH  11  24
TORSDOF 4
ENDMDL
MODEL 3
REMARK VINA RESULT:      -7.6      3.912      7.897
REMARK  Name = 
REMARK  6 active torsions:
REMARK  status: ('A' for Active; 'I' for Inactive)
REMARK    1  A    between atoms: C_1  and  O_2
REMARK    2  A    between atoms: O_2  and  C_3
REMARK    3  A    between atoms: N_10  and  C_11
REMARK    4  A    between atoms: C_15  and  N_16
REMARK    5  A    between atoms: C_22  and  O_23
REMARK    6  A    between atoms: O_23  and  C_24
REMARK                            x       y       z     vdW  Elec       q    Type
REMARK                         _______ _______ _______ _____ _____    ______ ____
ROOT
ATOM      1  C   UNL     1       2.936   4.310  19.890  0.00  0.00    +0.000 A 
ATOM      2  C   UNL     1       2.918   5.631  19.404  0.00  0.00    +0.000 A 
ATOM      3  C   UNL     1       3.714   6.052  18.348  0.00  0.00    +0.000 A 
ATOM      4  N   UNL     1       3.551   7.293  17.878  0.00  0.00    +0.000 NA
ATOM      5  C   UNL     1       4.266   7.628  16.799  0.00  0.00    +0.000 A 
ATOM      6  N   UNL     1       5.132   6.838  16.156  0.00  0.00    +0.000 NA
ATOM      7  C   UNL     1       5.302   5.596  16.645  0.00  0.00    +0.000 A 
ATOM      8  N   UNL     1       6.121   4.686  15.934  0.00  0.00    +0.000 N 
ATOM      9  C   UNL     1       4.615   5.146  17.785  0.00  0.00    +0.000 A 
ATOM     10  C   UNL     1       4.721   3.852  18.343  0.00  0.00    +0.000 A 
ATOM     11  C   UNL     1       3.888   3.421  19.383  0.00  0.00    +0.000 A 
ATOM     12  H   UNL     1       6.817   4.253  16.529  0.00  0.00    +0.000 HD
ENDROOT
BRANCH   8  13
ATOM     13  C   UNL     1       6.354   4.573  14.553  0.00  0.00    +0.000 A 
ATOM     14  C   UNL     1       7.458   5.242  13.996  0.00  0.00    +0.000 A 
ATOM     15  C   UNL     1       7.828   5.051  12.660  0.00  0.00    +0.000 A 
ATOM     16  C   UNL     1       7.109   4.170  11.856  0.00  0.00    +0.000 A 
ATOM     17  C   UNL     1       6.011   3.494  12.397  0.00  0.00    +0.000 A 
ATOM     18  C   UNL     1       5.637   3.692  13.733  0.00  0.00    +0.000 A 
BRANCH  17  19
ATOM     19  N   UNL     1       5.265   2.537  11.570  0.00  0.00    +0.000 N 
ATOM     20  O   UNL     1       4.138   2.872  11.179  0.00  0.00    +0.000 OA
ATOM     21  O   UNL     1       5.805   1.453  11.302  0.00  0.00    +0.000 OA
ENDBRANCH  17  19
ENDBRANCH   8  13
BRANCH   1  23
ATOM     22  C   UNL     1       0.875   3.239  20.365  0.00  0.00    +0.000 C 
ATOM     23  O   UNL     1       2.052   3.893  20.849  0.00  0.00    +0.000 OA
ENDBRANCH   1  23
BRANCH  11  24
ATOM     24  O   UNL     1       4.145   2.124  19.719  0.00  0.00    +0.000 OA
ATOM     25  C   UNL     1       3.813   1.075  18.826  0.00  0.00    +0.000 C 
ENDBRANCH  11  24
TORSDOF 4
ENDMDL
MODEL 4
REMARK VINA RESULT:      -7.6      3.279      7.599
REMARK  Name = 
REMARK  6 active torsions:
REMARK  status: ('A' for Active; 'I' for Inactive)
REMARK    1  A    between atoms: C_1  and  O_2
REMARK    2  A    between atoms: O_2  and  C_3
REMARK    3  A    between atoms: N_10  and  C_11
REMARK    4  A    between atoms: C_15  and  N_16
REMARK    5  A    between atoms: C_22  and  O_23
REMARK    6  A    between atoms: O_23  and  C_24
REMARK                            x       y       z     vdW  Elec       q    Type
REMARK                         _______ _______ _______ _____ _____    ______ ____
ROOT
ATOM      1  C   UNL     1       0.051  10.975  19.931  0.00  0.00    +0.000 A 
ATOM      2  C   UNL     1       0.831  10.655  18.805  0.00  0.00    +0.000 A 
ATOM      3  C   UNL     1       1.557   9.476  18.706  0.00  0.00    +0.000 A 
ATOM      4  N   UNL     1       2.179   9.201  17.554  0.00  0.00    +0.000 NA
ATOM      5  C   UNL     1       2.785   8.014  17.466  0.00  0.00    +0.000 A 
ATOM      6  N   UNL     1       2.833   7.083  18.425  0.00  0.00    +0.000 NA
ATOM      7  C   UNL     1       2.219   7.375  19.586  0.00  0.00    +0.000 A 
ATOM      8  N   UNL     1       2.143   6.379  20.591  0.00  0.00    +0.000 N 
ATOM      9  C   UNL     1       1.566   8.601  19.794  0.00  0.00    +0.000 A 
ATOM     10  C   UNL     1       0.879   8.971  20.973  0.00  0.00    +0.000 A 
ATOM     11  C   UNL     1       0.116  10.143  21.052  0.00  0.00    +0.000 A 
ATOM     12  H   UNL     1       2.462   6.719  21.490  0.00  0.00    +0.000 HD
ENDROOT
BRANCH   8  13
ATOM     13  C   UNL     1       2.057   4.982  20.470  0.00  0.00    +0.000 A 
ATOM     14  C   UNL     1       0.787   4.379  20.473  0.00  0.00    +0.000 A 
ATOM     15  C   UNL     1       0.628   3.013  20.209  0.00  0.00    +0.000 A 
ATOM     16  C   UNL     1       1.738   2.224  19.919  0.00  0.00    +0.000 A 
ATOM     17  C   UNL     1       3.008   2.812  19.908  0.00  0.00    +0.000 A 
ATOM     18  C   UNL     1       3.167   4.177  20.179  0.00  0.00    +0.000 A 
BRANCH  17  19
ATOM     19  N   UNL     1       4.183   1.999  19.570  0.00  0.00    +0.000 N 
ATOM     20  O   UNL     1       4.095   1.242  18.592  0.00  0.00    +0.000 OA
ATOM     21  O   UNL     1       5.198   2.119  20.272  0.00  0.00    +0.000 OA
ENDBRANCH  17  19
ENDBRANCH   8  13
BRANCH   1  23
ATOM     22  C   UNL     1      -0.099  13.318  20.264  0.00  0.00    +0.000 C 
ATOM     23  O   UNL     1      -0.752  12.085  19.948  0.00  0.00    +0.000 OA
ENDBRANCH   1  23
BRANCH  11  24
ATOM     24  O   UNL     1      -0.490  10.258  22.269  0.00  0.00    +0.000 OA
ATOM     25  C   UNL     1      -0.058   9.463  23.360  0.00  0.00    +0.000 C 
ENDBRANCH  11  24
TORSDOF 4
ENDMDL
MODEL 5
REMARK VINA RESULT:      -7.4      2.071      2.355
REMARK  Name = 
REMARK  6 active torsions:
REMARK  status: ('A' for Active; 'I' for Inactive)
REMARK    1  A    between atoms: C_1  and  O_2
REMARK    2  A    between atoms: O_2  and  C_3
REMARK    3  A    between atoms: N_10  and  C_11
REMARK    4  A    between atoms: C_15  and  N_16
REMARK    5  A    between atoms: C_22  and  O_23
REMARK    6  A    between atoms: O_23  and  C_24
REMARK                            x       y       z     vdW  Elec       q    Type
REMARK                         _______ _______ _______ _____ _____    ______ ____
ROOT
ATOM      1  C   UNL     1       5.222   4.308  16.558  0.00  0.00    +0.000 A 
ATOM      2  C   UNL     1       4.138   3.612  17.126  0.00  0.00    +0.000 A 
ATOM      3  C   UNL     1       3.312   4.169  18.092  0.00  0.00    +0.000 A 
ATOM      4  N   UNL     1       2.239   3.479  18.493  0.00  0.00    +0.000 NA
ATOM      5  C   UNL     1       1.416   4.090  19.351  0.00  0.00    +0.000 A 
ATOM      6  N   UNL     1       1.572   5.321  19.847  0.00  0.00    +0.000 NA
ATOM      7  C   UNL     1       2.663   6.003  19.451  0.00  0.00    +0.000 A 
ATOM      8  N   UNL     1       2.815   7.350  19.858  0.00  0.00    +0.000 N 
ATOM      9  C   UNL     1       3.604   5.450  18.566  0.00  0.00    +0.000 A 
ATOM     10  C   UNL     1       4.758   6.109  18.085  0.00  0.00    +0.000 A 
ATOM     11  C   UNL     1       5.565   5.557  17.082  0.00  0.00    +0.000 A 
ATOM     12  H   UNL     1       3.724   7.525  20.269  0.00  0.00    +0.000 HD
ENDROOT
BRANCH   8  13
ATOM     13  C   UNL     1       1.841   8.330  20.112  0.00  0.00    +0.000 A 
ATOM     14  C   UNL     1       1.159   8.904  19.025  0.00  0.00    +0.000 A 
ATOM     15  C   UNL     1       0.079   9.774  19.218  0.00  0.00    +0.000 A 
ATOM     16  C   UNL     1      -0.352  10.075  20.507  0.00  0.00    +0.000 A 
ATOM     17  C   UNL     1       0.315   9.509  21.599  0.00  0.00    +0.000 A 
ATOM     18  C   UNL     1       1.400   8.643  21.404  0.00  0.00    +0.000 A 
BRANCH  17  19
ATOM     19  N   UNL     1      -0.152   9.790  22.963  0.00  0.00    +0.000 N 
ATOM     20  O   UNL     1       0.605   9.496  23.900  0.00  0.00    +0.000 OA
ATOM     21  O   UNL     1      -1.268  10.312  23.102  0.00  0.00    +0.000 OA
ENDBRANCH  17  19
ENDBRANCH   8  13
BRANCH   1  23
ATOM     22  C   UNL     1       5.566   4.225  14.214  0.00  0.00    +0.000 C 
ATOM     23  O   UNL     1       5.942   3.779  15.520  0.00  0.00    +0.000 OA
ENDBRANCH   1  23
BRANCH  11  24
ATOM     24  O   UNL     1       6.588   6.398  16.751  0.00  0.00    +0.000 OA
ATOM     25  C   UNL     1       7.484   6.858  17.748  0.00  0.00    +0.000 C 
ENDBRANCH  11  24
TORSDOF 4
ENDMDL
MODEL 6
REMARK VINA RESULT:      -7.3      1.128      1.183
REMARK  Name = 
REMARK  6 active torsions:
REMARK  status: ('A' for Active; 'I' for Inactive)
REMARK    1  A    between atoms: C_1  and  O_2
REMARK    2  A    between atoms: O_2  and  C_3
REMARK    3  A    between atoms: N_10  and  C_11
REMARK    4  A    between atoms: C_15  and  N_16
REMARK    5  A    between atoms: C_22  and  O_23
REMARK    6  A    between atoms: O_23  and  C_24
REMARK                            x       y       z     vdW  Elec       q    Type
REMARK                         _______ _______ _______ _____ _____    ______ ____
ROOT
ATOM      1  C   UNL     1       5.227   4.363  16.633  0.00  0.00    +0.000 A 
ATOM      2  C   UNL     1       4.274   3.577  17.306  0.00  0.00    +0.000 A 
ATOM      3  C   UNL     1       3.443   4.088  18.294  0.00  0.00    +0.000 A 
ATOM      4  N   UNL     1       2.490   3.298  18.800  0.00  0.00    +0.000 NA
ATOM      5  C   UNL     1       1.649   3.856  19.676  0.00  0.00    +0.000 A 
ATOM      6  N   UNL     1       1.680   5.125  20.096  0.00  0.00    +0.000 NA
ATOM      7  C   UNL     1       2.652   5.908  19.594  0.00  0.00    +0.000 A 
ATOM      8  N   UNL     1       2.659   7.286  19.918  0.00  0.00    +0.000 N 
ATOM      9  C   UNL     1       3.601   5.420  18.679  0.00  0.00    +0.000 A 
ATOM     10  C   UNL     1       4.634   6.184  18.089  0.00  0.00    +0.000 A 
ATOM     11  C   UNL     1       5.443   5.674  17.066  0.00  0.00    +0.000 A 
ATOM     12  H   UNL     1       3.562   7.594  20.259  0.00  0.00    +0.000 HD
ENDROOT
BRANCH   8  13
ATOM     13  C   UNL     1       1.587   8.155  20.183  0.00  0.00    +0.000 A 
ATOM     14  C   UNL     1       1.105   8.252  21.500  0.00  0.00    +0.000 A 
ATOM     15  C   UNL     1       0.141   9.204  21.855  0.00  0.00    +0.000 A 
ATOM     16  C   UNL     1      -0.348  10.091  20.901  0.00  0.00    +0.000 A 
ATOM     17  C   UNL     1       0.125  10.009  19.587  0.00  0.00    +0.000 A 
ATOM     18  C   UNL     1       1.085   9.051  19.231  0.00  0.00    +0.000 A 
BRANCH  17  19
ATOM     19  N   UNL     1      -0.356  10.962  18.578  0.00  0.00    +0.000 N 
ATOM     20  O   UNL     1      -1.142  10.538  17.719  0.00  0.00    +0.000 OA
ATOM     21  O   UNL     1       0.041  12.134  18.646  0.00  0.00    +0.000 OA
ENDBRANCH  17  19
ENDBRANCH   8  13
BRANCH   1  23
ATOM     22  C   UNL     1       5.518   4.285  14.281  0.00  0.00    +0.000 C 
ATOM     23  O   UNL     1       5.946   3.863  15.579  0.00  0.00    +0.000 OA
ENDBRANCH   1  23
BRANCH  11  24
ATOM     24  O   UNL     1       6.332   6.611  16.625  0.00  0.00    +0.000 OA
ATOM     25  C   UNL     1       7.441   6.976  17.429  0.00  0.00    +0.000 C 
ENDBRANCH  11  24
TORSDOF 4
ENDMDL
MODEL 7
REMARK VINA RESULT:      -7.1      2.120      7.318
REMARK  Name = 
REMARK  6 active torsions:
REMARK  status: ('A' for Active; 'I' for Inactive)
REMARK    1  A    between atoms: C_1  and  O_2
REMARK    2  A    between atoms: O_2  and  C_3
REMARK    3  A    between atoms: N_10  and  C_11
REMARK    4  A    between atoms: C_15  and  N_16
REMARK    5  A    between atoms: C_22  and  O_23
REMARK    6  A    between atoms: O_23  and  C_24
REMARK                            x       y       z     vdW  Elec       q    Type
REMARK                         _______ _______ _______ _____ _____    ______ ____
ROOT
ATOM      1  C   UNL     1       0.759   9.414  20.400  0.00  0.00    +0.000 A 
ATOM      2  C   UNL     1       0.860   8.140  20.990  0.00  0.00    +0.000 A 
ATOM      3  C   UNL     1       1.582   7.103  20.416  0.00  0.00    +0.000 A 
ATOM      4  N   UNL     1       1.718   5.962  21.100  0.00  0.00    +0.000 NA
ATOM      5  C   UNL     1       2.501   5.024  20.558  0.00  0.00    +0.000 A 
ATOM      6  N   UNL     1       3.151   5.122  19.394  0.00  0.00    +0.000 NA
ATOM      7  C   UNL     1       2.996   6.267  18.704  0.00  0.00    +0.000 A 
ATOM      8  N   UNL     1       3.752   6.464  17.523  0.00  0.00    +0.000 N 
ATOM      9  C   UNL     1       2.182   7.312  19.172  0.00  0.00    +0.000 A 
ATOM     10  C   UNL     1       1.988   8.551  18.521  0.00  0.00    +0.000 A 
ATOM     11  C   UNL     1       1.291   9.606  19.122  0.00  0.00    +0.000 A 
ATOM     12  H   UNL     1       3.172   6.741  16.740  0.00  0.00    +0.000 HD
ENDROOT
BRANCH   8  13
ATOM     13  C   UNL     1       5.037   6.005  17.189  0.00  0.00    +0.000 A 
ATOM     14  C   UNL     1       5.915   5.638  18.223  0.00  0.00    +0.000 A 
ATOM     15  C   UNL     1       7.150   5.036  17.953  0.00  0.00    +0.000 A 
ATOM     16  C   UNL     1       7.524   4.773  16.638  0.00  0.00    +0.000 A 
ATOM     17  C   UNL     1       6.659   5.129  15.598  0.00  0.00    +0.000 A 
ATOM     18  C   UNL     1       5.426   5.738  15.870  0.00  0.00    +0.000 A 
BRANCH  17  19
ATOM     19  N   UNL     1       7.027   4.825  14.209  0.00  0.00    +0.000 N 
ATOM     20  O   UNL     1       6.422   3.902  13.645  0.00  0.00    +0.000 OA
ATOM     21  O   UNL     1       7.912   5.511  13.677  0.00  0.00    +0.000 OA
ENDBRANCH  17  19
ENDBRANCH   8  13
BRANCH   1  23
ATOM     22  C   UNL     1      -0.287  10.179  22.386  0.00  0.00    +0.000 C 
ATOM     23  O   UNL     1       0.145  10.452  21.050  0.00  0.00    +0.000 OA
ENDBRANCH   1  23
BRANCH  11  24
ATOM     24  O   UNL     1       1.278  10.711  18.322  0.00  0.00    +0.000 OA
ATOM     25  C   UNL     1       2.130  11.808  18.604  0.00  0.00    +0.000 C 
ENDBRANCH  11  24
TORSDOF 4
ENDMDL
MODEL 8
REMARK VINA RESULT:      -7.0      2.885      7.599
REMARK  Name = 
REMARK  6 active torsions:
REMARK  status: ('A' for Active; 'I' for Inactive)
REMARK    1  A    between atoms: C_1  and  O_2
REMARK    2  A    between atoms: O_2  and  C_3
REMARK    3  A    between atoms: N_10  and  C_11
REMARK    4  A    between atoms: C_15  and  N_16
REMARK    5  A    between atoms: C_22  and  O_23
REMARK    6  A    between atoms: O_23  and  C_24
REMARK                            x       y       z     vdW  Elec       q    Type
REMARK                         _______ _______ _______ _____ _____    ______ ____
ROOT
ATOM      1  C   UNL     1      -0.243  10.902  19.948  0.00  0.00    +0.000 A 
ATOM      2  C   UNL     1       0.609  10.707  18.845  0.00  0.00    +0.000 A 
ATOM      3  C   UNL     1       1.428   9.593  18.717  0.00  0.00    +0.000 A 
ATOM      4  N   UNL     1       2.119   9.433  17.584  0.00  0.00    +0.000 NA
ATOM      5  C   UNL     1       2.818   8.300  17.460  0.00  0.00    +0.000 A 
ATOM      6  N   UNL     1       2.893   7.321  18.366  0.00  0.00    +0.000 NA
ATOM      7  C   UNL     1       2.207   7.497  19.511  0.00  0.00    +0.000 A 
ATOM      8  N   UNL     1       2.161   6.441  20.453  0.00  0.00    +0.000 N 
ATOM      9  C   UNL     1       1.453   8.658  19.754  0.00  0.00    +0.000 A 
ATOM     10  C   UNL     1       0.688   8.906  20.916  0.00  0.00    +0.000 A 
ATOM     11  C   UNL     1      -0.165  10.012  21.022  0.00  0.00    +0.000 A 
ATOM     12  H   UNL     1       2.413   6.749  21.384  0.00  0.00    +0.000 HD
ENDROOT
BRANCH   8  13
ATOM     13  C   UNL     1       2.188   5.051  20.250  0.00  0.00    +0.000 A 
ATOM     14  C   UNL     1       1.228   4.254  20.898  0.00  0.00    +0.000 A 
ATOM     15  C   UNL     1       1.110   2.886  20.623  0.00  0.00    +0.000 A 
ATOM     16  C   UNL     1       1.941   2.290  19.678  0.00  0.00    +0.000 A 
ATOM     17  C   UNL     1       2.897   3.072  19.022  0.00  0.00    +0.000 A 
ATOM     18  C   UNL     1       3.020   4.439  19.303  0.00  0.00    +0.000 A 
BRANCH  17  19
ATOM     19  N   UNL     1       3.756   2.463  17.997  0.00  0.00    +0.000 N 
ATOM     20  O   UNL     1       3.880   1.230  18.012  0.00  0.00    +0.000 OA
ATOM     21  O   UNL     1       4.301   3.212  17.173  0.00  0.00    +0.000 OA
ENDBRANCH  17  19
ENDBRANCH   8  13
BRANCH   1  23
ATOM     22  C   UNL     1      -2.264  11.830  19.124  0.00  0.00    +0.000 C 
ATOM     23  O   UNL     1      -1.128  11.947  19.987  0.00  0.00    +0.000 OA
ENDBRANCH   1  23
BRANCH  11  24
ATOM     24  O   UNL     1      -0.832  10.010  22.212  0.00  0.00    +0.000 OA
ATOM     25  C   UNL     1      -0.924  11.197  22.981  0.00  0.00    +0.000 C 
ENDBRANCH  11  24
TORSDOF 4
ENDMDL
MODEL 9
REMARK VINA RESULT:      -6.8      3.318      7.906
REMARK  Name = 
REMARK  6 active torsions:
REMARK  status: ('A' for Active; 'I' for Inactive)
REMARK    1  A    between atoms: C_1  and  O_2
REMARK    2  A    between atoms: O_2  and  C_3
REMARK    3  A    between atoms: N_10  and  C_11
REMARK    4  A    between atoms: C_15  and  N_16
REMARK    5  A    between atoms: C_22  and  O_23
REMARK    6  A    between atoms: O_23  and  C_24
REMARK                            x       y       z     vdW  Elec       q    Type
REMARK                         _______ _______ _______ _____ _____    ______ ____
ROOT
ATOM      1  C   UNL     1       2.718   5.152  19.511  0.00  0.00    +0.000 A 
ATOM      2  C   UNL     1       4.049   5.548  19.734  0.00  0.00    +0.000 A 
ATOM      3  C   UNL     1       5.086   5.212  18.874  0.00  0.00    +0.000 A 
ATOM      4  N   UNL     1       6.299   5.725  19.102  0.00  0.00    +0.000 NA
ATOM      5  C   UNL     1       7.246   5.458  18.198  0.00  0.00    +0.000 A 
ATOM      6  N   UNL     1       7.091   4.720  17.094  0.00  0.00    +0.000 NA
ATOM      7  C   UNL     1       5.871   4.194  16.880  0.00  0.00    +0.000 A 
ATOM      8  N   UNL     1       5.626   3.501  15.670  0.00  0.00    +0.000 N 
ATOM      9  C   UNL     1       4.808   4.396  17.776  0.00  0.00    +0.000 A 
ATOM     10  C   UNL     1       3.495   3.900  17.610  0.00  0.00    +0.000 A 
ATOM     11  C   UNL     1       2.446   4.273  18.459  0.00  0.00    +0.000 A 
ATOM     12  H   UNL     1       5.215   2.589  15.829  0.00  0.00    +0.000 HD
ENDROOT
BRANCH   8  13
ATOM     13  C   UNL     1       6.169   3.702  14.390  0.00  0.00    +0.000 A 
ATOM     14  C   UNL     1       5.633   2.985  13.307  0.00  0.00    +0.000 A 
ATOM     15  C   UNL     1       6.029   3.248  11.990  0.00  0.00    +0.000 A 
ATOM     16  C   UNL     1       6.960   4.250  11.729  0.00  0.00    +0.000 A 
ATOM     17  C   UNL     1       7.499   4.975  12.796  0.00  0.00    +0.000 A 
ATOM     18  C   UNL     1       7.107   4.706  14.115  0.00  0.00    +0.000 A 
BRANCH  17  19
ATOM     19  N   UNL     1       8.456   6.058  12.532  0.00  0.00    +0.000 N 
ATOM     20  O   UNL     1       8.255   6.770  11.538  0.00  0.00    +0.000 OA
ATOM     21  O   UNL     1       9.403   6.204  13.318  0.00  0.00    +0.000 OA
ENDBRANCH  17  19
ENDBRANCH   8  13
BRANCH   1  23
ATOM     22  C   UNL     1       1.694   7.007  20.575  0.00  0.00    +0.000 C 
ATOM     23  O   UNL     1       1.699   5.601  20.309  0.00  0.00    +0.000 OA
ENDBRANCH   1  23
BRANCH  11  24
ATOM     24  O   UNL     1       1.267   3.705  18.070  0.00  0.00    +0.000 OA
ATOM     25  C   UNL     1       0.837   2.485  18.649  0.00  0.00    +0.000 C 
ENDBRANCH  11  24
TORSDOF 4
ENDMDL
