MODEL 1
REMARK VINA RESULT:      -9.2      0.000      0.000
REMARK  Name = 
REMARK  7 active torsions:
REMARK  status: ('A' for Active; 'I' for Inactive)
REMARK    1  A    between atoms: C_1  and  C_2
REMARK    2  A    between atoms: C_7  and  C_8
REMARK    3  A    between atoms: C_14  and  O_15
REMARK    4  A    between atoms: C_19  and  O_20
REMARK    5  A    between atoms: C_21  and  O_22
REMARK    6  A    between atoms: C_26  and  C_27
REMARK    7  A    between atoms: C_27  and  O_29
REMARK                            x       y       z     vdW  Elec       q    Type
REMARK                         _______ _______ _______ _____ _____    ______ ____
ROOT
ATOM      1  C   UNL     1       3.470   5.213  18.746  0.00  0.00    +0.000 A 
ATOM      2  C   UNL     1       4.289   5.208  17.651  0.00  0.00    +0.000 A 
ATOM      3  C   UNL     1       5.155   4.076  17.303  0.00  0.00    +0.000 A 
ATOM      4  C   UNL     1       5.907   4.033  16.197  0.00  0.00    +0.000 A 
ATOM      5  C   UNL     1       5.915   5.169  15.264  0.00  0.00    +0.000 A 
ATOM      6  O   UNL     1       6.560   5.150  14.220  0.00  0.00    +0.000 OA
ATOM      7  C   UNL     1       5.114   6.368  15.628  0.00  0.00    +0.000 A 
ATOM      8  C   UNL     1       4.363   6.370  16.744  0.00  0.00    +0.000 A 
ATOM      9  O   UNL     1       3.609   7.500  17.000  0.00  0.00    +0.000 OA
ATOM     10  C   UNL     1       2.864   7.570  18.139  0.00  0.00    +0.000 A 
ATOM     11  C   UNL     1       2.195   8.785  18.334  0.00  0.00    +0.000 A 
ATOM     12  C   UNL     1       1.429   8.992  19.466  0.00  0.00    +0.000 A 
ATOM     13  C   UNL     1       1.359   8.011  20.431  0.00  0.00    +0.000 A 
ATOM     14  C   UNL     1       2.034   6.796  20.231  0.00  0.00    +0.000 A 
ATOM     15  C   UNL     1       2.771   6.519  19.056  0.00  0.00    +0.000 A 
ENDROOT
BRANCH   1  22
ATOM     16  C   UNL     1       1.131   2.282  22.437  0.00  0.00    +0.000 C 
ATOM     17  C   UNL     1       2.062   2.670  21.302  0.00  0.00    +0.000 C 
ATOM     18  C   UNL     1       1.870   2.000  19.928  0.00  0.00    +0.000 C 
ATOM     19  C   UNL     1       0.622   2.730  19.463  0.00  0.00    +0.000 C 
ATOM     20  C   UNL     1       0.676   3.981  19.943  0.00  0.00    +0.000 C 
ATOM     21  C   UNL     1       1.962   4.103  20.711  0.00  0.00    +0.000 C 
ATOM     22  C   UNL     1       3.189   4.046  19.728  0.00  0.00    +0.000 C 
ATOM     23  C   UNL     1       3.150   2.552  19.206  0.00  0.00    +0.000 C 
BRANCH  23  24
ATOM     24  C   UNL     1       4.407   1.787  19.665  0.00  0.00    +0.000 C 
ATOM     25  O   UNL     1       5.184   2.160  20.534  0.00  0.00    +0.000 OA
BRANCH  24  26
ATOM     26  O   UNL     1       4.596   0.624  19.011  0.00  0.00    +0.000 OA
ATOM     27  H   UNL     1       3.994   0.461  18.262  0.00  0.00    +0.000 HD
ENDBRANCH  24  26
ENDBRANCH  23  24
ENDBRANCH   1  22
BRANCH   7  28
ATOM     28  O   UNL     1       5.176   7.449  14.762  0.00  0.00    +0.000 OA
ATOM     29  H   UNL     1       4.263   7.543  14.411  0.00  0.00    +0.000 HD
ENDBRANCH   7  28
BRANCH  11  30
ATOM     30  O   UNL     1       2.281   9.807  17.422  0.00  0.00    +0.000 OA
ATOM     31  H   UNL     1       1.711  10.523  17.767  0.00  0.00    +0.000 HD
ENDBRANCH  11  30
BRANCH  12  32
ATOM     32  O   UNL     1       0.748  10.160  19.640  0.00  0.00    +0.000 OA
ATOM     33  H   UNL     1      -0.066  10.052  19.109  0.00  0.00    +0.000 HD
ENDBRANCH  12  32
TORSDOF 6
ENDMDL
MODEL 2
REMARK VINA RESULT:      -8.0      7.145     10.690
REMARK  Name = 
REMARK  7 active torsions:
REMARK  status: ('A' for Active; 'I' for Inactive)
REMARK    1  A    between atoms: C_1  and  C_2
REMARK    2  A    between atoms: C_7  and  C_8
REMARK    3  A    between atoms: C_14  and  O_15
REMARK    4  A    between atoms: C_19  and  O_20
REMARK    5  A    between atoms: C_21  and  O_22
REMARK    6  A    between atoms: C_26  and  C_27
REMARK    7  A    between atoms: C_27  and  O_29
REMARK                            x       y       z     vdW  Elec       q    Type
REMARK                         _______ _______ _______ _____ _____    ______ ____
ROOT
ATOM      1  C   UNL     1      -1.966  12.167  19.598  0.00  0.00    +0.000 A 
ATOM      2  C   UNL     1      -2.837  12.612  20.554  0.00  0.00    +0.000 A 
ATOM      3  C   UNL     1      -2.411  13.033  21.893  0.00  0.00    +0.000 A 
ATOM      4  C   UNL     1      -3.246  13.536  22.811  0.00  0.00    +0.000 A 
ATOM      5  C   UNL     1      -4.679  13.668  22.512  0.00  0.00    +0.000 A 
ATOM      6  O   UNL     1      -5.467  14.161  23.313  0.00  0.00    +0.000 OA
ATOM      7  C   UNL     1      -5.160  13.172  21.195  0.00  0.00    +0.000 A 
ATOM      8  C   UNL     1      -4.289  12.683  20.295  0.00  0.00    +0.000 A 
ATOM      9  O   UNL     1      -4.797  12.280  19.074  0.00  0.00    +0.000 OA
ATOM     10  C   UNL     1      -3.963  11.737  18.143  0.00  0.00    +0.000 A 
ATOM     11  C   UNL     1      -4.593  11.298  16.970  0.00  0.00    +0.000 A 
ATOM     12  C   UNL     1      -3.860  10.703  15.960  0.00  0.00    +0.000 A 
ATOM     13  C   UNL     1      -2.508  10.498  16.127  0.00  0.00    +0.000 A 
ATOM     14  C   UNL     1      -1.883  10.938  17.306  0.00  0.00    +0.000 A 
ATOM     15  C   UNL     1      -2.584  11.613  18.333  0.00  0.00    +0.000 A 
ENDROOT
BRANCH   1  22
ATOM     16  C   UNL     1       3.061  13.566  18.922  0.00  0.00    +0.000 C 
ATOM     17  C   UNL     1       1.843  12.839  19.465  0.00  0.00    +0.000 C 
ATOM     18  C   UNL     1       1.454  13.051  20.941  0.00  0.00    +0.000 C 
ATOM     19  C   UNL     1       0.866  14.450  20.848  0.00  0.00    +0.000 C 
ATOM     20  C   UNL     1       0.271  14.565  19.651  0.00  0.00    +0.000 C 
ATOM     21  C   UNL     1       0.437  13.248  18.947  0.00  0.00    +0.000 C 
ATOM     22  C   UNL     1      -0.418  12.138  19.664  0.00  0.00    +0.000 C 
ATOM     23  C   UNL     1       0.322  11.969  21.053  0.00  0.00    +0.000 C 
BRANCH  23  24
ATOM     24  C   UNL     1       0.930  10.557  21.174  0.00  0.00    +0.000 C 
ATOM     25  O   UNL     1       1.519  10.123  22.154  0.00  0.00    +0.000 OA
BRANCH  24  26
ATOM     26  O   UNL     1       0.757   9.802  20.071  0.00  0.00    +0.000 OA
ATOM     27  H   UNL     1       1.382   9.974  19.342  0.00  0.00    +0.000 HD
ENDBRANCH  24  26
ENDBRANCH  23  24
ENDBRANCH   1  22
BRANCH   7  28
ATOM     28  O   UNL     1      -6.523  13.257  20.954  0.00  0.00    +0.000 OA
ATOM     29  H   UNL     1      -6.700  12.572  20.272  0.00  0.00    +0.000 HD
ENDBRANCH   7  28
BRANCH  11  30
ATOM     30  O   UNL     1      -5.946  11.436  16.787  0.00  0.00    +0.000 OA
ATOM     31  H   UNL     1      -6.362  11.109  17.608  0.00  0.00    +0.000 HD
ENDBRANCH  11  30
BRANCH  12  32
ATOM     32  O   UNL     1      -4.465  10.309  14.804  0.00  0.00    +0.000 OA
ATOM     33  H   UNL     1      -4.478  11.112  14.246  0.00  0.00    +0.000 HD
ENDBRANCH  12  32
TORSDOF 6
ENDMDL
MODEL 3
REMARK VINA RESULT:      -8.0      0.662      4.411
REMARK  Name = 
REMARK  7 active torsions:
REMARK  status: ('A' for Active; 'I' for Inactive)
REMARK    1  A    between atoms: C_1  and  C_2
REMARK    2  A    between atoms: C_7  and  C_8
REMARK    3  A    between atoms: C_14  and  O_15
REMARK    4  A    between atoms: C_19  and  O_20
REMARK    5  A    between atoms: C_21  and  O_22
REMARK    6  A    between atoms: C_26  and  C_27
REMARK    7  A    between atoms: C_27  and  O_29
REMARK                            x       y       z     vdW  Elec       q    Type
REMARK                         _______ _______ _______ _____ _____    ______ ____
ROOT
ATOM      1  C   UNL     1       3.057   5.624  19.026  0.00  0.00    +0.000 A 
ATOM      2  C   UNL     1       2.477   6.857  19.150  0.00  0.00    +0.000 A 
ATOM      3  C   UNL     1       1.544   7.198  20.230  0.00  0.00    +0.000 A 
ATOM      4  C   UNL     1       1.026   8.420  20.400  0.00  0.00    +0.000 A 
ATOM      5  C   UNL     1       1.362   9.502  19.464  0.00  0.00    +0.000 A 
ATOM      6  O   UNL     1       0.938  10.645  19.611  0.00  0.00    +0.000 OA
ATOM      7  C   UNL     1       2.237   9.170  18.308  0.00  0.00    +0.000 A 
ATOM      8  C   UNL     1       2.747   7.933  18.176  0.00  0.00    +0.000 A 
ATOM      9  O   UNL     1       3.589   7.705  17.103  0.00  0.00    +0.000 OA
ATOM     10  C   UNL     1       4.098   6.457  16.900  0.00  0.00    +0.000 A 
ATOM     11  C   UNL     1       4.880   6.319  15.746  0.00  0.00    +0.000 A 
ATOM     12  C   UNL     1       5.431   5.095  15.412  0.00  0.00    +0.000 A 
ATOM     13  C   UNL     1       5.171   3.993  16.197  0.00  0.00    +0.000 A 
ATOM     14  C   UNL     1       4.383   4.137  17.351  0.00  0.00    +0.000 A 
ATOM     15  C   UNL     1       3.860   5.385  17.765  0.00  0.00    +0.000 A 
ENDROOT
BRANCH   1  22
ATOM     16  C   UNL     1       1.123   2.184  22.505  0.00  0.00    +0.000 C 
ATOM     17  C   UNL     1       2.059   2.807  21.484  0.00  0.00    +0.000 C 
ATOM     18  C   UNL     1       2.244   2.102  20.125  0.00  0.00    +0.000 C 
ATOM     19  C   UNL     1       0.919   2.459  19.473  0.00  0.00    +0.000 C 
ATOM     20  C   UNL     1       0.566   3.680  19.903  0.00  0.00    +0.000 C 
ATOM     21  C   UNL     1       1.655   4.154  20.825  0.00  0.00    +0.000 C 
ATOM     22  C   UNL     1       2.973   4.431  20.011  0.00  0.00    +0.000 C 
ATOM     23  C   UNL     1       3.412   2.981  19.551  0.00  0.00    +0.000 C 
BRANCH  23  24
ATOM     24  C   UNL     1       4.755   2.591  20.200  0.00  0.00    +0.000 C 
ATOM     25  O   UNL     1       4.904   1.723  21.050  0.00  0.00    +0.000 OA
BRANCH  24  26
ATOM     26  O   UNL     1       5.800   3.308  19.743  0.00  0.00    +0.000 OA
ATOM     27  H   UNL     1       6.556   3.385  20.355  0.00  0.00    +0.000 HD
ENDBRANCH  24  26
ENDBRANCH  23  24
ENDBRANCH   1  22
BRANCH   7  28
ATOM     28  O   UNL     1       2.499  10.192  17.408  0.00  0.00    +0.000 OA
ATOM     29  H   UNL     1       1.828  10.080  16.699  0.00  0.00    +0.000 HD
ENDBRANCH   7  28
BRANCH  11  30
ATOM     30  O   UNL     1       5.120   7.380  14.910  0.00  0.00    +0.000 OA
ATOM     31  H   UNL     1       4.744   8.164  15.357  0.00  0.00    +0.000 HD
ENDBRANCH  11  30
BRANCH  12  32
ATOM     32  O   UNL     1       6.223   4.968  14.310  0.00  0.00    +0.000 OA
ATOM     33  H   UNL     1       7.009   5.514  14.507  0.00  0.00    +0.000 HD
ENDBRANCH  12  32
TORSDOF 6
ENDMDL
MODEL 4
REMARK VINA RESULT:      -7.8      6.900     11.638
REMARK  Name = 
REMARK  7 active torsions:
REMARK  status: ('A' for Active; 'I' for Inactive)
REMARK    1  A    between atoms: C_1  and  C_2
REMARK    2  A    between atoms: C_7  and  C_8
REMARK    3  A    between atoms: C_14  and  O_15
REMARK    4  A    between atoms: C_19  and  O_20
REMARK    5  A    between atoms: C_21  and  O_22
REMARK    6  A    between atoms: C_26  and  C_27
REMARK    7  A    between atoms: C_27  and  O_29
REMARK                            x       y       z     vdW  Elec       q    Type
REMARK                         _______ _______ _______ _____ _____    ______ ____
ROOT
ATOM      1  C   UNL     1      -3.127  12.668  20.614  0.00  0.00    +0.000 A 
ATOM      2  C   UNL     1      -4.344  12.749  19.995  0.00  0.00    +0.000 A 
ATOM      3  C   UNL     1      -5.516  13.382  20.610  0.00  0.00    +0.000 A 
ATOM      4  C   UNL     1      -6.690  13.528  19.985  0.00  0.00    +0.000 A 
ATOM      5  C   UNL     1      -6.868  13.021  18.617  0.00  0.00    +0.000 A 
ATOM      6  O   UNL     1      -7.917  13.173  17.998  0.00  0.00    +0.000 OA
ATOM      7  C   UNL     1      -5.727  12.298  17.994  0.00  0.00    +0.000 A 
ATOM      8  C   UNL     1      -4.559  12.180  18.649  0.00  0.00    +0.000 A 
ATOM      9  O   UNL     1      -3.526  11.535  17.995  0.00  0.00    +0.000 OA
ATOM     10  C   UNL     1      -2.335  11.351  18.631  0.00  0.00    +0.000 A 
ATOM     11  C   UNL     1      -1.383  10.624  17.905  0.00  0.00    +0.000 A 
ATOM     12  C   UNL     1      -0.144  10.345  18.452  0.00  0.00    +0.000 A 
ATOM     13  C   UNL     1       0.139  10.746  19.739  0.00  0.00    +0.000 A 
ATOM     14  C   UNL     1      -0.821  11.472  20.464  0.00  0.00    +0.000 A 
ATOM     15  C   UNL     1      -2.072  11.837  19.915  0.00  0.00    +0.000 A 
ENDROOT
BRANCH   1  22
ATOM     16  C   UNL     1      -0.822  15.889  24.077  0.00  0.00    +0.000 C 
ATOM     17  C   UNL     1      -1.762  14.838  23.514  0.00  0.00    +0.000 C 
ATOM     18  C   UNL     1      -3.271  15.148  23.461  0.00  0.00    +0.000 C 
ATOM     19  C   UNL     1      -3.288  16.123  22.296  0.00  0.00    +0.000 C 
ATOM     20  C   UNL     1      -2.335  15.744  21.430  0.00  0.00    +0.000 C 
ATOM     21  C   UNL     1      -1.691  14.509  21.997  0.00  0.00    +0.000 C 
ATOM     22  C   UNL     1      -2.703  13.305  21.962  0.00  0.00    +0.000 C 
ATOM     23  C   UNL     1      -3.796  13.735  23.024  0.00  0.00    +0.000 C 
BRANCH  23  24
ATOM     24  C   UNL     1      -3.799  12.761  24.220  0.00  0.00    +0.000 C 
ATOM     25  O   UNL     1      -3.524  11.570  24.162  0.00  0.00    +0.000 OA
BRANCH  24  26
ATOM     26  O   UNL     1      -4.142  13.344  25.385  0.00  0.00    +0.000 OA
ATOM     27  H   UNL     1      -4.250  14.313  25.354  0.00  0.00    +0.000 HD
ENDBRANCH  24  26
ENDBRANCH  23  24
ENDBRANCH   1  22
BRANCH   7  28
ATOM     28  O   UNL     1      -5.932  11.781  16.724  0.00  0.00    +0.000 OA
ATOM     29  H   UNL     1      -5.051  11.825  16.290  0.00  0.00    +0.000 HD
ENDBRANCH   7  28
BRANCH  11  30
ATOM     30  O   UNL     1      -1.644  10.162  16.639  0.00  0.00    +0.000 OA
ATOM     31  H   UNL     1      -2.099   9.305  16.756  0.00  0.00    +0.000 HD
ENDBRANCH  11  30
BRANCH  12  32
ATOM     32  O   UNL     1       0.797   9.671  17.732  0.00  0.00    +0.000 OA
ATOM     33  H   UNL     1       1.651  10.011  18.064  0.00  0.00    +0.000 HD
ENDBRANCH  12  32
TORSDOF 6
ENDMDL
MODEL 5
REMARK VINA RESULT:      -7.7      7.953     11.254
REMARK  Name = 
REMARK  7 active torsions:
REMARK  status: ('A' for Active; 'I' for Inactive)
REMARK    1  A    between atoms: C_1  and  C_2
REMARK    2  A    between atoms: C_7  and  C_8
REMARK    3  A    between atoms: C_14  and  O_15
REMARK    4  A    between atoms: C_19  and  O_20
REMARK    5  A    between atoms: C_21  and  O_22
REMARK    6  A    between atoms: C_26  and  C_27
REMARK    7  A    between atoms: C_27  and  O_29
REMARK                            x       y       z     vdW  Elec       q    Type
REMARK                         _______ _______ _______ _____ _____    ______ ____
ROOT
ATOM      1  C   UNL     1      -2.918  12.331  20.006  0.00  0.00    +0.000 A 
ATOM      2  C   UNL     1      -4.170  12.690  20.423  0.00  0.00    +0.000 A 
ATOM      3  C   UNL     1      -4.447  13.224  21.761  0.00  0.00    +0.000 A 
ATOM      4  C   UNL     1      -5.656  13.643  22.154  0.00  0.00    +0.000 A 
ATOM      5  C   UNL     1      -6.802  13.558  21.237  0.00  0.00    +0.000 A 
ATOM      6  O   UNL     1      -7.916  13.969  21.547  0.00  0.00    +0.000 OA
ATOM      7  C   UNL     1      -6.575  12.943  19.902  0.00  0.00    +0.000 A 
ATOM      8  C   UNL     1      -5.343  12.543  19.539  0.00  0.00    +0.000 A 
ATOM      9  O   UNL     1      -5.195  12.020  18.267  0.00  0.00    +0.000 OA
ATOM     10  C   UNL     1      -3.976  11.561  17.866  0.00  0.00    +0.000 A 
ATOM     11  C   UNL     1      -3.952  10.987  16.588  0.00  0.00    +0.000 A 
ATOM     12  C   UNL     1      -2.782  10.458  16.076  0.00  0.00    +0.000 A 
ATOM     13  C   UNL     1      -1.641  10.454  16.848  0.00  0.00    +0.000 A 
ATOM     14  C   UNL     1      -1.671  11.028  18.130  0.00  0.00    +0.000 A 
ATOM     15  C   UNL     1      -2.830  11.641  18.662  0.00  0.00    +0.000 A 
ENDROOT
BRANCH   1  22
ATOM     16  C   UNL     1       1.464  14.589  21.847  0.00  0.00    +0.000 C 
ATOM     17  C   UNL     1       0.335  13.586  21.687  0.00  0.00    +0.000 C 
ATOM     18  C   UNL     1      -0.669  13.414  22.843  0.00  0.00    +0.000 C 
ATOM     19  C   UNL     1      -1.471  14.694  22.674  0.00  0.00    +0.000 C 
ATOM     20  C   UNL     1      -1.526  14.973  21.363  0.00  0.00    +0.000 C 
ATOM     21  C   UNL     1      -0.783  13.878  20.648  0.00  0.00    +0.000 C 
ATOM     22  C   UNL     1      -1.575  12.524  20.757  0.00  0.00    +0.000 C 
ATOM     23  C   UNL     1      -1.462  12.174  22.296  0.00  0.00    +0.000 C 
BRANCH  23  24
ATOM     24  C   UNL     1      -0.650  10.878  22.498  0.00  0.00    +0.000 C 
ATOM     25  O   UNL     1      -0.222  10.472  23.570  0.00  0.00    +0.000 OA
BRANCH  24  26
ATOM     26  O   UNL     1      -0.438  10.195  21.356  0.00  0.00    +0.000 OA
ATOM     27  H   UNL     1      -0.122  10.727  20.602  0.00  0.00    +0.000 HD
ENDBRANCH  24  26
ENDBRANCH  23  24
ENDBRANCH   1  22
BRANCH   7  28
ATOM     28  O   UNL     1      -7.679  12.824  19.072  0.00  0.00    +0.000 OA
ATOM     29  H   UNL     1      -7.337  12.388  18.259  0.00  0.00    +0.000 HD
ENDBRANCH   7  28
BRANCH  11  30
ATOM     30  O   UNL     1      -5.080  10.924  15.808  0.00  0.00    +0.000 OA
ATOM     31  H   UNL     1      -5.252  11.840  15.512  0.00  0.00    +0.000 HD
ENDBRANCH  11  30
BRANCH  12  32
ATOM     32  O   UNL     1      -2.748   9.934  14.819  0.00  0.00    +0.000 OA
ATOM     33  H   UNL     1      -2.451   9.011  14.944  0.00  0.00    +0.000 HD
ENDBRANCH  12  32
TORSDOF 6
ENDMDL
MODEL 6
REMARK VINA RESULT:      -7.6      6.612     10.685
REMARK  Name = 
REMARK  7 active torsions:
REMARK  status: ('A' for Active; 'I' for Inactive)
REMARK    1  A    between atoms: C_1  and  C_2
REMARK    2  A    between atoms: C_7  and  C_8
REMARK    3  A    between atoms: C_14  and  O_15
REMARK    4  A    between atoms: C_19  and  O_20
REMARK    5  A    between atoms: C_21  and  O_22
REMARK    6  A    between atoms: C_26  and  C_27
REMARK    7  A    between atoms: C_27  and  O_29
REMARK                            x       y       z     vdW  Elec       q    Type
REMARK                         _______ _______ _______ _____ _____    ______ ____
ROOT
ATOM      1  C   UNL     1      -0.533  13.497  20.393  0.00  0.00    +0.000 A 
ATOM      2  C   UNL     1      -1.366  13.527  21.477  0.00  0.00    +0.000 A 
ATOM      3  C   UNL     1      -2.264  12.421  21.829  0.00  0.00    +0.000 A 
ATOM      4  C   UNL     1      -3.031  12.412  22.926  0.00  0.00    +0.000 A 
ATOM      5  C   UNL     1      -3.023  13.561  23.842  0.00  0.00    +0.000 A 
ATOM      6  O   UNL     1      -3.682  13.571  24.878  0.00  0.00    +0.000 OA
ATOM      7  C   UNL     1      -2.189  14.735  23.473  0.00  0.00    +0.000 A 
ATOM      8  C   UNL     1      -1.424  14.703  22.367  0.00  0.00    +0.000 A 
ATOM      9  O   UNL     1      -0.639  15.812  22.106  0.00  0.00    +0.000 OA
ATOM     10  C   UNL     1       0.122  15.847  20.976  0.00  0.00    +0.000 A 
ATOM     11  C   UNL     1       0.822  17.044  20.773  0.00  0.00    +0.000 A 
ATOM     12  C   UNL     1       1.608  17.216  19.649  0.00  0.00    +0.000 A 
ATOM     13  C   UNL     1       1.666  16.220  18.698  0.00  0.00    +0.000 A 
ATOM     14  C   UNL     1       0.960  15.024  18.906  0.00  0.00    +0.000 A 
ATOM     15  C   UNL     1       0.201  14.782  20.075  0.00  0.00    +0.000 A 
ENDROOT
BRANCH   1  22
ATOM     16  C   UNL     1       1.679   9.215  18.281  0.00  0.00    +0.000 C 
ATOM     17  C   UNL     1       0.658  10.307  18.555  0.00  0.00    +0.000 C 
ATOM     18  C   UNL     1      -0.686   9.915  19.200  0.00  0.00    +0.000 C 
ATOM     19  C   UNL     1      -0.220   9.671  20.625  0.00  0.00    +0.000 C 
ATOM     20  C   UNL     1       0.777  10.530  20.884  0.00  0.00    +0.000 C 
ATOM     21  C   UNL     1       0.971  11.365  19.648  0.00  0.00    +0.000 C 
ATOM     22  C   UNL     1      -0.267  12.310  19.432  0.00  0.00    +0.000 C 
ATOM     23  C   UNL     1      -1.427  11.293  19.075  0.00  0.00    +0.000 C 
BRANCH  23  24
ATOM     24  C   UNL     1      -1.918  11.519  17.631  0.00  0.00    +0.000 C 
ATOM     25  O   UNL     1      -2.724  10.811  17.040  0.00  0.00    +0.000 OA
BRANCH  24  26
ATOM     26  O   UNL     1      -1.372  12.600  17.041  0.00  0.00    +0.000 OA
ATOM     27  H   UNL     1      -1.940  13.054  16.391  0.00  0.00    +0.000 HD
ENDBRANCH  24  26
ENDBRANCH  23  24
ENDBRANCH   1  22
BRANCH   7  28
ATOM     28  O   UNL     1      -2.237  15.830  24.323  0.00  0.00    +0.000 OA
ATOM     29  H   UNL     1      -3.171  16.133  24.290  0.00  0.00    +0.000 HD
ENDBRANCH   7  28
BRANCH  11  30
ATOM     30  O   UNL     1       0.749  18.080  21.670  0.00  0.00    +0.000 OA
ATOM     31  H   UNL     1      -0.107  17.976  22.130  0.00  0.00    +0.000 HD
ENDBRANCH  11  30
BRANCH  12  32
ATOM     32  O   UNL     1       2.319  18.365  19.468  0.00  0.00    +0.000 OA
ATOM     33  H   UNL     1       2.338  18.493  18.499  0.00  0.00    +0.000 HD
ENDBRANCH  12  32
TORSDOF 6
ENDMDL
MODEL 7
REMARK VINA RESULT:      -7.5      6.906     11.017
REMARK  Name = 
REMARK  7 active torsions:
REMARK  status: ('A' for Active; 'I' for Inactive)
REMARK    1  A    between atoms: C_1  and  C_2
REMARK    2  A    between atoms: C_7  and  C_8
REMARK    3  A    between atoms: C_14  and  O_15
REMARK    4  A    between atoms: C_19  and  O_20
REMARK    5  A    between atoms: C_21  and  O_22
REMARK    6  A    between atoms: C_26  and  C_27
REMARK    7  A    between atoms: C_27  and  O_29
REMARK                            x       y       z     vdW  Elec       q    Type
REMARK                         _______ _______ _______ _____ _____    ______ ____
ROOT
ATOM      1  C   UNL     1      -2.835  12.594  21.058  0.00  0.00    +0.000 A 
ATOM      2  C   UNL     1      -1.759  11.982  20.478  0.00  0.00    +0.000 A 
ATOM      3  C   UNL     1      -0.433  11.928  21.105  0.00  0.00    +0.000 A 
ATOM      4  C   UNL     1       0.608  11.271  20.578  0.00  0.00    +0.000 A 
ATOM      5  C   UNL     1       0.467  10.575  19.292  0.00  0.00    +0.000 A 
ATOM      6  O   UNL     1       1.387   9.929  18.798  0.00  0.00    +0.000 OA
ATOM      7  C   UNL     1      -0.838  10.681  18.586  0.00  0.00    +0.000 A 
ATOM      8  C   UNL     1      -1.864  11.340  19.152  0.00  0.00    +0.000 A 
ATOM      9  O   UNL     1      -3.062  11.363  18.463  0.00  0.00    +0.000 OA
ATOM     10  C   UNL     1      -4.120  12.054  18.972  0.00  0.00    +0.000 A 
ATOM     11  C   UNL     1      -5.261  12.071  18.160  0.00  0.00    +0.000 A 
ATOM     12  C   UNL     1      -6.393  12.762  18.551  0.00  0.00    +0.000 A 
ATOM     13  C   UNL     1      -6.382  13.477  19.729  0.00  0.00    +0.000 A 
ATOM     14  C   UNL     1      -5.234  13.460  20.537  0.00  0.00    +0.000 A 
ATOM     15  C   UNL     1      -4.081  12.709  20.207  0.00  0.00    +0.000 A 
ENDROOT
BRANCH   1  22
ATOM     16  C   UNL     1      -1.937  15.752  25.170  0.00  0.00    +0.000 C 
ATOM     17  C   UNL     1      -2.610  14.715  24.288  0.00  0.00    +0.000 C 
ATOM     18  C   UNL     1      -3.997  15.035  23.698  0.00  0.00    +0.000 C 
ATOM     19  C   UNL     1      -3.590  16.027  22.621  0.00  0.00    +0.000 C 
ATOM     20  C   UNL     1      -2.390  15.654  22.153  0.00  0.00    +0.000 C 
ATOM     21  C   UNL     1      -1.995  14.407  22.895  0.00  0.00    +0.000 C 
ATOM     22  C   UNL     1      -2.927  13.210  22.478  0.00  0.00    +0.000 C 
ATOM     23  C   UNL     1      -4.330  13.632  23.078  0.00  0.00    +0.000 C 
BRANCH  23  24
ATOM     24  C   UNL     1      -4.767  12.642  24.177  0.00  0.00    +0.000 C 
ATOM     25  O   UNL     1      -4.099  11.701  24.587  0.00  0.00    +0.000 OA
BRANCH  24  26
ATOM     26  O   UNL     1      -5.992  12.900  24.676  0.00  0.00    +0.000 OA
ATOM     27  H   UNL     1      -6.611  12.147  24.677  0.00  0.00    +0.000 HD
ENDBRANCH  24  26
ENDBRANCH  23  24
ENDBRANCH   1  22
BRANCH   7  28
ATOM     28  O   UNL     1      -0.933  10.061  17.349  0.00  0.00    +0.000 OA
ATOM     29  H   UNL     1      -0.858  10.792  16.696  0.00  0.00    +0.000 HD
ENDBRANCH   7  28
BRANCH  11  30
ATOM     30  O   UNL     1      -5.295  11.414  16.955  0.00  0.00    +0.000 OA
ATOM     31  H   UNL     1      -4.375  11.410  16.626  0.00  0.00    +0.000 HD
ENDBRANCH  11  30
BRANCH  12  32
ATOM     32  O   UNL     1      -7.517  12.748  17.780  0.00  0.00    +0.000 OA
ATOM     33  H   UNL     1      -8.243  12.561  18.407  0.00  0.00    +0.000 HD
ENDBRANCH  12  32
TORSDOF 6
ENDMDL
MODEL 8
REMARK VINA RESULT:      -7.5      9.262     11.770
REMARK  Name = 
REMARK  7 active torsions:
REMARK  status: ('A' for Active; 'I' for Inactive)
REMARK    1  A    between atoms: C_1  and  C_2
REMARK    2  A    between atoms: C_7  and  C_8
REMARK    3  A    between atoms: C_14  and  O_15
REMARK    4  A    between atoms: C_19  and  O_20
REMARK    5  A    between atoms: C_21  and  O_22
REMARK    6  A    between atoms: C_26  and  C_27
REMARK    7  A    between atoms: C_27  and  O_29
REMARK                            x       y       z     vdW  Elec       q    Type
REMARK                         _______ _______ _______ _____ _____    ______ ____
ROOT
ATOM      1  C   UNL     1      -4.042  13.139  20.650  0.00  0.00    +0.000 A 
ATOM      2  C   UNL     1      -4.097  12.421  19.487  0.00  0.00    +0.000 A 
ATOM      3  C   UNL     1      -5.350  11.912  18.918  0.00  0.00    +0.000 A 
ATOM      4  C   UNL     1      -5.423  11.269  17.747  0.00  0.00    +0.000 A 
ATOM      5  C   UNL     1      -4.203  11.015  16.966  0.00  0.00    +0.000 A 
ATOM      6  O   UNL     1      -4.235  10.465  15.870  0.00  0.00    +0.000 OA
ATOM      7  C   UNL     1      -2.905  11.442  17.554  0.00  0.00    +0.000 A 
ATOM      8  C   UNL     1      -2.873  12.095  18.729  0.00  0.00    +0.000 A 
ATOM      9  O   UNL     1      -1.637  12.502  19.196  0.00  0.00    +0.000 OA
ATOM     10  C   UNL     1      -1.546  13.129  20.403  0.00  0.00    +0.000 A 
ATOM     11  C   UNL     1      -0.242  13.435  20.813  0.00  0.00    +0.000 A 
ATOM     12  C   UNL     1      -0.013  14.047  22.031  0.00  0.00    +0.000 A 
ATOM     13  C   UNL     1      -1.073  14.316  22.869  0.00  0.00    +0.000 A 
ATOM     14  C   UNL     1      -2.378  14.005  22.454  0.00  0.00    +0.000 A 
ATOM     15  C   UNL     1      -2.660  13.443  21.187  0.00  0.00    +0.000 A 
ENDROOT
BRANCH   1  22
ATOM     16  C   UNL     1      -7.915  16.242  22.398  0.00  0.00    +0.000 C 
ATOM     17  C   UNL     1      -7.054  15.006  22.207  0.00  0.00    +0.000 C 
ATOM     18  C   UNL     1      -7.668  13.781  21.500  0.00  0.00    +0.000 C 
ATOM     19  C   UNL     1      -7.666  14.289  20.068  0.00  0.00    +0.000 C 
ATOM     20  C   UNL     1      -6.588  15.071  19.911  0.00  0.00    +0.000 C 
ATOM     21  C   UNL     1      -5.853  15.077  21.223  0.00  0.00    +0.000 C 
ATOM     22  C   UNL     1      -5.228  13.660  21.502  0.00  0.00    +0.000 C 
ATOM     23  C   UNL     1      -6.504  12.754  21.737  0.00  0.00    +0.000 C 
BRANCH  23  24
ATOM     24  C   UNL     1      -6.532  12.226  23.185  0.00  0.00    +0.000 C 
ATOM     25  O   UNL     1      -7.501  11.717  23.733  0.00  0.00    +0.000 OA
BRANCH  24  26
ATOM     26  O   UNL     1      -5.359  12.371  23.832  0.00  0.00    +0.000 OA
ATOM     27  H   UNL     1      -4.571  12.435  23.262  0.00  0.00    +0.000 HD
ENDBRANCH  24  26
ENDBRANCH  23  24
ENDBRANCH   1  22
BRANCH   7  28
ATOM     28  O   UNL     1      -1.762  11.147  16.827  0.00  0.00    +0.000 OA
ATOM     29  H   UNL     1      -1.847  11.673  16.001  0.00  0.00    +0.000 HD
ENDBRANCH   7  28
BRANCH  11  30
ATOM     30  O   UNL     1       0.846  13.135  20.030  0.00  0.00    +0.000 OA
ATOM     31  H   UNL     1       1.628  13.440  20.531  0.00  0.00    +0.000 HD
ENDBRANCH  11  30
BRANCH  12  32
ATOM     32  O   UNL     1       1.252  14.378  22.415  0.00  0.00    +0.000 OA
ATOM     33  H   UNL     1       1.445  13.784  23.167  0.00  0.00    +0.000 HD
ENDBRANCH  12  32
TORSDOF 6
ENDMDL
MODEL 9
REMARK VINA RESULT:      -7.5      7.088     11.186
REMARK  Name = 
REMARK  7 active torsions:
REMARK  status: ('A' for Active; 'I' for Inactive)
REMARK    1  A    between atoms: C_1  and  C_2
REMARK    2  A    between atoms: C_7  and  C_8
REMARK    3  A    between atoms: C_14  and  O_15
REMARK    4  A    between atoms: C_19  and  O_20
REMARK    5  A    between atoms: C_21  and  O_22
REMARK    6  A    between atoms: C_26  and  C_27
REMARK    7  A    between atoms: C_27  and  O_29
REMARK                            x       y       z     vdW  Elec       q    Type
REMARK                         _______ _______ _______ _____ _____    ______ ____
ROOT
ATOM      1  C   UNL     1      -2.137  12.753  20.651  0.00  0.00    +0.000 A 
ATOM      2  C   UNL     1      -2.442  13.371  21.832  0.00  0.00    +0.000 A 
ATOM      3  C   UNL     1      -1.453  13.615  22.888  0.00  0.00    +0.000 A 
ATOM      4  C   UNL     1      -1.725  14.281  24.017  0.00  0.00    +0.000 A 
ATOM      5  C   UNL     1      -3.081  14.791  24.264  0.00  0.00    +0.000 A 
ATOM      6  O   UNL     1      -3.359  15.440  25.268  0.00  0.00    +0.000 OA
ATOM      7  C   UNL     1      -4.130  14.488  23.254  0.00  0.00    +0.000 A 
ATOM      8  C   UNL     1      -3.815  13.825  22.127  0.00  0.00    +0.000 A 
ATOM      9  O   UNL     1      -4.829  13.616  21.210  0.00  0.00    +0.000 OA
ATOM     10  C   UNL     1      -4.572  12.912  20.072  0.00  0.00    +0.000 A 
ATOM     11  C   UNL     1      -5.684  12.696  19.247  0.00  0.00    +0.000 A 
ATOM     12  C   UNL     1      -5.562  11.972  18.076  0.00  0.00    +0.000 A 
ATOM     13  C   UNL     1      -4.345  11.417  17.741  0.00  0.00    +0.000 A 
ATOM     14  C   UNL     1      -3.235  11.634  18.573  0.00  0.00    +0.000 A 
ATOM     15  C   UNL     1      -3.303  12.427  19.743  0.00  0.00    +0.000 A 
ENDROOT
BRANCH   1  22
ATOM     16  C   UNL     1       2.469  12.850  18.108  0.00  0.00    +0.000 C 
ATOM     17  C   UNL     1       1.390  12.426  19.090  0.00  0.00    +0.000 C 
ATOM     18  C   UNL     1       1.640  12.634  20.596  0.00  0.00    +0.000 C 
ATOM     19  C   UNL     1       1.450  14.140  20.678  0.00  0.00    +0.000 C 
ATOM     20  C   UNL     1       0.511  14.484  19.785  0.00  0.00    +0.000 C 
ATOM     21  C   UNL     1       0.053  13.218  19.116  0.00  0.00    +0.000 C 
ATOM     22  C   UNL     1      -0.739  12.321  20.138  0.00  0.00    +0.000 C 
ATOM     23  C   UNL     1       0.386  11.876  21.159  0.00  0.00    +0.000 C 
BRANCH  23  24
ATOM     24  C   UNL     1       0.600  10.350  21.095  0.00  0.00    +0.000 C 
ATOM     25  O   UNL     1       0.109   9.602  20.260  0.00  0.00    +0.000 OA
BRANCH  24  26
ATOM     26  O   UNL     1       1.403   9.879  22.070  0.00  0.00    +0.000 OA
ATOM     27  H   UNL     1       0.969   9.715  22.928  0.00  0.00    +0.000 HD
ENDBRANCH  24  26
ENDBRANCH  23  24
ENDBRANCH   1  22
BRANCH   7  28
ATOM     28  O   UNL     1      -5.414  14.933  23.532  0.00  0.00    +0.000 OA
ATOM     29  H   UNL     1      -5.999  14.184  23.279  0.00  0.00    +0.000 HD
ENDBRANCH   7  28
BRANCH  11  30
ATOM     30  O   UNL     1      -6.924  13.187  19.571  0.00  0.00    +0.000 OA
ATOM     31  H   UNL     1      -7.426  13.223  18.732  0.00  0.00    +0.000 HD
ENDBRANCH  11  30
BRANCH  12  32
ATOM     32  O   UNL     1      -6.634  11.793  17.254  0.00  0.00    +0.000 OA
ATOM     33  H   UNL     1      -6.371  11.061  16.662  0.00  0.00    +0.000 HD
ENDBRANCH  12  32
TORSDOF 6
ENDMDL
