MODEL 1
REMARK VINA RESULT:      -7.6      0.000      0.000
REMARK  Name = 
REMARK  4 active torsions:
REMARK  status: ('A' for Active; 'I' for Inactive)
REMARK    1  A    between atoms: C_1  and  O_2
REMARK    2  A    between atoms: O_2  and  C_3
REMARK    3  A    between atoms: C_16  and  C_17
REMARK    4  A    between atoms: C_20  and  C_21
REMARK                            x       y       z     vdW  Elec       q    Type
REMARK                         _______ _______ _______ _____ _____    ______ ____
ROOT
ATOM      1  C   UNL     1       1.791   4.777  20.227  0.00  0.00    +0.000 A 
ATOM      2  C   UNL     1       0.762   3.861  20.064  0.00  0.00    +0.000 A 
ATOM      3  C   UNL     1       0.875   2.902  19.046  0.00  0.00    +0.000 A 
ATOM      4  C   UNL     1       1.953   2.887  18.098  0.00  0.00    +0.000 A 
ATOM      5  C   UNL     1       2.996   3.814  18.183  0.00  0.00    +0.000 A 
ATOM      6  C   UNL     1       2.908   4.671  19.363  0.00  0.00    +0.000 A 
ATOM      7  C   UNL     1       4.070   5.546  19.798  0.00  0.00    +0.000 C 
ATOM      8  C   UNL     1       5.295   5.020  19.127  0.00  0.00    +0.000 C 
ATOM      9  N   UNL     1       5.016   5.034  17.722  0.00  0.00    +0.000 N 
ATOM     10  C   UNL     1       4.944   6.291  17.106  0.00  0.00    +0.000 C 
ATOM     11  O   UNL     1       3.941   6.865  16.704  0.00  0.00    +0.000 OA
ATOM     12  C   UNL     1       6.310   6.519  16.606  0.00  0.00    +0.000 C 
ATOM     13  N   UNL     1       6.512   5.567  15.547  0.00  0.00    +0.000 NA
ATOM     14  C   UNL     1       5.862   4.514  15.171  0.00  0.00    +0.000 C 
ATOM     15  C   UNL     1       4.585   3.780  15.890  0.00  0.00    +0.000 C 
ATOM     16  C   UNL     1       4.176   4.091  17.176  0.00  0.00    +0.000 C 
ENDROOT
BRANCH  14  17
ATOM     17  C   UNL     1       6.487   4.150  13.862  0.00  0.00    +0.000 A 
ATOM     18  C   UNL     1       7.199   5.057  13.058  0.00  0.00    +0.000 A 
ATOM     19  C   UNL     1       7.506   4.444  11.844  0.00  0.00    +0.000 A 
ATOM     20  C   UNL     1       6.999   3.172  11.939  0.00  0.00    +0.000 A 
ATOM     21  C   UNL     1       7.021   2.092  10.929  0.00  0.00    +0.000 C 
ATOM     22  O   UNL     1       6.373   2.967  13.164  0.00  0.00    +0.000 OA
ENDBRANCH  14  17
BRANCH   1  24
ATOM     23  C   UNL     1       1.335   7.029  21.006  0.00  0.00    +0.000 C 
ATOM     24  O   UNL     1       1.900   5.732  21.180  0.00  0.00    +0.000 OA
ENDBRANCH   1  24
TORSDOF 2
ENDMDL
MODEL 2
REMARK VINA RESULT:      -7.5      2.050      3.433
REMARK  Name = 
REMARK  4 active torsions:
REMARK  status: ('A' for Active; 'I' for Inactive)
REMARK    1  A    between atoms: C_1  and  O_2
REMARK    2  A    between atoms: O_2  and  C_3
REMARK    3  A    between atoms: C_16  and  C_17
REMARK    4  A    between atoms: C_20  and  C_21
REMARK                            x       y       z     vdW  Elec       q    Type
REMARK                         _______ _______ _______ _____ _____    ______ ____
ROOT
ATOM      1  C   UNL     1       1.353   8.626  20.617  0.00  0.00    +0.000 A 
ATOM      2  C   UNL     1       1.106   9.874  20.065  0.00  0.00    +0.000 A 
ATOM      3  C   UNL     1       1.400  10.074  18.708  0.00  0.00    +0.000 A 
ATOM      4  C   UNL     1       2.040   9.084  17.888  0.00  0.00    +0.000 A 
ATOM      5  C   UNL     1       2.355   7.822  18.402  0.00  0.00    +0.000 A 
ATOM      6  C   UNL     1       1.869   7.619  19.764  0.00  0.00    +0.000 A 
ATOM      7  C   UNL     1       1.851   6.243  20.405  0.00  0.00    +0.000 C 
ATOM      8  C   UNL     1       1.963   5.242  19.304  0.00  0.00    +0.000 C 
ATOM      9  N   UNL     1       3.161   5.566  18.591  0.00  0.00    +0.000 N 
ATOM     10  C   UNL     1       4.374   5.314  19.248  0.00  0.00    +0.000 C 
ATOM     11  O   UNL     1       5.146   6.135  19.723  0.00  0.00    +0.000 OA
ATOM     12  C   UNL     1       4.744   3.960  18.800  0.00  0.00    +0.000 C 
ATOM     13  N   UNL     1       5.065   4.076  17.403  0.00  0.00    +0.000 NA
ATOM     14  C   UNL     1       4.871   5.006  16.527  0.00  0.00    +0.000 C 
ATOM     15  C   UNL     1       4.029   6.405  16.678  0.00  0.00    +0.000 C 
ATOM     16  C   UNL     1       3.192   6.657  17.754  0.00  0.00    +0.000 C 
ENDROOT
BRANCH  14  17
ATOM     17  C   UNL     1       5.671   4.564  15.344  0.00  0.00    +0.000 A 
ATOM     18  C   UNL     1       7.002   4.950  15.113  0.00  0.00    +0.000 A 
ATOM     19  C   UNL     1       7.394   4.499  13.854  0.00  0.00    +0.000 A 
ATOM     20  C   UNL     1       6.308   3.828  13.351  0.00  0.00    +0.000 A 
ATOM     21  C   UNL     1       6.159   3.164  12.038  0.00  0.00    +0.000 C 
ATOM     22  O   UNL     1       5.241   3.851  14.245  0.00  0.00    +0.000 OA
ENDBRANCH  14  17
BRANCH   1  24
ATOM     23  C   UNL     1       0.224   8.961  22.738  0.00  0.00    +0.000 C 
ATOM     24  O   UNL     1       1.083   8.216  21.879  0.00  0.00    +0.000 OA
ENDBRANCH   1  24
TORSDOF 2
ENDMDL
MODEL 3
REMARK VINA RESULT:      -7.3      5.009      8.228
REMARK  Name = 
REMARK  4 active torsions:
REMARK  status: ('A' for Active; 'I' for Inactive)
REMARK    1  A    between atoms: C_1  and  O_2
REMARK    2  A    between atoms: O_2  and  C_3
REMARK    3  A    between atoms: C_16  and  C_17
REMARK    4  A    between atoms: C_20  and  C_21
REMARK                            x       y       z     vdW  Elec       q    Type
REMARK                         _______ _______ _______ _____ _____    ______ ____
ROOT
ATOM      1  C   UNL     1      -1.672  13.149  21.406  0.00  0.00    +0.000 A 
ATOM      2  C   UNL     1      -2.366  12.914  22.584  0.00  0.00    +0.000 A 
ATOM      3  C   UNL     1      -2.044  11.772  23.333  0.00  0.00    +0.000 A 
ATOM      4  C   UNL     1      -1.106  10.780  22.889  0.00  0.00    +0.000 A 
ATOM      5  C   UNL     1      -0.409  10.939  21.687  0.00  0.00    +0.000 A 
ATOM      6  C   UNL     1      -0.661  12.226  21.044  0.00  0.00    +0.000 A 
ATOM      7  C   UNL     1       0.197  12.720  19.891  0.00  0.00    +0.000 C 
ATOM      8  C   UNL     1       1.460  11.925  19.909  0.00  0.00    +0.000 C 
ATOM      9  N   UNL     1       1.068  10.551  19.831  0.00  0.00    +0.000 N 
ATOM     10  C   UNL     1       0.545  10.113  18.606  0.00  0.00    +0.000 C 
ATOM     11  O   UNL     1      -0.620   9.840  18.351  0.00  0.00    +0.000 OA
ATOM     12  C   UNL     1       1.718   9.583  17.890  0.00  0.00    +0.000 C 
ATOM     13  N   UNL     1       2.117   8.398  18.599  0.00  0.00    +0.000 NA
ATOM     14  C   UNL     1       1.806   7.915  19.757  0.00  0.00    +0.000 C 
ATOM     15  C   UNL     1       0.898   8.590  20.944  0.00  0.00    +0.000 C 
ATOM     16  C   UNL     1       0.526   9.924  20.929  0.00  0.00    +0.000 C 
ENDROOT
BRANCH  14  17
ATOM     17  C   UNL     1       2.395   6.541  19.749  0.00  0.00    +0.000 A 
ATOM     18  C   UNL     1       1.909   5.479  20.530  0.00  0.00    +0.000 A 
ATOM     19  C   UNL     1       2.774   4.393  20.410  0.00  0.00    +0.000 A 
ATOM     20  C   UNL     1       3.755   4.801  19.540  0.00  0.00    +0.000 A 
ATOM     21  C   UNL     1       4.942   4.055  19.071  0.00  0.00    +0.000 C 
ATOM     22  O   UNL     1       3.544   6.111  19.120  0.00  0.00    +0.000 OA
ENDBRANCH  14  17
BRANCH   1  24
ATOM     23  C   UNL     1      -2.179  15.497  21.068  0.00  0.00    +0.000 C 
ATOM     24  O   UNL     1      -1.789  14.216  20.581  0.00  0.00    +0.000 OA
ENDBRANCH   1  24
TORSDOF 2
ENDMDL
MODEL 4
REMARK VINA RESULT:      -7.1      5.238      8.690
REMARK  Name = 
REMARK  4 active torsions:
REMARK  status: ('A' for Active; 'I' for Inactive)
REMARK    1  A    between atoms: C_1  and  O_2
REMARK    2  A    between atoms: O_2  and  C_3
REMARK    3  A    between atoms: C_16  and  C_17
REMARK    4  A    between atoms: C_20  and  C_21
REMARK                            x       y       z     vdW  Elec       q    Type
REMARK                         _______ _______ _______ _____ _____    ______ ____
ROOT
ATOM      1  C   UNL     1      -1.938  13.443  21.432  0.00  0.00    +0.000 A 
ATOM      2  C   UNL     1      -2.680  13.246  22.588  0.00  0.00    +0.000 A 
ATOM      3  C   UNL     1      -2.396  12.125  23.381  0.00  0.00    +0.000 A 
ATOM      4  C   UNL     1      -1.448  11.115  23.003  0.00  0.00    +0.000 A 
ATOM      5  C   UNL     1      -0.704  11.234  21.826  0.00  0.00    +0.000 A 
ATOM      6  C   UNL     1      -0.921  12.504  21.136  0.00  0.00    +0.000 A 
ATOM      7  C   UNL     1      -0.015  12.958  20.004  0.00  0.00    +0.000 C 
ATOM      8  C   UNL     1       1.240  12.157  20.095  0.00  0.00    +0.000 C 
ATOM      9  N   UNL     1       0.842  10.783  20.041  0.00  0.00    +0.000 N 
ATOM     10  C   UNL     1       0.364  10.313  18.809  0.00  0.00    +0.000 C 
ATOM     11  O   UNL     1      -0.792  10.040  18.517  0.00  0.00    +0.000 OA
ATOM     12  C   UNL     1       1.559   9.756  18.155  0.00  0.00    +0.000 C 
ATOM     13  N   UNL     1       1.922   8.589  18.913  0.00  0.00    +0.000 NA
ATOM     14  C   UNL     1       1.562   8.142  20.071  0.00  0.00    +0.000 C 
ATOM     15  C   UNL     1       0.614   8.856  21.202  0.00  0.00    +0.000 C 
ATOM     16  C   UNL     1       0.253  10.192  21.134  0.00  0.00    +0.000 C 
ENDROOT
BRANCH  14  17
ATOM     17  C   UNL     1       2.141   6.764  20.126  0.00  0.00    +0.000 A 
ATOM     18  C   UNL     1       3.075   6.273  19.197  0.00  0.00    +0.000 A 
ATOM     19  C   UNL     1       3.284   4.916  19.437  0.00  0.00    +0.000 A 
ATOM     20  C   UNL     1       2.497   4.611  20.519  0.00  0.00    +0.000 A 
ATOM     21  C   UNL     1       2.313   3.305  21.189  0.00  0.00    +0.000 C 
ATOM     22  O   UNL     1       1.789   5.725  20.960  0.00  0.00    +0.000 OA
ENDBRANCH  14  17
BRANCH   1  24
ATOM     23  C   UNL     1      -2.410  15.784  21.007  0.00  0.00    +0.000 C 
ATOM     24  O   UNL     1      -2.015  14.486  20.572  0.00  0.00    +0.000 OA
ENDBRANCH   1  24
TORSDOF 2
ENDMDL
MODEL 5
REMARK VINA RESULT:      -6.7      2.136      3.671
REMARK  Name = 
REMARK  4 active torsions:
REMARK  status: ('A' for Active; 'I' for Inactive)
REMARK    1  A    between atoms: C_1  and  O_2
REMARK    2  A    between atoms: O_2  and  C_3
REMARK    3  A    between atoms: C_16  and  C_17
REMARK    4  A    between atoms: C_20  and  C_21
REMARK                            x       y       z     vdW  Elec       q    Type
REMARK                         _______ _______ _______ _____ _____    ______ ____
ROOT
ATOM      1  C   UNL     1       1.294   8.720  20.722  0.00  0.00    +0.000 A 
ATOM      2  C   UNL     1       1.061  10.006  20.256  0.00  0.00    +0.000 A 
ATOM      3  C   UNL     1       1.371  10.298  18.919  0.00  0.00    +0.000 A 
ATOM      4  C   UNL     1       2.013   9.364  18.039  0.00  0.00    +0.000 A 
ATOM      5  C   UNL     1       2.315   8.067  18.466  0.00  0.00    +0.000 A 
ATOM      6  C   UNL     1       1.813   7.773  19.806  0.00  0.00    +0.000 A 
ATOM      7  C   UNL     1       1.780   6.355  20.348  0.00  0.00    +0.000 C 
ATOM      8  C   UNL     1       1.898   5.432  19.181  0.00  0.00    +0.000 C 
ATOM      9  N   UNL     1       3.106   5.797  18.505  0.00  0.00    +0.000 N 
ATOM     10  C   UNL     1       4.309   5.491  19.155  0.00  0.00    +0.000 C 
ATOM     11  O   UNL     1       5.082   6.272  19.694  0.00  0.00    +0.000 OA
ATOM     12  C   UNL     1       4.676   4.170  18.617  0.00  0.00    +0.000 C 
ATOM     13  N   UNL     1       5.013   4.381  17.235  0.00  0.00    +0.000 NA
ATOM     14  C   UNL     1       4.834   5.372  16.425  0.00  0.00    +0.000 C 
ATOM     15  C   UNL     1       3.999   6.762  16.665  0.00  0.00    +0.000 C 
ATOM     16  C   UNL     1       3.152   6.944  17.746  0.00  0.00    +0.000 C 
ENDROOT
BRANCH  14  17
ATOM     17  C   UNL     1       5.644   5.008  15.221  0.00  0.00    +0.000 A 
ATOM     18  C   UNL     1       5.625   3.736  14.624  0.00  0.00    +0.000 A 
ATOM     19  C   UNL     1       6.604   3.685  13.633  0.00  0.00    +0.000 A 
ATOM     20  C   UNL     1       7.183   4.929  13.627  0.00  0.00    +0.000 A 
ATOM     21  C   UNL     1       8.294   5.426  12.787  0.00  0.00    +0.000 C 
ATOM     22  O   UNL     1       6.612   5.758  14.588  0.00  0.00    +0.000 OA
ENDBRANCH  14  17
BRANCH   1  24
ATOM     23  C   UNL     1       0.335   9.008  22.932  0.00  0.00    +0.000 C 
ATOM     24  O   UNL     1       1.008   8.225  21.949  0.00  0.00    +0.000 OA
ENDBRANCH   1  24
TORSDOF 2
ENDMDL
MODEL 6
REMARK VINA RESULT:      -6.4     10.044     13.000
REMARK  Name = 
REMARK  4 active torsions:
REMARK  status: ('A' for Active; 'I' for Inactive)
REMARK    1  A    between atoms: C_1  and  O_2
REMARK    2  A    between atoms: O_2  and  C_3
REMARK    3  A    between atoms: C_16  and  C_17
REMARK    4  A    between atoms: C_20  and  C_21
REMARK                            x       y       z     vdW  Elec       q    Type
REMARK                         _______ _______ _______ _____ _____    ______ ____
ROOT
ATOM      1  C   UNL     1      10.902  13.850  18.681  0.00  0.00    +0.000 A 
ATOM      2  C   UNL     1      11.663  12.726  18.397  0.00  0.00    +0.000 A 
ATOM      3  C   UNL     1      11.352  11.526  19.054  0.00  0.00    +0.000 A 
ATOM      4  C   UNL     1      10.354  11.428  20.082  0.00  0.00    +0.000 A 
ATOM      5  C   UNL     1       9.586  12.540  20.444  0.00  0.00    +0.000 A 
ATOM      6  C   UNL     1       9.839  13.709  19.606  0.00  0.00    +0.000 A 
ATOM      7  C   UNL     1       8.926  14.922  19.638  0.00  0.00    +0.000 C 
ATOM      8  C   UNL     1       7.640  14.491  20.261  0.00  0.00    +0.000 C 
ATOM      9  N   UNL     1       7.980  13.950  21.543  0.00  0.00    +0.000 N 
ATOM     10  C   UNL     1       8.407  14.862  22.518  0.00  0.00    +0.000 C 
ATOM     11  O   UNL     1       9.543  15.013  22.947  0.00  0.00    +0.000 OA
ATOM     12  C   UNL     1       7.174  15.208  23.245  0.00  0.00    +0.000 C 
ATOM     13  N   UNL     1       6.782  14.020  23.954  0.00  0.00    +0.000 NA
ATOM     14  C   UNL     1       7.151  12.783  23.877  0.00  0.00    +0.000 C 
ATOM     15  C   UNL     1       8.155  12.073  22.793  0.00  0.00    +0.000 C 
ATOM     16  C   UNL     1       8.570  12.711  21.635  0.00  0.00    +0.000 C 
ENDROOT
BRANCH  14  17
ATOM     17  C   UNL     1       6.516  12.139  25.067  0.00  0.00    +0.000 A 
ATOM     18  C   UNL     1       7.158  11.991  26.309  0.00  0.00    +0.000 A 
ATOM     19  C   UNL     1       6.358  11.213  27.144  0.00  0.00    +0.000 A 
ATOM     20  C   UNL     1       5.236  10.923  26.409  0.00  0.00    +0.000 A 
ATOM     21  C   UNL     1       4.064  10.108  26.796  0.00  0.00    +0.000 C 
ATOM     22  O   UNL     1       5.308  11.479  25.136  0.00  0.00    +0.000 OA
ENDBRANCH  14  17
BRANCH   1  24
ATOM     23  C   UNL     1      12.116  15.434  17.300  0.00  0.00    +0.000 C 
ATOM     24  O   UNL     1      11.001  15.076  18.113  0.00  0.00    +0.000 OA
ENDBRANCH   1  24
TORSDOF 2
ENDMDL
MODEL 7
REMARK VINA RESULT:      -6.4      8.569     10.766
REMARK  Name = 
REMARK  4 active torsions:
REMARK  status: ('A' for Active; 'I' for Inactive)
REMARK    1  A    between atoms: C_1  and  O_2
REMARK    2  A    between atoms: O_2  and  C_3
REMARK    3  A    between atoms: C_16  and  C_17
REMARK    4  A    between atoms: C_20  and  C_21
REMARK                            x       y       z     vdW  Elec       q    Type
REMARK                         _______ _______ _______ _____ _____    ______ ____
ROOT
ATOM      1  C   UNL     1      10.391  16.017  21.960  0.00  0.00    +0.000 A 
ATOM      2  C   UNL     1       9.666  16.072  23.141  0.00  0.00    +0.000 A 
ATOM      3  C   UNL     1       9.041  14.901  23.596  0.00  0.00    +0.000 A 
ATOM      4  C   UNL     1       9.026  13.676  22.847  0.00  0.00    +0.000 A 
ATOM      5  C   UNL     1       9.701  13.574  21.627  0.00  0.00    +0.000 A 
ATOM      6  C   UNL     1      10.472  14.770  21.295  0.00  0.00    +0.000 A 
ATOM      7  C   UNL     1      11.493  14.770  20.171  0.00  0.00    +0.000 C 
ATOM      8  C   UNL     1      11.820  13.346  19.871  0.00  0.00    +0.000 C 
ATOM      9  N   UNL     1      10.576  12.707  19.563  0.00  0.00    +0.000 N 
ATOM     10  C   UNL     1       9.971  13.059  18.348  0.00  0.00    +0.000 C 
ATOM     11  O   UNL     1       8.972  13.747  18.188  0.00  0.00    +0.000 OA
ATOM     12  C   UNL     1      10.465  12.046  17.400  0.00  0.00    +0.000 C 
ATOM     13  N   UNL     1       9.866  10.801  17.798  0.00  0.00    +0.000 NA
ATOM     14  C   UNL     1       9.237  10.424  18.863  0.00  0.00    +0.000 C 
ATOM     15  C   UNL     1       9.004  11.241  20.265  0.00  0.00    +0.000 C 
ATOM     16  C   UNL     1       9.687  12.408  20.568  0.00  0.00    +0.000 C 
ENDROOT
BRANCH  14  17
ATOM     17  C   UNL     1       8.681   9.084  18.502  0.00  0.00    +0.000 A 
ATOM     18  C   UNL     1       7.787   8.871  17.438  0.00  0.00    +0.000 A 
ATOM     19  C   UNL     1       7.343   7.550  17.476  0.00  0.00    +0.000 A 
ATOM     20  C   UNL     1       7.989   6.977  18.543  0.00  0.00    +0.000 A 
ATOM     21  C   UNL     1       7.875   5.596  19.058  0.00  0.00    +0.000 C 
ATOM     22  O   UNL     1       8.815   7.895  19.186  0.00  0.00    +0.000 OA
ENDBRANCH  14  17
BRANCH   1  24
ATOM     23  C   UNL     1      10.536  18.285  21.110  0.00  0.00    +0.000 C 
ATOM     24  O   UNL     1      11.112  17.012  21.390  0.00  0.00    +0.000 OA
ENDBRANCH   1  24
TORSDOF 2
ENDMDL
MODEL 8
REMARK VINA RESULT:      -6.4      6.364     11.522
REMARK  Name = 
REMARK  4 active torsions:
REMARK  status: ('A' for Active; 'I' for Inactive)
REMARK    1  A    between atoms: C_1  and  O_2
REMARK    2  A    between atoms: O_2  and  C_3
REMARK    3  A    between atoms: C_16  and  C_17
REMARK    4  A    between atoms: C_20  and  C_21
REMARK                            x       y       z     vdW  Elec       q    Type
REMARK                         _______ _______ _______ _____ _____    ______ ____
ROOT
ATOM      1  C   UNL     1       2.201   8.096  19.007  0.00  0.00    +0.000 A 
ATOM      2  C   UNL     1       2.250   6.935  19.764  0.00  0.00    +0.000 A 
ATOM      3  C   UNL     1       1.486   6.871  20.939  0.00  0.00    +0.000 A 
ATOM      4  C   UNL     1       0.737   7.983  21.451  0.00  0.00    +0.000 A 
ATOM      5  C   UNL     1       0.687   9.196  20.755  0.00  0.00    +0.000 A 
ATOM      6  C   UNL     1       1.360   9.142  19.459  0.00  0.00    +0.000 A 
ATOM      7  C   UNL     1       1.187  10.243  18.428  0.00  0.00    +0.000 C 
ATOM      8  C   UNL     1      -0.034  11.013  18.805  0.00  0.00    +0.000 C 
ATOM      9  N   UNL     1       0.178  11.465  20.147  0.00  0.00    +0.000 N 
ATOM     10  C   UNL     1       1.142  12.466  20.330  0.00  0.00    +0.000 C 
ATOM     11  O   UNL     1       2.252  12.347  20.830  0.00  0.00    +0.000 OA
ATOM     12  C   UNL     1       0.367  13.718  20.274  0.00  0.00    +0.000 C 
ATOM     13  N   UNL     1      -0.453  13.733  21.455  0.00  0.00    +0.000 NA
ATOM     14  C   UNL     1      -0.764  12.829  22.326  0.00  0.00    +0.000 C 
ATOM     15  C   UNL     1      -0.419  11.226  22.315  0.00  0.00    +0.000 C 
ATOM     16  C   UNL     1       0.080  10.580  21.196  0.00  0.00    +0.000 C 
ENDROOT
BRANCH  14  17
ATOM     17  C   UNL     1      -1.449  13.592  23.414  0.00  0.00    +0.000 A 
ATOM     18  C   UNL     1      -2.830  13.520  23.667  0.00  0.00    +0.000 A 
ATOM     19  C   UNL     1      -3.165  14.468  24.632  0.00  0.00    +0.000 A 
ATOM     20  C   UNL     1      -1.984  15.082  24.967  0.00  0.00    +0.000 A 
ATOM     21  C   UNL     1      -1.755  16.182  25.929  0.00  0.00    +0.000 C 
ATOM     22  O   UNL     1      -0.919  14.563  24.237  0.00  0.00    +0.000 OA
ENDBRANCH  14  17
BRANCH   1  24
ATOM     23  C   UNL     1       3.779   7.432  17.287  0.00  0.00    +0.000 C 
ATOM     24  O   UNL     1       2.810   8.332  17.820  0.00  0.00    +0.000 OA
ENDBRANCH   1  24
TORSDOF 2
ENDMDL
MODEL 9
REMARK VINA RESULT:      -6.3      6.936      9.916
REMARK  Name = 
REMARK  4 active torsions:
REMARK  status: ('A' for Active; 'I' for Inactive)
REMARK    1  A    between atoms: C_1  and  O_2
REMARK    2  A    between atoms: O_2  and  C_3
REMARK    3  A    between atoms: C_16  and  C_17
REMARK    4  A    between atoms: C_20  and  C_21
REMARK                            x       y       z     vdW  Elec       q    Type
REMARK                         _______ _______ _______ _____ _____    ______ ____
ROOT
ATOM      1  C   UNL     1       1.254  16.290  18.808  0.00  0.00    +0.000 A 
ATOM      2  C   UNL     1       2.436  16.769  18.264  0.00  0.00    +0.000 A 
ATOM      3  C   UNL     1       3.328  15.850  17.690  0.00  0.00    +0.000 A 
ATOM      4  C   UNL     1       3.126  14.429  17.730  0.00  0.00    +0.000 A 
ATOM      5  C   UNL     1       1.975  13.885  18.307  0.00  0.00    +0.000 A 
ATOM      6  C   UNL     1       1.010  14.897  18.730  0.00  0.00    +0.000 A 
ATOM      7  C   UNL     1      -0.411  14.528  19.117  0.00  0.00    +0.000 C 
ATOM      8  C   UNL     1      -0.680  13.168  18.565  0.00  0.00    +0.000 C 
ATOM      9  N   UNL     1       0.337  12.313  19.099  0.00  0.00    +0.000 N 
ATOM     10  C   UNL     1       0.260  12.020  20.468  0.00  0.00    +0.000 C 
ATOM     11  O   UNL     1       0.984  12.441  21.360  0.00  0.00    +0.000 OA
ATOM     12  C   UNL     1      -0.504  10.762  20.518  0.00  0.00    +0.000 C 
ATOM     13  N   UNL     1       0.346   9.755  19.943  0.00  0.00    +0.000 NA
ATOM     14  C   UNL     1       1.438   9.811  19.253  0.00  0.00    +0.000 C 
ATOM     15  C   UNL     1       2.208  11.125  18.646  0.00  0.00    +0.000 C 
ATOM     16  C   UNL     1       1.621  12.380  18.610  0.00  0.00    +0.000 C 
ENDROOT
BRANCH  14  17
ATOM     17  C   UNL     1       1.906   8.392  19.197  0.00  0.00    +0.000 A 
ATOM     18  C   UNL     1       2.376   7.771  18.027  0.00  0.00    +0.000 A 
ATOM     19  C   UNL     1       2.576   6.415  18.282  0.00  0.00    +0.000 A 
ATOM     20  C   UNL     1       2.250   6.239  19.603  0.00  0.00    +0.000 A 
ATOM     21  C   UNL     1       2.257   4.992  20.398  0.00  0.00    +0.000 C 
ATOM     22  O   UNL     1       1.838   7.434  20.186  0.00  0.00    +0.000 OA
ENDBRANCH  14  17
BRANCH   1  24
ATOM     23  C   UNL     1       0.366  18.415  19.571  0.00  0.00    +0.000 C 
ATOM     24  O   UNL     1       0.244  17.013  19.348  0.00  0.00    +0.000 OA
ENDBRANCH   1  24
TORSDOF 2
ENDMDL
