MODEL 1
REMARK VINA RESULT:      -6.2      0.000      0.000
REMARK  Name = 
REMARK  5 active torsions:
REMARK  status: ('A' for Active; 'I' for Inactive)
REMARK    1  A    between atoms: C_1  and  C_2
REMARK    2  A    between atoms: C_5  and  C_6
REMARK    3  A    between atoms: N_11  and  C_12
REMARK    4  A    between atoms: C_12  and  C_13
REMARK    5  A    between atoms: C_16  and  C_17
REMARK                            x       y       z     vdW  Elec       q    Type
REMARK                         _______ _______ _______ _____ _____    ______ ____
ROOT
ATOM      1  C   UNL     1       2.315   7.831  18.402  0.00  0.00    +0.000 C 
ATOM      2  O   UNL     1       2.673   8.365  17.348  0.00  0.00    +0.000 OA
ATOM      3  N   UNL     1       1.631   8.544  19.385  0.00  0.00    +0.000 N 
ATOM      4  C   UNL     1       1.134   9.883  19.067  0.00  0.00    +0.000 C 
ATOM      5  C   UNL     1      -0.288  10.100  19.635  0.00  0.00    +0.000 C 
ATOM      6  N   UNL     1      -0.450   9.769  21.075  0.00  0.00    +0.000 NA
ATOM      7  C   UNL     1       0.078   8.398  21.299  0.00  0.00    +0.000 C 
ATOM      8  C   UNL     1       1.521   8.186  20.806  0.00  0.00    +0.000 C 
ENDROOT
BRANCH   1  13
ATOM      9  C   UNL     1       3.701   2.333  18.822  0.00  0.00    +0.000 C 
ATOM     10  C   UNL     1       3.302   3.772  18.754  0.00  0.00    +0.000 A 
ATOM     11  C   UNL     1       2.161   4.173  18.070  0.00  0.00    +0.000 A 
ATOM     12  N   UNL     1       1.791   5.469  17.944  0.00  0.00    +0.000 NA
ATOM     13  C   UNL     1       2.597   6.373  18.559  0.00  0.00    +0.000 A 
ATOM     14  C   UNL     1       3.742   5.978  19.238  0.00  0.00    +0.000 A 
ATOM     15  N   UNL     1       4.113   4.675  19.357  0.00  0.00    +0.000 NA
ENDBRANCH   1  13
BRANCH   6  16
ATOM     16  C   UNL     1       0.225  10.789  21.903  0.00  0.00    +0.000 C 
BRANCH  16  17
ATOM     17  C   UNL     1      -0.731  11.845  22.372  0.00  0.00    +0.000 A 
ATOM     18  C   UNL     1      -0.634  13.208  22.161  0.00  0.00    +0.000 A 
ATOM     19  S   UNL     1      -1.975  14.009  22.861  0.00  0.00    +0.000 S 
ATOM     20  C   UNL     1      -2.594  12.496  23.385  0.00  0.00    +0.000 A 
ATOM     21  C   UNL     1      -3.881  12.414  24.128  0.00  0.00    +0.000 C 
ATOM     22  N   UNL     1      -1.862  11.448  23.076  0.00  0.00    +0.000 NA
ENDBRANCH  16  17
ENDBRANCH   6  16
TORSDOF 3
ENDMDL
MODEL 2
REMARK VINA RESULT:      -6.1      0.601      1.038
REMARK  Name = 
REMARK  5 active torsions:
REMARK  status: ('A' for Active; 'I' for Inactive)
REMARK    1  A    between atoms: C_1  and  C_2
REMARK    2  A    between atoms: C_5  and  C_6
REMARK    3  A    between atoms: N_11  and  C_12
REMARK    4  A    between atoms: C_12  and  C_13
REMARK    5  A    between atoms: C_16  and  C_17
REMARK                            x       y       z     vdW  Elec       q    Type
REMARK                         _______ _______ _______ _____ _____    ______ ____
ROOT
ATOM      1  C   UNL     1       2.416   7.806  18.404  0.00  0.00    +0.000 C 
ATOM      2  O   UNL     1       2.764   8.375  17.365  0.00  0.00    +0.000 OA
ATOM      3  N   UNL     1       1.696   8.472  19.394  0.00  0.00    +0.000 N 
ATOM      4  C   UNL     1       1.152   9.799  19.098  0.00  0.00    +0.000 C 
ATOM      5  C   UNL     1      -0.283   9.951  19.654  0.00  0.00    +0.000 C 
ATOM      6  N   UNL     1      -0.448   9.584  21.085  0.00  0.00    +0.000 NA
ATOM      7  C   UNL     1       0.129   8.229  21.287  0.00  0.00    +0.000 C 
ATOM      8  C   UNL     1       1.584   8.081  20.806  0.00  0.00    +0.000 C 
ENDROOT
BRANCH   1  13
ATOM      9  C   UNL     1       3.379   2.244  19.081  0.00  0.00    +0.000 C 
ATOM     10  C   UNL     1       3.162   3.706  18.861  0.00  0.00    +0.000 A 
ATOM     11  C   UNL     1       4.023   4.654  19.401  0.00  0.00    +0.000 A 
ATOM     12  N   UNL     1       3.835   5.987  19.266  0.00  0.00    +0.000 NA
ATOM     13  C   UNL     1       2.751   6.356  18.534  0.00  0.00    +0.000 A 
ATOM     14  C   UNL     1       1.884   5.414  17.999  0.00  0.00    +0.000 A 
ATOM     15  N   UNL     1       2.074   4.076  18.142  0.00  0.00    +0.000 NA
ENDBRANCH   1  13
BRANCH   6  16
ATOM     16  C   UNL     1       0.180  10.610  21.941  0.00  0.00    +0.000 C 
BRANCH  16  17
ATOM     17  C   UNL     1      -0.785  11.701  22.301  0.00  0.00    +0.000 A 
ATOM     18  C   UNL     1      -0.758  13.013  21.868  0.00  0.00    +0.000 A 
ATOM     19  S   UNL     1      -2.082  13.877  22.522  0.00  0.00    +0.000 S 
ATOM     20  C   UNL     1      -2.605  12.452  23.324  0.00  0.00    +0.000 A 
ATOM     21  C   UNL     1      -3.837  12.454  24.159  0.00  0.00    +0.000 C 
ATOM     22  N   UNL     1      -1.852  11.390  23.137  0.00  0.00    +0.000 NA
ENDBRANCH  16  17
ENDBRANCH   6  16
TORSDOF 3
ENDMDL
MODEL 3
REMARK VINA RESULT:      -6.0      4.008      8.655
REMARK  Name = 
REMARK  5 active torsions:
REMARK  status: ('A' for Active; 'I' for Inactive)
REMARK    1  A    between atoms: C_1  and  C_2
REMARK    2  A    between atoms: C_5  and  C_6
REMARK    3  A    between atoms: N_11  and  C_12
REMARK    4  A    between atoms: C_12  and  C_13
REMARK    5  A    between atoms: C_16  and  C_17
REMARK                            x       y       z     vdW  Elec       q    Type
REMARK                         _______ _______ _______ _____ _____    ______ ____
ROOT
ATOM      1  C   UNL     1       1.236   7.879  20.808  0.00  0.00    +0.000 C 
ATOM      2  O   UNL     1       0.651   7.708  21.882  0.00  0.00    +0.000 OA
ATOM      3  N   UNL     1       1.910   6.838  20.172  0.00  0.00    +0.000 N 
ATOM      4  C   UNL     1       1.732   5.474  20.671  0.00  0.00    +0.000 C 
ATOM      5  C   UNL     1       1.581   4.468  19.506  0.00  0.00    +0.000 C 
ATOM      6  N   UNL     1       2.635   4.550  18.462  0.00  0.00    +0.000 NA
ATOM      7  C   UNL     1       2.741   5.965  18.017  0.00  0.00    +0.000 C 
ATOM      8  C   UNL     1       2.966   6.972  19.159  0.00  0.00    +0.000 C 
ENDROOT
BRANCH   1  13
ATOM      9  C   UNL     1       0.565  13.075  18.600  0.00  0.00    +0.000 C 
ATOM     10  C   UNL     1       0.796  11.715  19.174  0.00  0.00    +0.000 A 
ATOM     11  C   UNL     1       0.955  10.603  18.355  0.00  0.00    +0.000 A 
ATOM     12  N   UNL     1       1.118   9.348  18.835  0.00  0.00    +0.000 NA
ATOM     13  C   UNL     1       1.146   9.235  20.189  0.00  0.00    +0.000 A 
ATOM     14  C   UNL     1       0.981  10.341  21.011  0.00  0.00    +0.000 A 
ATOM     15  N   UNL     1       0.812  11.600  20.525  0.00  0.00    +0.000 NA
ENDBRANCH   1  13
BRANCH   6  16
ATOM     16  C   UNL     1       3.907   4.015  18.989  0.00  0.00    +0.000 C 
BRANCH  16  17
ATOM     17  C   UNL     1       5.040   4.233  18.030  0.00  0.00    +0.000 A 
ATOM     18  C   UNL     1       6.293   4.736  18.324  0.00  0.00    +0.000 A 
ATOM     19  S   UNL     1       7.259   4.774  16.911  0.00  0.00    +0.000 S 
ATOM     20  C   UNL     1       5.954   4.113  16.012  0.00  0.00    +0.000 A 
ATOM     21  C   UNL     1       6.096   3.829  14.558  0.00  0.00    +0.000 C 
ATOM     22  N   UNL     1       4.857   3.878  16.698  0.00  0.00    +0.000 NA
ENDBRANCH  16  17
ENDBRANCH   6  16
TORSDOF 3
ENDMDL
MODEL 4
REMARK VINA RESULT:      -6.0      1.448      1.584
REMARK  Name = 
REMARK  5 active torsions:
REMARK  status: ('A' for Active; 'I' for Inactive)
REMARK    1  A    between atoms: C_1  and  C_2
REMARK    2  A    between atoms: C_5  and  C_6
REMARK    3  A    between atoms: N_11  and  C_12
REMARK    4  A    between atoms: C_12  and  C_13
REMARK    5  A    between atoms: C_16  and  C_17
REMARK                            x       y       z     vdW  Elec       q    Type
REMARK                         _______ _______ _______ _____ _____    ______ ____
ROOT
ATOM      1  C   UNL     1       2.191   7.754  19.110  0.00  0.00    +0.000 C 
ATOM      2  O   UNL     1       2.555   8.035  17.964  0.00  0.00    +0.000 OA
ATOM      3  N   UNL     1       1.482   8.664  19.893  0.00  0.00    +0.000 N 
ATOM      4  C   UNL     1       0.969   9.883  19.267  0.00  0.00    +0.000 C 
ATOM      5  C   UNL     1      -0.465  10.200  19.754  0.00  0.00    +0.000 C 
ATOM      6  N   UNL     1      -0.642  10.210  21.229  0.00  0.00    +0.000 NA
ATOM      7  C   UNL     1      -0.096   8.938  21.772  0.00  0.00    +0.000 C 
ATOM      8  C   UNL     1       1.356   8.644  21.357  0.00  0.00    +0.000 C 
ENDROOT
BRANCH   1  13
ATOM      9  C   UNL     1       3.334   2.402  20.650  0.00  0.00    +0.000 C 
ATOM     10  C   UNL     1       3.054   3.826  20.294  0.00  0.00    +0.000 A 
ATOM     11  C   UNL     1       1.896   4.464  20.723  0.00  0.00    +0.000 A 
ATOM     12  N   UNL     1       1.582   5.736  20.383  0.00  0.00    +0.000 NA
ATOM     13  C   UNL     1       2.493   6.378  19.605  0.00  0.00    +0.000 A 
ATOM     14  C   UNL     1       3.647   5.744  19.168  0.00  0.00    +0.000 A 
ATOM     15  N   UNL     1       3.957   4.464  19.507  0.00  0.00    +0.000 NA
ENDBRANCH   1  13
BRANCH   6  16
ATOM     16  C   UNL     1       0.005  11.406  21.805  0.00  0.00    +0.000 C 
BRANCH  16  17
ATOM     17  C   UNL     1      -0.974  12.264  22.549  0.00  0.00    +0.000 A 
ATOM     18  C   UNL     1      -2.327  12.033  22.713  0.00  0.00    +0.000 A 
ATOM     19  S   UNL     1      -3.027  13.273  23.662  0.00  0.00    +0.000 S 
ATOM     20  C   UNL     1      -1.489  14.024  23.799  0.00  0.00    +0.000 A 
ATOM     21  C   UNL     1      -1.318  15.276  24.585  0.00  0.00    +0.000 C 
ATOM     22  N   UNL     1      -0.504  13.411  23.179  0.00  0.00    +0.000 NA
ENDBRANCH  16  17
ENDBRANCH   6  16
TORSDOF 3
ENDMDL
MODEL 5
REMARK VINA RESULT:      -5.9      0.893      1.360
REMARK  Name = 
REMARK  5 active torsions:
REMARK  status: ('A' for Active; 'I' for Inactive)
REMARK    1  A    between atoms: C_1  and  C_2
REMARK    2  A    between atoms: C_5  and  C_6
REMARK    3  A    between atoms: N_11  and  C_12
REMARK    4  A    between atoms: C_12  and  C_13
REMARK    5  A    between atoms: C_16  and  C_17
REMARK                            x       y       z     vdW  Elec       q    Type
REMARK                         _______ _______ _______ _____ _____    ______ ____
ROOT
ATOM      1  C   UNL     1       2.437   7.564  18.551  0.00  0.00    +0.000 C 
ATOM      2  O   UNL     1       2.902   8.155  17.571  0.00  0.00    +0.000 OA
ATOM      3  N   UNL     1       1.724   8.241  19.539  0.00  0.00    +0.000 N 
ATOM      4  C   UNL     1       1.329   9.629  19.297  0.00  0.00    +0.000 C 
ATOM      5  C   UNL     1      -0.117   9.891  19.780  0.00  0.00    +0.000 C 
ATOM      6  N   UNL     1      -0.404   9.461  21.173  0.00  0.00    +0.000 NA
ATOM      7  C   UNL     1       0.027   8.045  21.321  0.00  0.00    +0.000 C 
ATOM      8  C   UNL     1       1.488   7.782  20.915  0.00  0.00    +0.000 C 
ENDROOT
BRANCH   1  13
ATOM      9  C   UNL     1       3.443   1.969  18.564  0.00  0.00    +0.000 C 
ATOM     10  C   UNL     1       3.148   3.433  18.606  0.00  0.00    +0.000 A 
ATOM     11  C   UNL     1       1.981   3.950  18.056  0.00  0.00    +0.000 A 
ATOM     12  N   UNL     1       1.698   5.273  18.031  0.00  0.00    +0.000 NA
ATOM     13  C   UNL     1       2.624   6.083  18.608  0.00  0.00    +0.000 A 
ATOM     14  C   UNL     1       3.794   5.573  19.152  0.00  0.00    +0.000 A 
ATOM     15  N   UNL     1       4.077   4.243  19.171  0.00  0.00    +0.000 NA
ENDBRANCH   1  13
BRANCH   6  16
ATOM     16  C   UNL     1       0.265  10.368  22.127  0.00  0.00    +0.000 C 
BRANCH  16  17
ATOM     17  C   UNL     1      -0.580  11.570  22.435  0.00  0.00    +0.000 A 
ATOM     18  C   UNL     1      -1.833  11.579  23.017  0.00  0.00    +0.000 A 
ATOM     19  S   UNL     1      -2.389  13.188  23.195  0.00  0.00    +0.000 S 
ATOM     20  C   UNL     1      -0.928  13.760  22.498  0.00  0.00    +0.000 A 
ATOM     21  C   UNL     1      -0.680  15.219  22.333  0.00  0.00    +0.000 C 
ATOM     22  N   UNL     1      -0.069  12.830  22.141  0.00  0.00    +0.000 NA
ENDBRANCH  16  17
ENDBRANCH   6  16
TORSDOF 3
ENDMDL
MODEL 6
REMARK VINA RESULT:      -5.8      1.271      1.649
REMARK  Name = 
REMARK  5 active torsions:
REMARK  status: ('A' for Active; 'I' for Inactive)
REMARK    1  A    between atoms: C_1  and  C_2
REMARK    2  A    between atoms: C_5  and  C_6
REMARK    3  A    between atoms: N_11  and  C_12
REMARK    4  A    between atoms: C_12  and  C_13
REMARK    5  A    between atoms: C_16  and  C_17
REMARK                            x       y       z     vdW  Elec       q    Type
REMARK                         _______ _______ _______ _____ _____    ______ ____
ROOT
ATOM      1  C   UNL     1       2.157   8.548  18.244  0.00  0.00    +0.000 C 
ATOM      2  O   UNL     1       2.267   9.341  17.304  0.00  0.00    +0.000 OA
ATOM      3  N   UNL     1       1.499   8.900  19.421  0.00  0.00    +0.000 N 
ATOM      4  C   UNL     1       0.734  10.147  19.455  0.00  0.00    +0.000 C 
ATOM      5  C   UNL     1      -0.613   9.957  20.191  0.00  0.00    +0.000 C 
ATOM      6  N   UNL     1      -0.515   9.323  21.532  0.00  0.00    +0.000 NA
ATOM      7  C   UNL     1       0.273   8.069  21.397  0.00  0.00    +0.000 C 
ATOM      8  C   UNL     1       1.649   8.253  20.732  0.00  0.00    +0.000 C 
ENDROOT
BRANCH   1  13
ATOM      9  C   UNL     1       4.305   3.399  17.148  0.00  0.00    +0.000 C 
ATOM     10  C   UNL     1       3.754   4.746  17.490  0.00  0.00    +0.000 A 
ATOM     11  C   UNL     1       2.464   4.893  17.986  0.00  0.00    +0.000 A 
ATOM     12  N   UNL     1       1.911   6.097  18.262  0.00  0.00    +0.000 NA
ATOM     13  C   UNL     1       2.711   7.175  18.049  0.00  0.00    +0.000 A 
ATOM     14  C   UNL     1       3.997   7.033  17.546  0.00  0.00    +0.000 A 
ATOM     15  N   UNL     1       4.548   5.822  17.265  0.00  0.00    +0.000 NA
ENDBRANCH   1  13
BRANCH   6  16
ATOM     16  C   UNL     1       0.076  10.273  22.494  0.00  0.00    +0.000 C 
BRANCH  16  17
ATOM     17  C   UNL     1      -0.766  11.505  22.648  0.00  0.00    +0.000 A 
ATOM     18  C   UNL     1      -2.040  11.581  23.179  0.00  0.00    +0.000 A 
ATOM     19  S   UNL     1      -2.585  13.204  23.172  0.00  0.00    +0.000 S 
ATOM     20  C   UNL     1      -1.094  13.692  22.475  0.00  0.00    +0.000 A 
ATOM     21  C   UNL     1      -0.826  15.125  22.174  0.00  0.00    +0.000 C 
ATOM     22  N   UNL     1      -0.233  12.725  22.248  0.00  0.00    +0.000 NA
ENDBRANCH  16  17
ENDBRANCH   6  16
TORSDOF 3
ENDMDL
MODEL 7
REMARK VINA RESULT:      -5.7      4.335      9.019
REMARK  Name = 
REMARK  5 active torsions:
REMARK  status: ('A' for Active; 'I' for Inactive)
REMARK    1  A    between atoms: C_1  and  C_2
REMARK    2  A    between atoms: C_5  and  C_6
REMARK    3  A    between atoms: N_11  and  C_12
REMARK    4  A    between atoms: C_12  and  C_13
REMARK    5  A    between atoms: C_16  and  C_17
REMARK                            x       y       z     vdW  Elec       q    Type
REMARK                         _______ _______ _______ _____ _____    ______ ____
ROOT
ATOM      1  C   UNL     1       2.221   8.453  18.235  0.00  0.00    +0.000 C 
ATOM      2  O   UNL     1       2.163   9.289  17.328  0.00  0.00    +0.000 OA
ATOM      3  N   UNL     1       3.025   7.319  18.130  0.00  0.00    +0.000 N 
ATOM      4  C   UNL     1       3.983   7.233  17.027  0.00  0.00    +0.000 C 
ATOM      5  C   UNL     1       5.338   6.663  17.507  0.00  0.00    +0.000 C 
ATOM      6  N   UNL     1       5.252   5.393  18.274  0.00  0.00    +0.000 NA
ATOM      7  C   UNL     1       4.262   5.578  19.368  0.00  0.00    +0.000 C 
ATOM      8  C   UNL     1       2.883   6.074  18.898  0.00  0.00    +0.000 C 
ENDROOT
BRANCH   1  13
ATOM      9  C   UNL     1      -0.619   9.851  22.957  0.00  0.00    +0.000 C 
ATOM     10  C   UNL     1       0.090   9.444  21.706  0.00  0.00    +0.000 A 
ATOM     11  C   UNL     1       1.002   8.395  21.703  0.00  0.00    +0.000 A 
ATOM     12  N   UNL     1       1.700   8.026  20.603  0.00  0.00    +0.000 NA
ATOM     13  C   UNL     1       1.436   8.733  19.474  0.00  0.00    +0.000 A 
ATOM     14  C   UNL     1       0.532   9.786  19.474  0.00  0.00    +0.000 A 
ATOM     15  N   UNL     1      -0.164  10.158  20.582  0.00  0.00    +0.000 NA
ENDBRANCH   1  13
BRANCH   6  16
ATOM     16  C   UNL     1       4.906   4.281  17.367  0.00  0.00    +0.000 C 
BRANCH  16  17
ATOM     17  C   UNL     1       5.665   4.362  16.075  0.00  0.00    +0.000 A 
ATOM     18  C   UNL     1       6.934   4.876  15.886  0.00  0.00    +0.000 A 
ATOM     19  S   UNL     1       7.392   4.727  14.244  0.00  0.00    +0.000 S 
ATOM     20  C   UNL     1       5.883   3.984  13.900  0.00  0.00    +0.000 A 
ATOM     21  C   UNL     1       5.556   3.523  12.523  0.00  0.00    +0.000 C 
ATOM     22  N   UNL     1       5.072   3.851  14.926  0.00  0.00    +0.000 NA
ENDBRANCH  16  17
ENDBRANCH   6  16
TORSDOF 3
ENDMDL
MODEL 8
REMARK VINA RESULT:      -5.7      1.178      1.665
REMARK  Name = 
REMARK  5 active torsions:
REMARK  status: ('A' for Active; 'I' for Inactive)
REMARK    1  A    between atoms: C_1  and  C_2
REMARK    2  A    between atoms: C_5  and  C_6
REMARK    3  A    between atoms: N_11  and  C_12
REMARK    4  A    between atoms: C_12  and  C_13
REMARK    5  A    between atoms: C_16  and  C_17
REMARK                            x       y       z     vdW  Elec       q    Type
REMARK                         _______ _______ _______ _____ _____    ______ ____
ROOT
ATOM      1  C   UNL     1       2.627   7.583  18.106  0.00  0.00    +0.000 C 
ATOM      2  O   UNL     1       3.000   8.083  17.040  0.00  0.00    +0.000 OA
ATOM      3  N   UNL     1       1.956   8.337  19.068  0.00  0.00    +0.000 N 
ATOM      4  C   UNL     1       1.491   9.679  18.715  0.00  0.00    +0.000 C 
ATOM      5  C   UNL     1       0.072   9.943  19.271  0.00  0.00    +0.000 C 
ATOM      6  N   UNL     1      -0.103   9.652  20.718  0.00  0.00    +0.000 NA
ATOM      7  C   UNL     1       0.393   8.275  20.979  0.00  0.00    +0.000 C 
ATOM      8  C   UNL     1       1.832   8.017  20.497  0.00  0.00    +0.000 C 
ENDROOT
BRANCH   1  13
ATOM      9  C   UNL     1       3.306   2.027  19.097  0.00  0.00    +0.000 C 
ATOM     10  C   UNL     1       3.153   3.481  18.788  0.00  0.00    +0.000 A 
ATOM     11  C   UNL     1       4.183   4.383  19.028  0.00  0.00    +0.000 A 
ATOM     12  N   UNL     1       4.067   5.713  18.807  0.00  0.00    +0.000 NA
ATOM     13  C   UNL     1       2.875   6.124  18.301  0.00  0.00    +0.000 A 
ATOM     14  C   UNL     1       1.841   5.228  18.066  0.00  0.00    +0.000 A 
ATOM     15  N   UNL     1       1.959   3.893  18.295  0.00  0.00    +0.000 NA
ENDBRANCH   1  13
BRANCH   6  16
ATOM     16  C   UNL     1       0.593  10.676  21.523  0.00  0.00    +0.000 C 
BRANCH  16  17
ATOM     17  C   UNL     1      -0.372  11.628  22.166  0.00  0.00    +0.000 A 
ATOM     18  C   UNL     1      -1.549  11.307  22.816  0.00  0.00    +0.000 A 
ATOM     19  S   UNL     1      -2.300  12.725  23.411  0.00  0.00    +0.000 S 
ATOM     20  C   UNL     1      -1.011  13.663  22.774  0.00  0.00    +0.000 A 
ATOM     21  C   UNL     1      -0.985  15.141  22.947  0.00  0.00    +0.000 C 
ATOM     22  N   UNL     1      -0.074  12.985  22.148  0.00  0.00    +0.000 NA
ENDBRANCH  16  17
ENDBRANCH   6  16
TORSDOF 3
ENDMDL
MODEL 9
REMARK VINA RESULT:      -5.7      3.949      8.602
REMARK  Name = 
REMARK  5 active torsions:
REMARK  status: ('A' for Active; 'I' for Inactive)
REMARK    1  A    between atoms: C_1  and  C_2
REMARK    2  A    between atoms: C_5  and  C_6
REMARK    3  A    between atoms: N_11  and  C_12
REMARK    4  A    between atoms: C_12  and  C_13
REMARK    5  A    between atoms: C_16  and  C_17
REMARK                            x       y       z     vdW  Elec       q    Type
REMARK                         _______ _______ _______ _____ _____    ______ ____
ROOT
ATOM      1  C   UNL     1       1.030   8.102  20.992  0.00  0.00    +0.000 C 
ATOM      2  O   UNL     1       0.395   7.889  22.029  0.00  0.00    +0.000 OA
ATOM      3  N   UNL     1       1.746   7.090  20.355  0.00  0.00    +0.000 N 
ATOM      4  C   UNL     1       1.560   5.708  20.799  0.00  0.00    +0.000 C 
ATOM      5  C   UNL     1       1.477   4.740  19.595  0.00  0.00    +0.000 C 
ATOM      6  N   UNL     1       2.579   4.868  18.607  0.00  0.00    +0.000 NA
ATOM      7  C   UNL     1       2.690   6.298  18.216  0.00  0.00    +0.000 C 
ATOM      8  C   UNL     1       2.849   7.268  19.400  0.00  0.00    +0.000 C 
ENDROOT
BRANCH   1  13
ATOM      9  C   UNL     1       1.046  13.263  18.606  0.00  0.00    +0.000 C 
ATOM     10  C   UNL     1       0.988  11.912  19.244  0.00  0.00    +0.000 A 
ATOM     11  C   UNL     1       1.101  11.759  20.621  0.00  0.00    +0.000 A 
ATOM     12  N   UNL     1       1.102  10.552  21.233  0.00  0.00    +0.000 NA
ATOM     13  C   UNL     1       0.955   9.477  20.414  0.00  0.00    +0.000 A 
ATOM     14  C   UNL     1       0.849   9.625  19.038  0.00  0.00    +0.000 A 
ATOM     15  N   UNL     1       0.854  10.839  18.426  0.00  0.00    +0.000 NA
ENDBRANCH   1  13
BRANCH   6  16
ATOM     16  C   UNL     1       3.829   4.328  19.177  0.00  0.00    +0.000 C 
BRANCH  16  17
ATOM     17  C   UNL     1       4.981   4.472  18.227  0.00  0.00    +0.000 A 
ATOM     18  C   UNL     1       6.236   4.977  18.510  0.00  0.00    +0.000 A 
ATOM     19  S   UNL     1       7.225   4.917  17.115  0.00  0.00    +0.000 S 
ATOM     20  C   UNL     1       5.926   4.218  16.236  0.00  0.00    +0.000 A 
ATOM     21  C   UNL     1       6.088   3.844  14.804  0.00  0.00    +0.000 C 
ATOM     22  N   UNL     1       4.815   4.039  16.916  0.00  0.00    +0.000 NA
ENDBRANCH  16  17
ENDBRANCH   6  16
TORSDOF 3
ENDMDL
