MODEL 1
REMARK VINA RESULT:      -7.5      0.000      0.000
REMARK  Name = 
REMARK  12 active torsions:
REMARK  status: ('A' for Active; 'I' for Inactive)
REMARK    1  A    between atoms: C_1  and  O_2
REMARK    2  A    between atoms: O_2  and  C_3
REMARK    3  A    between atoms: C_5  and  N_6
REMARK    4  A    between atoms: C_7  and  C_9
REMARK    5  A    between atoms: C_14  and  O_15
REMARK    6  A    between atoms: O_15  and  C_16
REMARK    7  A    between atoms: C_18  and  N_19
REMARK    8  A    between atoms: C_20  and  C_22
REMARK    9  A    between atoms: C_22  and  C_23
REMARK   10  A    between atoms: C_23  and  C_24
REMARK   11  A    between atoms: N_26  and  C_27
REMARK   12  A    between atoms: C_30  and  C_31
REMARK                            x       y       z     vdW  Elec       q    Type
REMARK                         _______ _______ _______ _____ _____    ______ ____
ROOT
ATOM      1  C   UNL     1       2.340   7.133  19.517  0.00  0.00    +0.000 A 
ATOM      2  C   UNL     1       2.086   8.496  19.338  0.00  0.00    +0.000 A 
ATOM      3  C   UNL     1       1.187   9.166  20.160  0.00  0.00    +0.000 A 
ATOM      4  C   UNL     1       0.589   8.485  21.229  0.00  0.00    +0.000 A 
ATOM      5  C   UNL     1       0.922   7.150  21.474  0.00  0.00    +0.000 A 
ATOM      6  C   UNL     1       1.799   6.461  20.626  0.00  0.00    +0.000 A 
ENDROOT
BRANCH   3   7
ATOM      7  N   UNL     1       0.852  10.524  19.982  0.00  0.00    +0.000 N 
ATOM      8  C   UNL     1      -0.017  11.070  19.055  0.00  0.00    +0.000 C 
ATOM      9  O   UNL     1      -0.708  10.406  18.285  0.00  0.00    +0.000 OA
ATOM     10  H   UNL     1       1.270  11.147  20.669  0.00  0.00    +0.000 HD
BRANCH   8  11
ATOM     11  C   UNL     1      -0.094  12.527  19.055  0.00  0.00    +0.000 A 
ATOM     12  C   UNL     1       0.833  13.387  18.492  0.00  0.00    +0.000 A 
ATOM     13  C   UNL     1       0.486  14.758  18.664  0.00  0.00    +0.000 A 
ATOM     14  C   UNL     1      -0.694  14.900  19.356  0.00  0.00    +0.000 A 
ATOM     15  S   UNL     1      -1.373  13.393  19.796  0.00  0.00    +0.000 S 
ENDBRANCH   8  11
ENDBRANCH   3   7
BRANCH   6  16
ATOM     16  N   UNL     1       2.180   5.117  20.865  0.00  0.00    +0.000 N 
ATOM     17  C   UNL     1       1.627   3.990  20.278  0.00  0.00    +0.000 C 
ATOM     18  O   UNL     1       0.803   3.985  19.368  0.00  0.00    +0.000 OA
ATOM     19  H   UNL     1       2.986   5.010  21.475  0.00  0.00    +0.000 HD
BRANCH  17  20
ATOM     20  C   UNL     1       2.105   2.696  20.901  0.00  0.00    +0.000 C 
BRANCH  20  21
ATOM     21  C   UNL     1       3.634   2.577  20.894  0.00  0.00    +0.000 C 
BRANCH  21  22
ATOM     22  C   UNL     1       4.142   2.588  19.469  0.00  0.00    +0.000 C 
ATOM     23  O   UNL     1       3.813   1.695  18.691  0.00  0.00    +0.000 OA
ATOM     24  N   UNL     1       4.973   3.655  19.167  0.00  0.00    +0.000 N 
ATOM     25  H   UNL     1       5.325   4.209  19.939  0.00  0.00    +0.000 HD
BRANCH  24  26
ATOM     26  C   UNL     1       5.472   3.966  17.878  0.00  0.00    +0.000 A 
ATOM     27  C   UNL     1       4.701   3.842  16.720  0.00  0.00    +0.000 A 
ATOM     28  C   UNL     1       5.226   4.160  15.465  0.00  0.00    +0.000 A 
ATOM     29  C   UNL     1       6.538   4.616  15.340  0.00  0.00    +0.000 A 
ATOM     30  C   UNL     1       7.095   4.956  13.991  0.00  0.00    +0.000 C 
ATOM     31  C   UNL     1       7.315   4.752  16.495  0.00  0.00    +0.000 A 
ATOM     32  C   UNL     1       6.783   4.439  17.757  0.00  0.00    +0.000 A 
ENDBRANCH  24  26
ENDBRANCH  21  22
ENDBRANCH  20  21
ENDBRANCH  17  20
ENDBRANCH   6  16
BRANCH   1  34
ATOM     33  C   UNL     1       3.705   7.228  17.608  0.00  0.00    +0.000 C 
ATOM     34  O   UNL     1       3.087   6.409  18.614  0.00  0.00    +0.000 OA
ENDBRANCH   1  34
BRANCH   4  35
ATOM     35  O   UNL     1      -0.320   9.216  21.953  0.00  0.00    +0.000 OA
ATOM     36  C   UNL     1      -0.009   9.464  23.315  0.00  0.00    +0.000 C 
ENDBRANCH   4  35
TORSDOF 9
ENDMDL
MODEL 2
REMARK VINA RESULT:      -7.4      1.239      1.598
REMARK  Name = 
REMARK  12 active torsions:
REMARK  status: ('A' for Active; 'I' for Inactive)
REMARK    1  A    between atoms: C_1  and  O_2
REMARK    2  A    between atoms: O_2  and  C_3
REMARK    3  A    between atoms: C_5  and  N_6
REMARK    4  A    between atoms: C_7  and  C_9
REMARK    5  A    between atoms: C_14  and  O_15
REMARK    6  A    between atoms: O_15  and  C_16
REMARK    7  A    between atoms: C_18  and  N_19
REMARK    8  A    between atoms: C_20  and  C_22
REMARK    9  A    between atoms: C_22  and  C_23
REMARK   10  A    between atoms: C_23  and  C_24
REMARK   11  A    between atoms: N_26  and  C_27
REMARK   12  A    between atoms: C_30  and  C_31
REMARK                            x       y       z     vdW  Elec       q    Type
REMARK                         _______ _______ _______ _____ _____    ______ ____
ROOT
ATOM      1  C   UNL     1       1.842   8.158  19.113  0.00  0.00    +0.000 A 
ATOM      2  C   UNL     1       1.421   9.477  18.917  0.00  0.00    +0.000 A 
ATOM      3  C   UNL     1       0.893  10.218  19.968  0.00  0.00    +0.000 A 
ATOM      4  C   UNL     1       0.856   9.662  21.255  0.00  0.00    +0.000 A 
ATOM      5  C   UNL     1       1.374   8.383  21.472  0.00  0.00    +0.000 A 
ATOM      6  C   UNL     1       1.872   7.619  20.410  0.00  0.00    +0.000 A 
ENDROOT
BRANCH   3   7
ATOM      7  N   UNL     1       0.401  11.530  19.809  0.00  0.00    +0.000 N 
ATOM      8  C   UNL     1       1.099  12.718  19.920  0.00  0.00    +0.000 C 
ATOM      9  O   UNL     1       2.313  12.789  20.099  0.00  0.00    +0.000 OA
ATOM     10  H   UNL     1      -0.573  11.574  19.519  0.00  0.00    +0.000 HD
BRANCH   8  11
ATOM     11  C   UNL     1       0.296  13.928  19.785  0.00  0.00    +0.000 A 
ATOM     12  C   UNL     1       0.458  14.904  18.816  0.00  0.00    +0.000 A 
ATOM     13  C   UNL     1      -0.473  15.974  18.952  0.00  0.00    +0.000 A 
ATOM     14  C   UNL     1      -1.315  15.781  20.023  0.00  0.00    +0.000 A 
ATOM     15  S   UNL     1      -0.980  14.325  20.857  0.00  0.00    +0.000 S 
ENDBRANCH   8  11
ENDBRANCH   3   7
BRANCH   6  16
ATOM     16  N   UNL     1       2.431   6.331  20.602  0.00  0.00    +0.000 N 
ATOM     17  C   UNL     1       1.734   5.135  20.675  0.00  0.00    +0.000 C 
ATOM     18  O   UNL     1       0.534   4.990  20.460  0.00  0.00    +0.000 OA
ATOM     19  H   UNL     1       3.448   6.310  20.613  0.00  0.00    +0.000 HD
BRANCH  17  20
ATOM     20  C   UNL     1       2.595   3.966  21.100  0.00  0.00    +0.000 C 
BRANCH  20  21
ATOM     21  C   UNL     1       2.332   2.712  20.256  0.00  0.00    +0.000 C 
BRANCH  21  22
ATOM     22  C   UNL     1       3.279   2.681  19.077  0.00  0.00    +0.000 C 
ATOM     23  O   UNL     1       3.338   1.684  18.361  0.00  0.00    +0.000 OA
ATOM     24  N   UNL     1       4.026   3.836  18.914  0.00  0.00    +0.000 N 
ATOM     25  H   UNL     1       4.032   4.503  19.676  0.00  0.00    +0.000 HD
BRANCH  24  26
ATOM     26  C   UNL     1       4.883   4.110  17.819  0.00  0.00    +0.000 A 
ATOM     27  C   UNL     1       6.244   4.383  17.974  0.00  0.00    +0.000 A 
ATOM     28  C   UNL     1       7.059   4.646  16.871  0.00  0.00    +0.000 A 
ATOM     29  C   UNL     1       6.529   4.640  15.580  0.00  0.00    +0.000 A 
ATOM     30  C   UNL     1       7.409   4.924  14.401  0.00  0.00    +0.000 C 
ATOM     31  C   UNL     1       5.169   4.359  15.414  0.00  0.00    +0.000 A 
ATOM     32  C   UNL     1       4.353   4.086  16.524  0.00  0.00    +0.000 A 
ENDBRANCH  24  26
ENDBRANCH  21  22
ENDBRANCH  20  21
ENDBRANCH  17  20
ENDBRANCH   6  16
BRANCH   1  34
ATOM     33  C   UNL     1       3.548   7.575  17.608  0.00  0.00    +0.000 C 
ATOM     34  O   UNL     1       2.203   7.348  18.058  0.00  0.00    +0.000 OA
ENDBRANCH   1  34
BRANCH   4  35
ATOM     35  O   UNL     1       0.274  10.451  22.215  0.00  0.00    +0.000 OA
ATOM     36  C   UNL     1      -0.446   9.790  23.244  0.00  0.00    +0.000 C 
ENDBRANCH   4  35
TORSDOF 9
ENDMDL
MODEL 3
REMARK VINA RESULT:      -7.2      1.281      1.568
REMARK  Name = 
REMARK  12 active torsions:
REMARK  status: ('A' for Active; 'I' for Inactive)
REMARK    1  A    between atoms: C_1  and  O_2
REMARK    2  A    between atoms: O_2  and  C_3
REMARK    3  A    between atoms: C_5  and  N_6
REMARK    4  A    between atoms: C_7  and  C_9
REMARK    5  A    between atoms: C_14  and  O_15
REMARK    6  A    between atoms: O_15  and  C_16
REMARK    7  A    between atoms: C_18  and  N_19
REMARK    8  A    between atoms: C_20  and  C_22
REMARK    9  A    between atoms: C_22  and  C_23
REMARK   10  A    between atoms: C_23  and  C_24
REMARK   11  A    between atoms: N_26  and  C_27
REMARK   12  A    between atoms: C_30  and  C_31
REMARK                            x       y       z     vdW  Elec       q    Type
REMARK                         _______ _______ _______ _____ _____    ______ ____
ROOT
ATOM      1  C   UNL     1       2.145   7.672  19.232  0.00  0.00    +0.000 A 
ATOM      2  C   UNL     1       1.871   9.008  18.929  0.00  0.00    +0.000 A 
ATOM      3  C   UNL     1       1.250   9.836  19.857  0.00  0.00    +0.000 A 
ATOM      4  C   UNL     1       0.968   9.345  21.140  0.00  0.00    +0.000 A 
ATOM      5  C   UNL     1       1.338   8.041  21.479  0.00  0.00    +0.000 A 
ATOM      6  C   UNL     1       1.929   7.192  20.535  0.00  0.00    +0.000 A 
ENDROOT
BRANCH   3   7
ATOM      7  N   UNL     1       0.899  11.173  19.578  0.00  0.00    +0.000 N 
ATOM      8  C   UNL     1       1.579  12.082  18.789  0.00  0.00    +0.000 C 
ATOM      9  O   UNL     1       2.581  11.808  18.132  0.00  0.00    +0.000 OA
ATOM     10  H   UNL     1       0.003  11.456  19.967  0.00  0.00    +0.000 HD
BRANCH   8  11
ATOM     11  C   UNL     1       1.014  13.426  18.757  0.00  0.00    +0.000 A 
ATOM     12  C   UNL     1      -0.335  13.736  18.715  0.00  0.00    +0.000 A 
ATOM     13  C   UNL     1      -0.575  15.140  18.680  0.00  0.00    +0.000 A 
ATOM     14  C   UNL     1       0.599  15.857  18.692  0.00  0.00    +0.000 A 
ATOM     15  S   UNL     1       1.976  14.843  18.742  0.00  0.00    +0.000 S 
ENDBRANCH   8  11
ENDBRANCH   3   7
BRANCH   6  16
ATOM     16  N   UNL     1       2.343   5.875  20.857  0.00  0.00    +0.000 N 
ATOM     17  C   UNL     1       1.563   4.731  20.796  0.00  0.00    +0.000 C 
ATOM     18  O   UNL     1       0.426   4.661  20.336  0.00  0.00    +0.000 OA
ATOM     19  H   UNL     1       3.330   5.787  21.082  0.00  0.00    +0.000 HD
BRANCH  17  20
ATOM     20  C   UNL     1       2.231   3.519  21.408  0.00  0.00    +0.000 C 
BRANCH  20  21
ATOM     21  C   UNL     1       2.516   2.427  20.370  0.00  0.00    +0.000 C 
BRANCH  21  22
ATOM     22  C   UNL     1       3.794   2.748  19.626  0.00  0.00    +0.000 C 
ATOM     23  O   UNL     1       4.857   2.246  19.984  0.00  0.00    +0.000 OA
ATOM     24  N   UNL     1       3.633   3.624  18.566  0.00  0.00    +0.000 N 
ATOM     25  H   UNL     1       2.752   4.120  18.495  0.00  0.00    +0.000 HD
BRANCH  24  26
ATOM     26  C   UNL     1       4.642   3.981  17.636  0.00  0.00    +0.000 A 
ATOM     27  C   UNL     1       5.906   4.424  18.027  0.00  0.00    +0.000 A 
ATOM     28  C   UNL     1       6.877   4.765  17.082  0.00  0.00    +0.000 A 
ATOM     29  C   UNL     1       6.604   4.664  15.718  0.00  0.00    +0.000 A 
ATOM     30  C   UNL     1       7.650   5.031  14.709  0.00  0.00    +0.000 C 
ATOM     31  C   UNL     1       5.343   4.212  15.316  0.00  0.00    +0.000 A 
ATOM     32  C   UNL     1       4.372   3.863  16.268  0.00  0.00    +0.000 A 
ENDBRANCH  24  26
ENDBRANCH  21  22
ENDBRANCH  20  21
ENDBRANCH  17  20
ENDBRANCH   6  16
BRANCH   1  34
ATOM     33  C   UNL     1       3.676   7.313  17.488  0.00  0.00    +0.000 C 
ATOM     34  O   UNL     1       2.596   6.788  18.276  0.00  0.00    +0.000 OA
ENDBRANCH   1  34
BRANCH   4  35
ATOM     35  O   UNL     1       0.312  10.220  21.969  0.00  0.00    +0.000 OA
ATOM     36  C   UNL     1      -0.314   9.672  23.119  0.00  0.00    +0.000 C 
ENDBRANCH   4  35
TORSDOF 9
ENDMDL
MODEL 4
REMARK VINA RESULT:      -7.0      1.259      1.432
REMARK  Name = 
REMARK  12 active torsions:
REMARK  status: ('A' for Active; 'I' for Inactive)
REMARK    1  A    between atoms: C_1  and  O_2
REMARK    2  A    between atoms: O_2  and  C_3
REMARK    3  A    between atoms: C_5  and  N_6
REMARK    4  A    between atoms: C_7  and  C_9
REMARK    5  A    between atoms: C_14  and  O_15
REMARK    6  A    between atoms: O_15  and  C_16
REMARK    7  A    between atoms: C_18  and  N_19
REMARK    8  A    between atoms: C_20  and  C_22
REMARK    9  A    between atoms: C_22  and  C_23
REMARK   10  A    between atoms: C_23  and  C_24
REMARK   11  A    between atoms: N_26  and  C_27
REMARK   12  A    between atoms: C_30  and  C_31
REMARK                            x       y       z     vdW  Elec       q    Type
REMARK                         _______ _______ _______ _____ _____    ______ ____
ROOT
ATOM      1  C   UNL     1       2.059   7.789  19.399  0.00  0.00    +0.000 A 
ATOM      2  C   UNL     1       1.745   9.117  19.098  0.00  0.00    +0.000 A 
ATOM      3  C   UNL     1       1.009   9.892  19.987  0.00  0.00    +0.000 A 
ATOM      4  C   UNL     1       0.647   9.360  21.232  0.00  0.00    +0.000 A 
ATOM      5  C   UNL     1       1.052   8.068  21.577  0.00  0.00    +0.000 A 
ATOM      6  C   UNL     1       1.761   7.270  20.670  0.00  0.00    +0.000 A 
ENDROOT
BRANCH   3   7
ATOM      7  N   UNL     1       0.616  11.217  19.704  0.00  0.00    +0.000 N 
ATOM      8  C   UNL     1       1.144  12.387  20.217  0.00  0.00    +0.000 C 
ATOM      9  O   UNL     1       2.125  12.433  20.957  0.00  0.00    +0.000 OA
ATOM     10  H   UNL     1      -0.104  11.292  18.989  0.00  0.00    +0.000 HD
BRANCH   8  11
ATOM     11  C   UNL     1       0.469  13.611  19.801  0.00  0.00    +0.000 A 
ATOM     12  C   UNL     1      -0.820  13.983  20.144  0.00  0.00    +0.000 A 
ATOM     13  C   UNL     1      -1.203  15.230  19.573  0.00  0.00    +0.000 A 
ATOM     14  C   UNL     1      -0.194  15.770  18.809  0.00  0.00    +0.000 A 
ATOM     15  S   UNL     1       1.199  14.777  18.779  0.00  0.00    +0.000 S 
ENDBRANCH   8  11
ENDBRANCH   3   7
BRANCH   6  16
ATOM     16  N   UNL     1       2.212   5.967  21.001  0.00  0.00    +0.000 N 
ATOM     17  C   UNL     1       1.524   4.783  20.792  0.00  0.00    +0.000 C 
ATOM     18  O   UNL     1       0.468   4.664  20.175  0.00  0.00    +0.000 OA
ATOM     19  H   UNL     1       3.163   5.929  21.358  0.00  0.00    +0.000 HD
BRANCH  17  20
ATOM     20  C   UNL     1       2.179   3.587  21.449  0.00  0.00    +0.000 C 
BRANCH  20  21
ATOM     21  C   UNL     1       2.240   2.372  20.515  0.00  0.00    +0.000 C 
BRANCH  21  22
ATOM     22  C   UNL     1       3.434   2.493  19.594  0.00  0.00    +0.000 C 
ATOM     23  O   UNL     1       4.227   1.560  19.488  0.00  0.00    +0.000 OA
ATOM     24  N   UNL     1       3.523   3.705  18.931  0.00  0.00    +0.000 N 
ATOM     25  H   UNL     1       2.926   4.460  19.249  0.00  0.00    +0.000 HD
BRANCH  24  26
ATOM     26  C   UNL     1       4.467   4.020  17.921  0.00  0.00    +0.000 A 
ATOM     27  C   UNL     1       4.179   3.911  16.559  0.00  0.00    +0.000 A 
ATOM     28  C   UNL     1       5.133   4.233  15.590  0.00  0.00    +0.000 A 
ATOM     29  C   UNL     1       6.401   4.676  15.965  0.00  0.00    +0.000 A 
ATOM     30  C   UNL     1       7.421   5.020  14.922  0.00  0.00    +0.000 C 
ATOM     31  C   UNL     1       6.696   4.797  17.327  0.00  0.00    +0.000 A 
ATOM     32  C   UNL     1       5.732   4.481  18.299  0.00  0.00    +0.000 A 
ENDBRANCH  24  26
ENDBRANCH  21  22
ENDBRANCH  20  21
ENDBRANCH  17  20
ENDBRANCH   6  16
BRANCH   1  34
ATOM     33  C   UNL     1       3.548   7.622  17.589  0.00  0.00    +0.000 C 
ATOM     34  O   UNL     1       2.632   6.949  18.468  0.00  0.00    +0.000 OA
ENDBRANCH   1  34
BRANCH   4  35
ATOM     35  O   UNL     1      -0.118  10.183  22.020  0.00  0.00    +0.000 OA
ATOM     36  C   UNL     1      -0.417   9.727  23.330  0.00  0.00    +0.000 C 
ENDBRANCH   4  35
TORSDOF 9
ENDMDL
MODEL 5
REMARK VINA RESULT:      -7.0      2.901      8.907
REMARK  Name = 
REMARK  12 active torsions:
REMARK  status: ('A' for Active; 'I' for Inactive)
REMARK    1  A    between atoms: C_1  and  O_2
REMARK    2  A    between atoms: O_2  and  C_3
REMARK    3  A    between atoms: C_5  and  N_6
REMARK    4  A    between atoms: C_7  and  C_9
REMARK    5  A    between atoms: C_14  and  O_15
REMARK    6  A    between atoms: O_15  and  C_16
REMARK    7  A    between atoms: C_18  and  N_19
REMARK    8  A    between atoms: C_20  and  C_22
REMARK    9  A    between atoms: C_22  and  C_23
REMARK   10  A    between atoms: C_23  and  C_24
REMARK   11  A    between atoms: N_26  and  C_27
REMARK   12  A    between atoms: C_30  and  C_31
REMARK                            x       y       z     vdW  Elec       q    Type
REMARK                         _______ _______ _______ _____ _____    ______ ____
ROOT
ATOM      1  C   UNL     1       1.630   8.829  19.140  0.00  0.00    +0.000 A 
ATOM      2  C   UNL     1       2.345   8.141  18.156  0.00  0.00    +0.000 A 
ATOM      3  C   UNL     1       2.863   6.875  18.408  0.00  0.00    +0.000 A 
ATOM      4  C   UNL     1       2.597   6.252  19.635  0.00  0.00    +0.000 A 
ATOM      5  C   UNL     1       1.793   6.895  20.579  0.00  0.00    +0.000 A 
ATOM      6  C   UNL     1       1.301   8.185  20.345  0.00  0.00    +0.000 A 
ENDROOT
BRANCH   3   7
ATOM      7  N   UNL     1       3.641   6.166  17.470  0.00  0.00    +0.000 N 
ATOM      8  C   UNL     1       5.019   6.142  17.354  0.00  0.00    +0.000 C 
ATOM      9  O   UNL     1       5.785   6.695  18.141  0.00  0.00    +0.000 OA
ATOM     10  H   UNL     1       3.100   5.562  16.856  0.00  0.00    +0.000 HD
BRANCH   8  11
ATOM     11  C   UNL     1       5.537   5.380  16.224  0.00  0.00    +0.000 A 
ATOM     12  C   UNL     1       4.777   4.667  15.311  0.00  0.00    +0.000 A 
ATOM     13  C   UNL     1       5.573   4.016  14.325  0.00  0.00    +0.000 A 
ATOM     14  C   UNL     1       6.914   4.249  14.518  0.00  0.00    +0.000 A 
ATOM     15  S   UNL     1       7.209   5.242  15.880  0.00  0.00    +0.000 S 
ENDBRANCH   8  11
ENDBRANCH   3   7
BRANCH   6  16
ATOM     16  N   UNL     1       0.458   8.853  21.269  0.00  0.00    +0.000 N 
ATOM     17  C   UNL     1       0.847   9.424  22.471  0.00  0.00    +0.000 C 
ATOM     18  O   UNL     1       2.003   9.550  22.865  0.00  0.00    +0.000 OA
ATOM     19  H   UNL     1      -0.502   8.967  20.957  0.00  0.00    +0.000 HD
BRANCH  17  20
ATOM     20  C   UNL     1      -0.319   9.867  23.327  0.00  0.00    +0.000 C 
BRANCH  20  21
ATOM     21  C   UNL     1      -1.276  10.796  22.569  0.00  0.00    +0.000 C 
BRANCH  21  22
ATOM     22  C   UNL     1      -0.583  12.104  22.259  0.00  0.00    +0.000 C 
ATOM     23  O   UNL     1      -0.380  12.920  23.154  0.00  0.00    +0.000 OA
ATOM     24  N   UNL     1      -0.232  12.262  20.929  0.00  0.00    +0.000 N 
ATOM     25  H   UNL     1      -0.626  11.613  20.258  0.00  0.00    +0.000 HD
BRANCH  24  26
ATOM     26  C   UNL     1       0.539  13.330  20.406  0.00  0.00    +0.000 A 
ATOM     27  C   UNL     1      -0.014  14.350  19.629  0.00  0.00    +0.000 A 
ATOM     28  C   UNL     1       0.776  15.390  19.132  0.00  0.00    +0.000 A 
ATOM     29  C   UNL     1       2.143  15.434  19.405  0.00  0.00    +0.000 A 
ATOM     30  C   UNL     1       2.986  16.551  18.869  0.00  0.00    +0.000 C 
ATOM     31  C   UNL     1       2.705  14.421  20.190  0.00  0.00    +0.000 A 
ATOM     32  C   UNL     1       1.907  13.382  20.695  0.00  0.00    +0.000 A 
ENDBRANCH  24  26
ENDBRANCH  21  22
ENDBRANCH  20  21
ENDBRANCH  17  20
ENDBRANCH   6  16
BRANCH   1  34
ATOM     33  C   UNL     1       2.095  10.860  18.054  0.00  0.00    +0.000 C 
ATOM     34  O   UNL     1       1.259  10.147  18.980  0.00  0.00    +0.000 OA
ENDBRANCH   1  34
BRANCH   4  35
ATOM     35  O   UNL     1       3.190   5.026  19.808  0.00  0.00    +0.000 OA
ATOM     36  C   UNL     1       2.492   4.078  20.601  0.00  0.00    +0.000 C 
ENDBRANCH   4  35
TORSDOF 9
ENDMDL
MODEL 6
REMARK VINA RESULT:      -6.9      0.969      1.330
REMARK  Name = 
REMARK  12 active torsions:
REMARK  status: ('A' for Active; 'I' for Inactive)
REMARK    1  A    between atoms: C_1  and  O_2
REMARK    2  A    between atoms: O_2  and  C_3
REMARK    3  A    between atoms: C_5  and  N_6
REMARK    4  A    between atoms: C_7  and  C_9
REMARK    5  A    between atoms: C_14  and  O_15
REMARK    6  A    between atoms: O_15  and  C_16
REMARK    7  A    between atoms: C_18  and  N_19
REMARK    8  A    between atoms: C_20  and  C_22
REMARK    9  A    between atoms: C_22  and  C_23
REMARK   10  A    between atoms: C_23  and  C_24
REMARK   11  A    between atoms: N_26  and  C_27
REMARK   12  A    between atoms: C_30  and  C_31
REMARK                            x       y       z     vdW  Elec       q    Type
REMARK                         _______ _______ _______ _____ _____    ______ ____
ROOT
ATOM      1  C   UNL     1       2.281   7.486  18.948  0.00  0.00    +0.000 A 
ATOM      2  C   UNL     1       1.897   8.826  18.846  0.00  0.00    +0.000 A 
ATOM      3  C   UNL     1       1.339   9.490  19.932  0.00  0.00    +0.000 A 
ATOM      4  C   UNL     1       1.233   8.831  21.164  0.00  0.00    +0.000 A 
ATOM      5  C   UNL     1       1.714   7.526  21.296  0.00  0.00    +0.000 A 
ATOM      6  C   UNL     1       2.243   6.840  20.195  0.00  0.00    +0.000 A 
ENDROOT
BRANCH   3   7
ATOM      7  N   UNL     1       0.881  10.822  19.862  0.00  0.00    +0.000 N 
ATOM      8  C   UNL     1      -0.343  11.277  19.407  0.00  0.00    +0.000 C 
ATOM      9  O   UNL     1      -1.267  10.541  19.065  0.00  0.00    +0.000 OA
ATOM     10  H   UNL     1       1.526  11.503  20.256  0.00  0.00    +0.000 HD
BRANCH   8  11
ATOM     11  C   UNL     1      -0.497  12.727  19.375  0.00  0.00    +0.000 A 
ATOM     12  C   UNL     1       0.105  13.585  18.470  0.00  0.00    +0.000 A 
ATOM     13  C   UNL     1      -0.231  14.950  18.702  0.00  0.00    +0.000 A 
ATOM     14  C   UNL     1      -1.076  15.090  19.778  0.00  0.00    +0.000 A 
ATOM     15  S   UNL     1      -1.457  13.588  20.502  0.00  0.00    +0.000 S 
ENDBRANCH   8  11
ENDBRANCH   3   7
BRANCH   6  16
ATOM     16  N   UNL     1       2.766   5.527  20.302  0.00  0.00    +0.000 N 
ATOM     17  C   UNL     1       2.034   4.360  20.449  0.00  0.00    +0.000 C 
ATOM     18  O   UNL     1       0.811   4.268  20.385  0.00  0.00    +0.000 OA
ATOM     19  H   UNL     1       3.774   5.465  20.185  0.00  0.00    +0.000 HD
BRANCH  17  20
ATOM     20  C   UNL     1       2.890   3.150  20.751  0.00  0.00    +0.000 C 
BRANCH  20  21
ATOM     21  C   UNL     1       3.320   2.410  19.478  0.00  0.00    +0.000 C 
BRANCH  21  22
ATOM     22  C   UNL     1       4.368   3.218  18.745  0.00  0.00    +0.000 C 
ATOM     23  O   UNL     1       5.231   3.824  19.376  0.00  0.00    +0.000 OA
ATOM     24  N   UNL     1       4.243   3.198  17.366  0.00  0.00    +0.000 N 
ATOM     25  H   UNL     1       3.382   2.829  16.977  0.00  0.00    +0.000 HD
BRANCH  24  26
ATOM     26  C   UNL     1       5.167   3.761  16.450  0.00  0.00    +0.000 A 
ATOM     27  C   UNL     1       6.383   4.317  16.851  0.00  0.00    +0.000 A 
ATOM     28  C   UNL     1       7.270   4.862  15.920  0.00  0.00    +0.000 A 
ATOM     29  C   UNL     1       6.961   4.857  14.559  0.00  0.00    +0.000 A 
ATOM     30  C   UNL     1       7.918   5.443  13.565  0.00  0.00    +0.000 C 
ATOM     31  C   UNL     1       5.749   4.294  14.147  0.00  0.00    +0.000 A 
ATOM     32  C   UNL     1       4.862   3.740  15.085  0.00  0.00    +0.000 A 
ENDBRANCH  24  26
ENDBRANCH  21  22
ENDBRANCH  20  21
ENDBRANCH  17  20
ENDBRANCH   6  16
BRANCH   1  34
ATOM     33  C   UNL     1       3.961   7.145  17.341  0.00  0.00    +0.000 C 
ATOM     34  O   UNL     1       2.672   6.757  17.845  0.00  0.00    +0.000 OA
ENDBRANCH   1  34
BRANCH   4  35
ATOM     35  O   UNL     1       0.625   9.551  22.162  0.00  0.00    +0.000 OA
ATOM     36  C   UNL     1      -0.629   9.078  22.627  0.00  0.00    +0.000 C 
ENDBRANCH   4  35
TORSDOF 9
ENDMDL
MODEL 7
REMARK VINA RESULT:      -6.7      3.372      8.882
REMARK  Name = 
REMARK  12 active torsions:
REMARK  status: ('A' for Active; 'I' for Inactive)
REMARK    1  A    between atoms: C_1  and  O_2
REMARK    2  A    between atoms: O_2  and  C_3
REMARK    3  A    between atoms: C_5  and  N_6
REMARK    4  A    between atoms: C_7  and  C_9
REMARK    5  A    between atoms: C_14  and  O_15
REMARK    6  A    between atoms: O_15  and  C_16
REMARK    7  A    between atoms: C_18  and  N_19
REMARK    8  A    between atoms: C_20  and  C_22
REMARK    9  A    between atoms: C_22  and  C_23
REMARK   10  A    between atoms: C_23  and  C_24
REMARK   11  A    between atoms: N_26  and  C_27
REMARK   12  A    between atoms: C_30  and  C_31
REMARK                            x       y       z     vdW  Elec       q    Type
REMARK                         _______ _______ _______ _____ _____    ______ ____
ROOT
ATOM      1  C   UNL     1       1.362   9.467  18.941  0.00  0.00    +0.000 A 
ATOM      2  C   UNL     1       2.231   8.626  18.241  0.00  0.00    +0.000 A 
ATOM      3  C   UNL     1       2.648   7.419  18.789  0.00  0.00    +0.000 A 
ATOM      4  C   UNL     1       2.128   7.005  20.023  0.00  0.00    +0.000 A 
ATOM      5  C   UNL     1       1.178   7.794  20.675  0.00  0.00    +0.000 A 
ATOM      6  C   UNL     1       0.783   9.029  20.144  0.00  0.00    +0.000 A 
ENDROOT
BRANCH   3   7
ATOM      7  N   UNL     1       3.570   6.565  18.150  0.00  0.00    +0.000 N 
ATOM      8  C   UNL     1       4.212   6.761  16.940  0.00  0.00    +0.000 C 
ATOM      9  O   UNL     1       4.123   7.790  16.274  0.00  0.00    +0.000 OA
ATOM     10  H   UNL     1       3.820   5.742  18.693  0.00  0.00    +0.000 HD
BRANCH   8  11
ATOM     11  C   UNL     1       5.050   5.655  16.491  0.00  0.00    +0.000 A 
ATOM     12  C   UNL     1       6.308   5.770  15.925  0.00  0.00    +0.000 A 
ATOM     13  C   UNL     1       6.872   4.508  15.579  0.00  0.00    +0.000 A 
ATOM     14  C   UNL     1       6.024   3.471  15.889  0.00  0.00    +0.000 A 
ATOM     15  S   UNL     1       4.561   4.016  16.588  0.00  0.00    +0.000 S 
ENDBRANCH   8  11
ENDBRANCH   3   7
BRANCH   6  16
ATOM     16  N   UNL     1      -0.201   9.839  20.765  0.00  0.00    +0.000 N 
ATOM     17  C   UNL     1       0.030  10.973  21.527  0.00  0.00    +0.000 C 
ATOM     18  O   UNL     1       1.117  11.525  21.682  0.00  0.00    +0.000 OA
ATOM     19  H   UNL     1      -1.159   9.576  20.552  0.00  0.00    +0.000 HD
BRANCH  17  20
ATOM     20  C   UNL     1      -1.209  11.487  22.226  0.00  0.00    +0.000 C 
BRANCH  20  21
ATOM     21  C   UNL     1      -1.701  12.815  21.637  0.00  0.00    +0.000 C 
BRANCH  21  22
ATOM     22  C   UNL     1      -1.864  12.682  20.139  0.00  0.00    +0.000 C 
ATOM     23  O   UNL     1      -1.190  13.378  19.382  0.00  0.00    +0.000 OA
ATOM     24  N   UNL     1      -2.806  11.745  19.748  0.00  0.00    +0.000 N 
ATOM     25  H   UNL     1      -3.431  11.383  20.459  0.00  0.00    +0.000 HD
BRANCH  24  26
ATOM     26  C   UNL     1      -3.053  11.339  18.413  0.00  0.00    +0.000 A 
ATOM     27  C   UNL     1      -4.154  11.785  17.679  0.00  0.00    +0.000 A 
ATOM     28  C   UNL     1      -4.365  11.364  16.364  0.00  0.00    +0.000 A 
ATOM     29  C   UNL     1      -3.471  10.487  15.749  0.00  0.00    +0.000 A 
ATOM     30  C   UNL     1      -3.702  10.040  14.337  0.00  0.00    +0.000 C 
ATOM     31  C   UNL     1      -2.360  10.042  16.473  0.00  0.00    +0.000 A 
ATOM     32  C   UNL     1      -2.146  10.473  17.792  0.00  0.00    +0.000 A 
ENDBRANCH  24  26
ENDBRANCH  21  22
ENDBRANCH  20  21
ENDBRANCH  17  20
ENDBRANCH   6  16
BRANCH   1  34
ATOM     33  C   UNL     1       2.243  11.493  18.144  0.00  0.00    +0.000 C 
ATOM     34  O   UNL     1       1.072  10.741  18.502  0.00  0.00    +0.000 OA
ENDBRANCH   1  34
BRANCH   4  35
ATOM     35  O   UNL     1       2.635   5.824  20.505  0.00  0.00    +0.000 OA
ATOM     36  C   UNL     1       1.710   4.776  20.750  0.00  0.00    +0.000 C 
ENDBRANCH   4  35
TORSDOF 9
ENDMDL
MODEL 8
REMARK VINA RESULT:      -6.7      1.375      1.521
REMARK  Name = 
REMARK  12 active torsions:
REMARK  status: ('A' for Active; 'I' for Inactive)
REMARK    1  A    between atoms: C_1  and  O_2
REMARK    2  A    between atoms: O_2  and  C_3
REMARK    3  A    between atoms: C_5  and  N_6
REMARK    4  A    between atoms: C_7  and  C_9
REMARK    5  A    between atoms: C_14  and  O_15
REMARK    6  A    between atoms: O_15  and  C_16
REMARK    7  A    between atoms: C_18  and  N_19
REMARK    8  A    between atoms: C_20  and  C_22
REMARK    9  A    between atoms: C_22  and  C_23
REMARK   10  A    between atoms: C_23  and  C_24
REMARK   11  A    between atoms: N_26  and  C_27
REMARK   12  A    between atoms: C_30  and  C_31
REMARK                            x       y       z     vdW  Elec       q    Type
REMARK                         _______ _______ _______ _____ _____    ______ ____
ROOT
ATOM      1  C   UNL     1       1.838   8.318  18.902  0.00  0.00    +0.000 A 
ATOM      2  C   UNL     1       1.387   9.641  18.870  0.00  0.00    +0.000 A 
ATOM      3  C   UNL     1       0.913  10.258  20.022  0.00  0.00    +0.000 A 
ATOM      4  C   UNL     1       0.963   9.572  21.243  0.00  0.00    +0.000 A 
ATOM      5  C   UNL     1       1.512   8.289  21.295  0.00  0.00    +0.000 A 
ATOM      6  C   UNL     1       1.956   7.648  20.131  0.00  0.00    +0.000 A 
ENDROOT
BRANCH   3   7
ATOM      7  N   UNL     1       0.393  11.568  20.029  0.00  0.00    +0.000 N 
ATOM      8  C   UNL     1       1.059  12.749  19.756  0.00  0.00    +0.000 C 
ATOM      9  O   UNL     1       2.226  12.807  19.372  0.00  0.00    +0.000 OA
ATOM     10  H   UNL     1      -0.609  11.615  20.201  0.00  0.00    +0.000 HD
BRANCH   8  11
ATOM     11  C   UNL     1       0.272  13.964  19.928  0.00  0.00    +0.000 A 
ATOM     12  C   UNL     1       0.751  15.260  19.831  0.00  0.00    +0.000 A 
ATOM     13  C   UNL     1      -0.259  16.238  20.062  0.00  0.00    +0.000 A 
ATOM     14  C   UNL     1      -1.476  15.657  20.333  0.00  0.00    +0.000 A 
ATOM     15  S   UNL     1      -1.397  13.948  20.311  0.00  0.00    +0.000 S 
ENDBRANCH   8  11
ENDBRANCH   3   7
BRANCH   6  16
ATOM     16  N   UNL     1       2.545   6.359  20.155  0.00  0.00    +0.000 N 
ATOM     17  C   UNL     1       1.895   5.164  20.420  0.00  0.00    +0.000 C 
ATOM     18  O   UNL     1       0.683   5.020  20.553  0.00  0.00    +0.000 OA
ATOM     19  H   UNL     1       3.523   6.338  19.878  0.00  0.00    +0.000 HD
BRANCH  17  20
ATOM     20  C   UNL     1       2.840   3.993  20.582  0.00  0.00    +0.000 C 
BRANCH  20  21
ATOM     21  C   UNL     1       2.508   2.841  19.625  0.00  0.00    +0.000 C 
BRANCH  21  22
ATOM     22  C   UNL     1       3.097   3.123  18.260  0.00  0.00    +0.000 C 
ATOM     23  O   UNL     1       2.395   3.029  17.256  0.00  0.00    +0.000 OA
ATOM     24  N   UNL     1       4.437   3.473  18.278  0.00  0.00    +0.000 N 
ATOM     25  H   UNL     1       4.950   3.323  19.139  0.00  0.00    +0.000 HD
BRANCH  24  26
ATOM     26  C   UNL     1       5.185   3.910  17.156  0.00  0.00    +0.000 A 
ATOM     27  C   UNL     1       4.681   3.880  15.855  0.00  0.00    +0.000 A 
ATOM     28  C   UNL     1       5.447   4.322  14.773  0.00  0.00    +0.000 A 
ATOM     29  C   UNL     1       6.739   4.809  14.971  0.00  0.00    +0.000 A 
ATOM     30  C   UNL     1       7.556   5.281  13.806  0.00  0.00    +0.000 C 
ATOM     31  C   UNL     1       7.249   4.850  16.272  0.00  0.00    +0.000 A 
ATOM     32  C   UNL     1       6.475   4.413  17.359  0.00  0.00    +0.000 A 
ENDBRANCH  24  26
ENDBRANCH  21  22
ENDBRANCH  20  21
ENDBRANCH  17  20
ENDBRANCH   6  16
BRANCH   1  34
ATOM     33  C   UNL     1       3.560   7.516  17.520  0.00  0.00    +0.000 C 
ATOM     34  O   UNL     1       2.146   7.628  17.749  0.00  0.00    +0.000 OA
ENDBRANCH   1  34
BRANCH   4  35
ATOM     35  O   UNL     1       0.429  10.245  22.314  0.00  0.00    +0.000 OA
ATOM     36  C   UNL     1      -0.501   9.540  23.120  0.00  0.00    +0.000 C 
ENDBRANCH   4  35
TORSDOF 9
ENDMDL
MODEL 9
REMARK VINA RESULT:      -6.7      2.338      3.781
REMARK  Name = 
REMARK  12 active torsions:
REMARK  status: ('A' for Active; 'I' for Inactive)
REMARK    1  A    between atoms: C_1  and  O_2
REMARK    2  A    between atoms: O_2  and  C_3
REMARK    3  A    between atoms: C_5  and  N_6
REMARK    4  A    between atoms: C_7  and  C_9
REMARK    5  A    between atoms: C_14  and  O_15
REMARK    6  A    between atoms: O_15  and  C_16
REMARK    7  A    between atoms: C_18  and  N_19
REMARK    8  A    between atoms: C_20  and  C_22
REMARK    9  A    between atoms: C_22  and  C_23
REMARK   10  A    between atoms: C_23  and  C_24
REMARK   11  A    between atoms: N_26  and  C_27
REMARK   12  A    between atoms: C_30  and  C_31
REMARK                            x       y       z     vdW  Elec       q    Type
REMARK                         _______ _______ _______ _____ _____    ______ ____
ROOT
ATOM      1  C   UNL     1       2.101   5.789  20.482  0.00  0.00    +0.000 A 
ATOM      2  C   UNL     1       1.319   6.855  20.934  0.00  0.00    +0.000 A 
ATOM      3  C   UNL     1       1.280   8.056  20.235  0.00  0.00    +0.000 A 
ATOM      4  C   UNL     1       1.971   8.171  19.021  0.00  0.00    +0.000 A 
ATOM      5  C   UNL     1       2.668   7.071  18.514  0.00  0.00    +0.000 A 
ATOM      6  C   UNL     1       2.741   5.871  19.233  0.00  0.00    +0.000 A 
ENDROOT
BRANCH   3   7
ATOM      7  N   UNL     1       0.554   9.179  20.682  0.00  0.00    +0.000 N 
ATOM      8  C   UNL     1       0.639   9.812  21.909  0.00  0.00    +0.000 C 
ATOM      9  O   UNL     1       1.454   9.517  22.780  0.00  0.00    +0.000 OA
ATOM     10  H   UNL     1      -0.053   9.588  19.976  0.00  0.00    +0.000 HD
BRANCH   8  11
ATOM     11  C   UNL     1      -0.306  10.904  22.114  0.00  0.00    +0.000 A 
ATOM     12  C   UNL     1      -1.237  10.987  23.136  0.00  0.00    +0.000 A 
ATOM     13  C   UNL     1      -2.027  12.171  23.064  0.00  0.00    +0.000 A 
ATOM     14  C   UNL     1      -1.676  12.951  21.987  0.00  0.00    +0.000 A 
ATOM     15  S   UNL     1      -0.408  12.258  21.071  0.00  0.00    +0.000 S 
ENDBRANCH   8  11
ENDBRANCH   3   7
BRANCH   6  16
ATOM     16  N   UNL     1       3.414   4.729  18.732  0.00  0.00    +0.000 N 
ATOM     17  C   UNL     1       2.898   3.794  17.849  0.00  0.00    +0.000 C 
ATOM     18  O   UNL     1       1.820   3.874  17.266  0.00  0.00    +0.000 OA
ATOM     19  H   UNL     1       4.389   4.658  19.012  0.00  0.00    +0.000 HD
BRANCH  17  20
ATOM     20  C   UNL     1       3.786   2.581  17.677  0.00  0.00    +0.000 C 
BRANCH  20  21
ATOM     21  C   UNL     1       4.822   2.772  16.562  0.00  0.00    +0.000 C 
BRANCH  21  22
ATOM     22  C   UNL     1       5.354   4.187  16.595  0.00  0.00    +0.000 C 
ATOM     23  O   UNL     1       4.818   5.062  15.918  0.00  0.00    +0.000 OA
ATOM     24  N   UNL     1       6.451   4.367  17.422  0.00  0.00    +0.000 N 
ATOM     25  H   UNL     1       6.918   3.537  17.769  0.00  0.00    +0.000 HD
BRANCH  24  26
ATOM     26  C   UNL     1       7.052   5.613  17.728  0.00  0.00    +0.000 A 
ATOM     27  C   UNL     1       6.884   6.748  16.932  0.00  0.00    +0.000 A 
ATOM     28  C   UNL     1       7.490   7.961  17.267  0.00  0.00    +0.000 A 
ATOM     29  C   UNL     1       8.278   8.068  18.413  0.00  0.00    +0.000 A 
ATOM     30  C   UNL     1       8.925   9.372  18.767  0.00  0.00    +0.000 C 
ATOM     31  C   UNL     1       8.444   6.939  19.222  0.00  0.00    +0.000 A 
ATOM     32  C   UNL     1       7.827   5.722  18.888  0.00  0.00    +0.000 A 
ENDBRANCH  24  26
ENDBRANCH  21  22
ENDBRANCH  20  21
ENDBRANCH  17  20
ENDBRANCH   6  16
BRANCH   1  34
ATOM     33  C   UNL     1       1.274   3.665  21.049  0.00  0.00    +0.000 C 
ATOM     34  O   UNL     1       2.296   4.657  21.243  0.00  0.00    +0.000 OA
ENDBRANCH   1  34
BRANCH   4  35
ATOM     35  O   UNL     1       1.913   9.408  18.429  0.00  0.00    +0.000 OA
ATOM     36  C   UNL     1       0.733   9.722  17.707  0.00  0.00    +0.000 C 
ENDBRANCH   4  35
TORSDOF 9
ENDMDL
