MODEL 1
REMARK VINA RESULT:      -7.8      0.000      0.000
REMARK  Name = 
REMARK  7 active torsions:
REMARK  status: ('A' for Active; 'I' for Inactive)
REMARK    1  A    between atoms: C_1  and  C_2
REMARK    2  A    between atoms: C_2  and  N_3
REMARK    3  A    between atoms: C_11  and  S_12
REMARK    4  A    between atoms: S_12  and  N_15
REMARK    5  A    between atoms: C_19  and  C_20
REMARK    6  A    between atoms: N_22  and  C_23
REMARK    7  A    between atoms: C_28  and  O_29
REMARK                            x       y       z     vdW  Elec       q    Type
REMARK                         _______ _______ _______ _____ _____    ______ ____
ROOT
ATOM      1  S   UNL     1       1.393   9.152  18.401  0.00  0.00    +0.000 S 
ATOM      2  O   UNL     1       1.944  10.155  17.517  0.00  0.00    +0.000 OA
ATOM      3  O   UNL     1       0.063   8.645  18.144  0.00  0.00    +0.000 OA
ENDROOT
BRANCH   1  12
ATOM      4  N   UNL     1       5.266   4.643  18.366  0.00  0.00    +0.000 N 
ATOM      5  C   UNL     1       4.713   3.785  19.344  0.00  0.00    +0.000 C 
ATOM      6  O   UNL     1       5.147   2.687  19.665  0.00  0.00    +0.000 OA
ATOM      7  C   UNL     1       3.525   4.502  19.755  0.00  0.00    +0.000 A 
ATOM      8  C   UNL     1       2.515   4.103  20.621  0.00  0.00    +0.000 A 
ATOM      9  C   UNL     1       1.384   4.924  20.678  0.00  0.00    +0.000 A 
ATOM     10  C   UNL     1       1.312   6.137  19.960  0.00  0.00    +0.000 A 
ATOM     11  C   UNL     1       2.392   6.604  19.166  0.00  0.00    +0.000 A 
ATOM     12  C   UNL     1       2.575   7.802  18.415  0.00  0.00    +0.000 A 
ATOM     13  C   UNL     1       3.677   7.911  17.516  0.00  0.00    +0.000 A 
ATOM     14  C   UNL     1       4.651   6.900  17.383  0.00  0.00    +0.000 A 
ATOM     15  C   UNL     1       4.504   5.809  18.220  0.00  0.00    +0.000 A 
ATOM     16  C   UNL     1       3.428   5.709  19.078  0.00  0.00    +0.000 A 
BRANCH   4  18
ATOM     17  C   UNL     1       7.629   4.712  17.711  0.00  0.00    +0.000 C 
ATOM     18  C   UNL     1       6.243   4.148  17.417  0.00  0.00    +0.000 C 
ENDBRANCH   4  18
ENDBRANCH   1  12
BRANCH   1  19
ATOM     19  N   UNL     1       1.392   9.838  19.941  0.00  0.00    +0.000 NA
ATOM     20  C   UNL     1       1.620   8.979  21.117  0.00  0.00    +0.000 C 
ATOM     21  C   UNL     1       0.298   9.038  21.850  0.00  0.00    +0.000 C 
ATOM     22  C   UNL     1      -0.123  10.489  21.687  0.00  0.00    +0.000 C 
ATOM     23  C   UNL     1       0.540  10.978  20.373  0.00  0.00    +0.000 C 
BRANCH  23  24
ATOM     24  C   UNL     1      -0.467  11.625  19.436  0.00  0.00    +0.000 C 
ATOM     25  O   UNL     1      -0.152  12.594  18.747  0.00  0.00    +0.000 OA
ATOM     26  N   UNL     1      -1.706  11.001  19.419  0.00  0.00    +0.000 N 
ATOM     27  H   UNL     1      -1.949  10.394  20.201  0.00  0.00    +0.000 HD
BRANCH  26  28
ATOM     28  C   UNL     1      -2.804  11.315  18.582  0.00  0.00    +0.000 A 
ATOM     29  C   UNL     1      -3.962  11.947  19.038  0.00  0.00    +0.000 A 
ATOM     30  C   UNL     1      -5.035  12.178  18.173  0.00  0.00    +0.000 A 
ATOM     31  C   UNL     1      -4.962  11.784  16.840  0.00  0.00    +0.000 A 
ATOM     32  C   UNL     1      -3.800  11.185  16.356  0.00  0.00    +0.000 A 
ATOM     33  C   UNL     1      -2.725  10.968  17.222  0.00  0.00    +0.000 A 
BRANCH  33  34
ATOM     34  O   UNL     1      -1.565  10.409  16.752  0.00  0.00    +0.000 OA
ATOM     35  H   UNL     1      -1.574  10.467  15.779  0.00  0.00    +0.000 HD
ENDBRANCH  33  34
ENDBRANCH  26  28
ENDBRANCH  23  24
ENDBRANCH   1  19
TORSDOF 6
ENDMDL
MODEL 2
REMARK VINA RESULT:      -7.7      2.595      4.547
REMARK  Name = 
REMARK  7 active torsions:
REMARK  status: ('A' for Active; 'I' for Inactive)
REMARK    1  A    between atoms: C_1  and  C_2
REMARK    2  A    between atoms: C_2  and  N_3
REMARK    3  A    between atoms: C_11  and  S_12
REMARK    4  A    between atoms: S_12  and  N_15
REMARK    5  A    between atoms: C_19  and  C_20
REMARK    6  A    between atoms: N_22  and  C_23
REMARK    7  A    between atoms: C_28  and  O_29
REMARK                            x       y       z     vdW  Elec       q    Type
REMARK                         _______ _______ _______ _____ _____    ______ ____
ROOT
ATOM      1  S   UNL     1       0.844  10.417  19.502  0.00  0.00    +0.000 S 
ATOM      2  O   UNL     1       1.121  11.088  20.752  0.00  0.00    +0.000 OA
ATOM      3  O   UNL     1       1.460  10.909  18.290  0.00  0.00    +0.000 OA
ENDROOT
BRANCH   1  12
ATOM      4  N   UNL     1       2.364   4.743  20.419  0.00  0.00    +0.000 N 
ATOM      5  C   UNL     1       3.155   4.472  19.278  0.00  0.00    +0.000 C 
ATOM      6  O   UNL     1       3.736   3.422  19.039  0.00  0.00    +0.000 OA
ATOM      7  C   UNL     1       3.142   5.740  18.580  0.00  0.00    +0.000 A 
ATOM      8  C   UNL     1       3.838   6.119  17.438  0.00  0.00    +0.000 A 
ATOM      9  C   UNL     1       3.784   7.475  17.100  0.00  0.00    +0.000 A 
ATOM     10  C   UNL     1       2.995   8.391  17.829  0.00  0.00    +0.000 A 
ATOM     11  C   UNL     1       2.192   7.982  18.925  0.00  0.00    +0.000 A 
ATOM     12  C   UNL     1       1.282   8.695  19.759  0.00  0.00    +0.000 A 
ATOM     13  C   UNL     1       0.778   8.080  20.944  0.00  0.00    +0.000 A 
ATOM     14  C   UNL     1       1.087   6.751  21.300  0.00  0.00    +0.000 A 
ATOM     15  C   UNL     1       1.872   6.054  20.399  0.00  0.00    +0.000 A 
ATOM     16  C   UNL     1       2.363   6.663  19.262  0.00  0.00    +0.000 A 
BRANCH   4  18
ATOM     17  C   UNL     1       1.390   2.768  21.497  0.00  0.00    +0.000 C 
ATOM     18  C   UNL     1       2.428   3.882  21.583  0.00  0.00    +0.000 C 
ENDBRANCH   4  18
ENDBRANCH   1  12
BRANCH   1  19
ATOM     19  N   UNL     1      -0.827  10.486  19.294  0.00  0.00    +0.000 NA
ATOM     20  C   UNL     1      -1.469   9.625  18.285  0.00  0.00    +0.000 C 
ATOM     21  C   UNL     1      -2.001  10.615  17.273  0.00  0.00    +0.000 C 
ATOM     22  C   UNL     1      -2.507  11.756  18.140  0.00  0.00    +0.000 C 
ATOM     23  C   UNL     1      -1.660  11.710  19.438  0.00  0.00    +0.000 C 
BRANCH  23  24
ATOM     24  C   UNL     1      -1.047  13.062  19.764  0.00  0.00    +0.000 C 
ATOM     25  O   UNL     1      -1.153  13.546  20.889  0.00  0.00    +0.000 OA
ATOM     26  N   UNL     1      -0.353  13.638  18.709  0.00  0.00    +0.000 N 
ATOM     27  H   UNL     1      -0.545  13.300  17.767  0.00  0.00    +0.000 HD
BRANCH  26  28
ATOM     28  C   UNL     1       0.399  14.837  18.740  0.00  0.00    +0.000 A 
ATOM     29  C   UNL     1      -0.170  16.104  18.599  0.00  0.00    +0.000 A 
ATOM     30  C   UNL     1       0.634  17.247  18.580  0.00  0.00    +0.000 A 
ATOM     31  C   UNL     1       2.016  17.138  18.709  0.00  0.00    +0.000 A 
ATOM     32  C   UNL     1       2.599  15.885  18.888  0.00  0.00    +0.000 A 
ATOM     33  C   UNL     1       1.790  14.746  18.919  0.00  0.00    +0.000 A 
BRANCH  33  34
ATOM     34  O   UNL     1       2.348  13.512  19.127  0.00  0.00    +0.000 OA
ATOM     35  H   UNL     1       2.041  12.917  18.417  0.00  0.00    +0.000 HD
ENDBRANCH  33  34
ENDBRANCH  26  28
ENDBRANCH  23  24
ENDBRANCH   1  19
TORSDOF 6
ENDMDL
MODEL 3
REMARK VINA RESULT:      -7.6      2.863      8.262
REMARK  Name = 
REMARK  7 active torsions:
REMARK  status: ('A' for Active; 'I' for Inactive)
REMARK    1  A    between atoms: C_1  and  C_2
REMARK    2  A    between atoms: C_2  and  N_3
REMARK    3  A    between atoms: C_11  and  S_12
REMARK    4  A    between atoms: S_12  and  N_15
REMARK    5  A    between atoms: C_19  and  C_20
REMARK    6  A    between atoms: N_22  and  C_23
REMARK    7  A    between atoms: C_28  and  O_29
REMARK                            x       y       z     vdW  Elec       q    Type
REMARK                         _______ _______ _______ _____ _____    ______ ____
ROOT
ATOM      1  S   UNL     1       2.617   5.653  20.066  0.00  0.00    +0.000 S 
ATOM      2  O   UNL     1       3.934   5.484  19.496  0.00  0.00    +0.000 OA
ATOM      3  O   UNL     1       2.434   5.439  21.484  0.00  0.00    +0.000 OA
ENDROOT
BRANCH   1  12
ATOM      4  N   UNL     1       0.978  11.182  18.623  0.00  0.00    +0.000 N 
ATOM      5  C   UNL     1       0.171  11.538  19.728  0.00  0.00    +0.000 C 
ATOM      6  O   UNL     1      -0.368  12.621  19.906  0.00  0.00    +0.000 OA
ATOM      7  C   UNL     1       0.242  10.356  20.560  0.00  0.00    +0.000 A 
ATOM      8  C   UNL     1      -0.269  10.150  21.837  0.00  0.00    +0.000 A 
ATOM      9  C   UNL     1       0.123   8.972  22.481  0.00  0.00    +0.000 A 
ATOM     10  C   UNL     1       0.924   8.006  21.835  0.00  0.00    +0.000 A 
ATOM     11  C   UNL     1       1.350   8.162  20.490  0.00  0.00    +0.000 A 
ATOM     12  C   UNL     1       2.095   7.312  19.621  0.00  0.00    +0.000 A 
ATOM     13  C   UNL     1       2.582   7.821  18.380  0.00  0.00    +0.000 A 
ATOM     14  C   UNL     1       2.297   9.127  17.932  0.00  0.00    +0.000 A 
ATOM     15  C   UNL     1       1.467   9.876  18.748  0.00  0.00    +0.000 A 
ATOM     16  C   UNL     1       1.011   9.377  19.950  0.00  0.00    +0.000 A 
BRANCH   4  18
ATOM     17  C   UNL     1       2.697  12.911  18.358  0.00  0.00    +0.000 C 
ATOM     18  C   UNL     1       1.502  12.199  17.734  0.00  0.00    +0.000 C 
ENDBRANCH   4  18
ENDBRANCH   1  12
BRANCH   1  19
ATOM     19  N   UNL     1       1.612   4.573  19.251  0.00  0.00    +0.000 NA
ATOM     20  C   UNL     1       0.530   3.893  19.985  0.00  0.00    +0.000 C 
ATOM     21  C   UNL     1       0.951   2.441  19.955  0.00  0.00    +0.000 C 
ATOM     22  C   UNL     1       1.523   2.276  18.557  0.00  0.00    +0.000 C 
ATOM     23  C   UNL     1       2.035   3.679  18.140  0.00  0.00    +0.000 C 
BRANCH  23  24
ATOM     24  C   UNL     1       3.473   3.636  17.649  0.00  0.00    +0.000 C 
ATOM     25  O   UNL     1       4.254   2.782  18.066  0.00  0.00    +0.000 OA
ATOM     26  N   UNL     1       3.774   4.596  16.694  0.00  0.00    +0.000 N 
ATOM     27  H   UNL     1       3.159   5.405  16.616  0.00  0.00    +0.000 HD
BRANCH  26  28
ATOM     28  C   UNL     1       4.993   4.739  15.988  0.00  0.00    +0.000 A 
ATOM     29  C   UNL     1       5.273   4.071  14.795  0.00  0.00    +0.000 A 
ATOM     30  C   UNL     1       6.518   4.210  14.176  0.00  0.00    +0.000 A 
ATOM     31  C   UNL     1       7.497   5.025  14.739  0.00  0.00    +0.000 A 
ATOM     32  C   UNL     1       7.224   5.729  15.910  0.00  0.00    +0.000 A 
ATOM     33  C   UNL     1       5.973   5.596  16.518  0.00  0.00    +0.000 A 
BRANCH  33  34
ATOM     34  O   UNL     1       5.680   6.309  17.652  0.00  0.00    +0.000 OA
ATOM     35  H   UNL     1       6.281   6.012  18.360  0.00  0.00    +0.000 HD
ENDBRANCH  33  34
ENDBRANCH  26  28
ENDBRANCH  23  24
ENDBRANCH   1  19
TORSDOF 6
ENDMDL
MODEL 4
REMARK VINA RESULT:      -7.4      0.815      1.204
REMARK  Name = 
REMARK  7 active torsions:
REMARK  status: ('A' for Active; 'I' for Inactive)
REMARK    1  A    between atoms: C_1  and  C_2
REMARK    2  A    between atoms: C_2  and  N_3
REMARK    3  A    between atoms: C_11  and  S_12
REMARK    4  A    between atoms: S_12  and  N_15
REMARK    5  A    between atoms: C_19  and  C_20
REMARK    6  A    between atoms: N_22  and  C_23
REMARK    7  A    between atoms: C_28  and  O_29
REMARK                            x       y       z     vdW  Elec       q    Type
REMARK                         _______ _______ _______ _____ _____    ______ ____
ROOT
ATOM      1  S   UNL     1       1.531   8.985  18.215  0.00  0.00    +0.000 S 
ATOM      2  O   UNL     1       2.174  10.030  17.450  0.00  0.00    +0.000 OA
ATOM      3  O   UNL     1       0.245   8.487  17.780  0.00  0.00    +0.000 OA
ENDROOT
BRANCH   1  12
ATOM      4  N   UNL     1       5.415   4.490  18.426  0.00  0.00    +0.000 N 
ATOM      5  C   UNL     1       4.795   3.621  19.354  0.00  0.00    +0.000 C 
ATOM      6  O   UNL     1       5.208   2.522  19.697  0.00  0.00    +0.000 OA
ATOM      7  C   UNL     1       3.577   4.331  19.682  0.00  0.00    +0.000 A 
ATOM      8  C   UNL     1       2.508   3.920  20.469  0.00  0.00    +0.000 A 
ATOM      9  C   UNL     1       1.373   4.737  20.450  0.00  0.00    +0.000 A 
ATOM     10  C   UNL     1       1.348   5.956  19.739  0.00  0.00    +0.000 A 
ATOM     11  C   UNL     1       2.481   6.434  19.030  0.00  0.00    +0.000 A 
ATOM     12  C   UNL     1       2.714   7.639  18.304  0.00  0.00    +0.000 A 
ATOM     13  C   UNL     1       3.879   7.759  17.490  0.00  0.00    +0.000 A 
ATOM     14  C   UNL     1       4.865   6.753  17.420  0.00  0.00    +0.000 A 
ATOM     15  C   UNL     1       4.660   5.654  18.235  0.00  0.00    +0.000 A 
ATOM     16  C   UNL     1       3.525   5.543  19.011  0.00  0.00    +0.000 A 
BRANCH   4  18
ATOM     17  C   UNL     1       7.782   4.715  17.825  0.00  0.00    +0.000 C 
ATOM     18  C   UNL     1       6.460   4.006  17.547  0.00  0.00    +0.000 C 
ENDBRANCH   4  18
ENDBRANCH   1  12
BRANCH   1  19
ATOM     19  N   UNL     1       1.344   9.596  19.774  0.00  0.00    +0.000 NA
ATOM     20  C   UNL     1       1.541   8.705  20.931  0.00  0.00    +0.000 C 
ATOM     21  C   UNL     1       0.162   8.626  21.547  0.00  0.00    +0.000 C 
ATOM     22  C   UNL     1      -0.361  10.046  21.405  0.00  0.00    +0.000 C 
ATOM     23  C   UNL     1       0.367  10.645  20.174  0.00  0.00    +0.000 C 
BRANCH  23  24
ATOM     24  C   UNL     1      -0.606  11.254  19.179  0.00  0.00    +0.000 C 
ATOM     25  O   UNL     1      -0.462  12.410  18.785  0.00  0.00    +0.000 OA
ATOM     26  N   UNL     1      -1.601  10.384  18.756  0.00  0.00    +0.000 N 
ATOM     27  H   UNL     1      -1.793   9.561  19.326  0.00  0.00    +0.000 HD
BRANCH  26  28
ATOM     28  C   UNL     1      -2.586  10.633  17.769  0.00  0.00    +0.000 A 
ATOM     29  C   UNL     1      -2.559  10.060  16.496  0.00  0.00    +0.000 A 
ATOM     30  C   UNL     1      -3.529  10.392  15.547  0.00  0.00    +0.000 A 
ATOM     31  C   UNL     1      -4.541  11.296  15.860  0.00  0.00    +0.000 A 
ATOM     32  C   UNL     1      -4.606  11.850  17.137  0.00  0.00    +0.000 A 
ATOM     33  C   UNL     1      -3.641  11.505  18.087  0.00  0.00    +0.000 A 
BRANCH  33  34
ATOM     34  O   UNL     1      -3.712  12.018  19.356  0.00  0.00    +0.000 OA
ATOM     35  H   UNL     1      -4.631  11.930  19.668  0.00  0.00    +0.000 HD
ENDBRANCH  33  34
ENDBRANCH  26  28
ENDBRANCH  23  24
ENDBRANCH   1  19
TORSDOF 6
ENDMDL
MODEL 5
REMARK VINA RESULT:      -7.4      2.755      8.551
REMARK  Name = 
REMARK  7 active torsions:
REMARK  status: ('A' for Active; 'I' for Inactive)
REMARK    1  A    between atoms: C_1  and  C_2
REMARK    2  A    between atoms: C_2  and  N_3
REMARK    3  A    between atoms: C_11  and  S_12
REMARK    4  A    between atoms: S_12  and  N_15
REMARK    5  A    between atoms: C_19  and  C_20
REMARK    6  A    between atoms: N_22  and  C_23
REMARK    7  A    between atoms: C_28  and  O_29
REMARK                            x       y       z     vdW  Elec       q    Type
REMARK                         _______ _______ _______ _____ _____    ______ ____
ROOT
ATOM      1  S   UNL     1       2.522   5.314  20.367  0.00  0.00    +0.000 S 
ATOM      2  O   UNL     1       3.766   5.486  19.650  0.00  0.00    +0.000 OA
ATOM      3  O   UNL     1       2.546   4.700  21.676  0.00  0.00    +0.000 OA
ENDROOT
BRANCH   1  12
ATOM      4  N   UNL     1      -0.025  10.677  20.654  0.00  0.00    +0.000 N 
ATOM      5  C   UNL     1       0.500  11.305  19.501  0.00  0.00    +0.000 C 
ATOM      6  O   UNL     1       0.227  12.430  19.107  0.00  0.00    +0.000 OA
ATOM      7  C   UNL     1       1.326  10.264  18.928  0.00  0.00    +0.000 A 
ATOM      8  C   UNL     1       2.017  10.257  17.722  0.00  0.00    +0.000 A 
ATOM      9  C   UNL     1       2.573   9.034  17.331  0.00  0.00    +0.000 A 
ATOM     10  C   UNL     1       2.510   7.893  18.159  0.00  0.00    +0.000 A 
ATOM     11  C   UNL     1       1.906   7.930  19.443  0.00  0.00    +0.000 A 
ATOM     12  C   UNL     1       1.779   6.944  20.465  0.00  0.00    +0.000 A 
ATOM     13  C   UNL     1       0.915   7.185  21.575  0.00  0.00    +0.000 A 
ATOM     14  C   UNL     1       0.221   8.401  21.748  0.00  0.00    +0.000 A 
ATOM     15  C   UNL     1       0.470   9.375  20.798  0.00  0.00    +0.000 A 
ATOM     16  C   UNL     1       1.299   9.128  19.723  0.00  0.00    +0.000 A 
BRANCH   4  18
ATOM     17  C   UNL     1      -0.808  12.113  22.482  0.00  0.00    +0.000 C 
ATOM     18  C   UNL     1      -1.199  11.212  21.316  0.00  0.00    +0.000 C 
ENDBRANCH   4  18
ENDBRANCH   1  12
BRANCH   1  19
ATOM     19  N   UNL     1       1.538   4.370  19.376  0.00  0.00    +0.000 NA
ATOM     20  C   UNL     1       0.415   3.623  19.969  0.00  0.00    +0.000 C 
ATOM     21  C   UNL     1       0.815   2.178  19.766  0.00  0.00    +0.000 C 
ATOM     22  C   UNL     1       1.446   2.185  18.383  0.00  0.00    +0.000 C 
ATOM     23  C   UNL     1       1.996   3.620  18.176  0.00  0.00    +0.000 C 
BRANCH  23  24
ATOM     24  C   UNL     1       3.453   3.612  17.744  0.00  0.00    +0.000 C 
ATOM     25  O   UNL     1       4.234   2.768  18.181  0.00  0.00    +0.000 OA
ATOM     26  N   UNL     1       3.774   4.592  16.815  0.00  0.00    +0.000 N 
ATOM     27  H   UNL     1       3.146   5.390  16.723  0.00  0.00    +0.000 HD
BRANCH  26  28
ATOM     28  C   UNL     1       5.018   4.769  16.161  0.00  0.00    +0.000 A 
ATOM     29  C   UNL     1       5.362   4.118  14.975  0.00  0.00    +0.000 A 
ATOM     30  C   UNL     1       6.628   4.291  14.410  0.00  0.00    +0.000 A 
ATOM     31  C   UNL     1       7.564   5.122  15.021  0.00  0.00    +0.000 A 
ATOM     32  C   UNL     1       7.226   5.809  16.185  0.00  0.00    +0.000 A 
ATOM     33  C   UNL     1       5.955   5.643  16.739  0.00  0.00    +0.000 A 
BRANCH  33  34
ATOM     34  O   UNL     1       5.599   6.338  17.866  0.00  0.00    +0.000 OA
ATOM     35  H   UNL     1       4.626   6.342  17.925  0.00  0.00    +0.000 HD
ENDBRANCH  33  34
ENDBRANCH  26  28
ENDBRANCH  23  24
ENDBRANCH   1  19
TORSDOF 6
ENDMDL
MODEL 6
REMARK VINA RESULT:      -7.3      2.634      4.670
REMARK  Name = 
REMARK  7 active torsions:
REMARK  status: ('A' for Active; 'I' for Inactive)
REMARK    1  A    between atoms: C_1  and  C_2
REMARK    2  A    between atoms: C_2  and  N_3
REMARK    3  A    between atoms: C_11  and  S_12
REMARK    4  A    between atoms: S_12  and  N_15
REMARK    5  A    between atoms: C_19  and  C_20
REMARK    6  A    between atoms: N_22  and  C_23
REMARK    7  A    between atoms: C_28  and  O_29
REMARK                            x       y       z     vdW  Elec       q    Type
REMARK                         _______ _______ _______ _____ _____    ______ ____
ROOT
ATOM      1  S   UNL     1       1.021  10.369  19.370  0.00  0.00    +0.000 S 
ATOM      2  O   UNL     1       1.365  11.064  20.590  0.00  0.00    +0.000 OA
ATOM      3  O   UNL     1       1.611  10.805  18.124  0.00  0.00    +0.000 OA
ENDROOT
BRANCH   1  12
ATOM      4  N   UNL     1       2.365   4.671  20.400  0.00  0.00    +0.000 N 
ATOM      5  C   UNL     1       3.151   4.354  19.268  0.00  0.00    +0.000 C 
ATOM      6  O   UNL     1       3.700   3.283  19.050  0.00  0.00    +0.000 OA
ATOM      7  C   UNL     1       3.178   5.608  18.545  0.00  0.00    +0.000 A 
ATOM      8  C   UNL     1       3.888   5.944  17.399  0.00  0.00    +0.000 A 
ATOM      9  C   UNL     1       3.877   7.294  17.034  0.00  0.00    +0.000 A 
ATOM     10  C   UNL     1       3.114   8.247  17.743  0.00  0.00    +0.000 A 
ATOM     11  C   UNL     1       2.296   7.884  18.845  0.00  0.00    +0.000 A 
ATOM     12  C   UNL     1       1.405   8.641  19.662  0.00  0.00    +0.000 A 
ATOM     13  C   UNL     1       0.879   8.063  20.856  0.00  0.00    +0.000 A 
ATOM     14  C   UNL     1       1.147   6.733  21.238  0.00  0.00    +0.000 A 
ATOM     15  C   UNL     1       1.913   5.996  20.353  0.00  0.00    +0.000 A 
ATOM     16  C   UNL     1       2.426   6.567  19.207  0.00  0.00    +0.000 A 
BRANCH   4  18
ATOM     17  C   UNL     1       1.326   2.749  21.514  0.00  0.00    +0.000 C 
ATOM     18  C   UNL     1       2.399   3.830  21.580  0.00  0.00    +0.000 C 
ENDBRANCH   4  18
ENDBRANCH   1  12
BRANCH   1  19
ATOM     19  N   UNL     1      -0.653  10.495  19.217  0.00  0.00    +0.000 NA
ATOM     20  C   UNL     1      -1.353   9.673  18.214  0.00  0.00    +0.000 C 
ATOM     21  C   UNL     1      -1.886  10.698  17.238  0.00  0.00    +0.000 C 
ATOM     22  C   UNL     1      -2.328  11.838  18.142  0.00  0.00    +0.000 C 
ATOM     23  C   UNL     1      -1.442  11.741  19.411  0.00  0.00    +0.000 C 
BRANCH  23  24
ATOM     24  C   UNL     1      -0.776  13.067  19.741  0.00  0.00    +0.000 C 
ATOM     25  O   UNL     1      -0.990  13.628  20.814  0.00  0.00    +0.000 OA
ATOM     26  N   UNL     1       0.089  13.526  18.758  0.00  0.00    +0.000 N 
ATOM     27  H   UNL     1      -0.005  13.142  17.819  0.00  0.00    +0.000 HD
BRANCH  26  28
ATOM     28  C   UNL     1       0.919  14.672  18.824  0.00  0.00    +0.000 A 
ATOM     29  C   UNL     1       2.312  14.609  18.889  0.00  0.00    +0.000 A 
ATOM     30  C   UNL     1       3.071  15.776  19.010  0.00  0.00    +0.000 A 
ATOM     31  C   UNL     1       2.448  17.020  19.062  0.00  0.00    +0.000 A 
ATOM     32  C   UNL     1       1.060  17.105  18.961  0.00  0.00    +0.000 A 
ATOM     33  C   UNL     1       0.306  15.937  18.827  0.00  0.00    +0.000 A 
BRANCH  33  34
ATOM     34  O   UNL     1      -1.056  16.009  18.694  0.00  0.00    +0.000 OA
ATOM     35  H   UNL     1      -1.431  16.267  19.556  0.00  0.00    +0.000 HD
ENDBRANCH  33  34
ENDBRANCH  26  28
ENDBRANCH  23  24
ENDBRANCH   1  19
TORSDOF 6
ENDMDL
MODEL 7
REMARK VINA RESULT:      -7.2      2.490      3.624
REMARK  Name = 
REMARK  7 active torsions:
REMARK  status: ('A' for Active; 'I' for Inactive)
REMARK    1  A    between atoms: C_1  and  C_2
REMARK    2  A    between atoms: C_2  and  N_3
REMARK    3  A    between atoms: C_11  and  S_12
REMARK    4  A    between atoms: S_12  and  N_15
REMARK    5  A    between atoms: C_19  and  C_20
REMARK    6  A    between atoms: N_22  and  C_23
REMARK    7  A    between atoms: C_28  and  O_29
REMARK                            x       y       z     vdW  Elec       q    Type
REMARK                         _______ _______ _______ _____ _____    ______ ____
ROOT
ATOM      1  S   UNL     1       1.404   9.524  18.613  0.00  0.00    +0.000 S 
ATOM      2  O   UNL     1       2.114  10.643  18.036  0.00  0.00    +0.000 OA
ATOM      3  O   UNL     1       0.101   9.175  18.092  0.00  0.00    +0.000 OA
ENDROOT
BRANCH   1  12
ATOM      4  N   UNL     1       5.024   4.834  18.123  0.00  0.00    +0.000 N 
ATOM      5  C   UNL     1       4.568   4.010  19.178  0.00  0.00    +0.000 C 
ATOM      6  O   UNL     1       4.989   2.895  19.453  0.00  0.00    +0.000 OA
ATOM      7  C   UNL     1       3.481   4.787  19.734  0.00  0.00    +0.000 A 
ATOM      8  C   UNL     1       2.579   4.443  20.733  0.00  0.00    +0.000 A 
ATOM      9  C   UNL     1       1.506   5.318  20.930  0.00  0.00    +0.000 A 
ATOM     10  C   UNL     1       1.394   6.528  20.211  0.00  0.00    +0.000 A 
ATOM     11  C   UNL     1       2.378   6.936  19.273  0.00  0.00    +0.000 A 
ATOM     12  C   UNL     1       2.514   8.118  18.487  0.00  0.00    +0.000 A 
ATOM     13  C   UNL     1       3.489   8.167  17.447  0.00  0.00    +0.000 A 
ATOM     14  C   UNL     1       4.388   7.110  17.199  0.00  0.00    +0.000 A 
ATOM     15  C   UNL     1       4.304   6.033  18.064  0.00  0.00    +0.000 A 
ATOM     16  C   UNL     1       3.350   5.992  19.060  0.00  0.00    +0.000 A 
BRANCH   4  18
ATOM     17  C   UNL     1       7.302   4.684  17.226  0.00  0.00    +0.000 C 
ATOM     18  C   UNL     1       5.840   4.285  17.058  0.00  0.00    +0.000 C 
ENDBRANCH   4  18
ENDBRANCH   1  12
BRANCH   1  19
ATOM     19  N   UNL     1       1.224   9.879  20.250  0.00  0.00    +0.000 NA
ATOM     20  C   UNL     1       0.497   8.938  21.121  0.00  0.00    +0.000 C 
ATOM     21  C   UNL     1      -0.729   9.723  21.530  0.00  0.00    +0.000 C 
ATOM     22  C   UNL     1      -0.186  11.127  21.740  0.00  0.00    +0.000 C 
ATOM     23  C   UNL     1       1.056  11.243  20.820  0.00  0.00    +0.000 C 
BRANCH  23  24
ATOM     24  C   UNL     1       0.995  12.478  19.936  0.00  0.00    +0.000 C 
ATOM     25  O   UNL     1      -0.041  12.778  19.345  0.00  0.00    +0.000 OA
ATOM     26  N   UNL     1       2.172  13.213  19.908  0.00  0.00    +0.000 N 
ATOM     27  H   UNL     1       3.033  12.752  20.203  0.00  0.00    +0.000 HD
BRANCH  26  28
ATOM     28  C   UNL     1       2.385  14.452  19.257  0.00  0.00    +0.000 A 
ATOM     29  C   UNL     1       1.839  15.657  19.701  0.00  0.00    +0.000 A 
ATOM     30  C   UNL     1       2.040  16.838  18.981  0.00  0.00    +0.000 A 
ATOM     31  C   UNL     1       2.794  16.829  17.810  0.00  0.00    +0.000 A 
ATOM     32  C   UNL     1       3.378  15.642  17.371  0.00  0.00    +0.000 A 
ATOM     33  C   UNL     1       3.186  14.467  18.101  0.00  0.00    +0.000 A 
BRANCH  33  34
ATOM     34  O   UNL     1       3.781  13.301  17.697  0.00  0.00    +0.000 OA
ATOM     35  H   UNL     1       4.403  13.021  18.395  0.00  0.00    +0.000 HD
ENDBRANCH  33  34
ENDBRANCH  26  28
ENDBRANCH  23  24
ENDBRANCH   1  19
TORSDOF 6
ENDMDL
MODEL 8
REMARK VINA RESULT:      -7.2      5.064      8.538
REMARK  Name = 
REMARK  7 active torsions:
REMARK  status: ('A' for Active; 'I' for Inactive)
REMARK    1  A    between atoms: C_1  and  C_2
REMARK    2  A    between atoms: C_2  and  N_3
REMARK    3  A    between atoms: C_11  and  S_12
REMARK    4  A    between atoms: S_12  and  N_15
REMARK    5  A    between atoms: C_19  and  C_20
REMARK    6  A    between atoms: N_22  and  C_23
REMARK    7  A    between atoms: C_28  and  O_29
REMARK                            x       y       z     vdW  Elec       q    Type
REMARK                         _______ _______ _______ _____ _____    ______ ____
ROOT
ATOM      1  S   UNL     1      -1.169  11.792  19.829  0.00  0.00    +0.000 S 
ATOM      2  O   UNL     1      -2.413  12.099  20.500  0.00  0.00    +0.000 OA
ATOM      3  O   UNL     1      -1.201  10.998  18.622  0.00  0.00    +0.000 OA
ENDROOT
BRANCH   1  12
ATOM      4  N   UNL     1       1.403  17.025  18.672  0.00  0.00    +0.000 N 
ATOM      5  C   UNL     1       2.708  16.626  18.301  0.00  0.00    +0.000 C 
ATOM      6  O   UNL     1       3.608  17.366  17.929  0.00  0.00    +0.000 OA
ATOM      7  C   UNL     1       2.634  15.184  18.402  0.00  0.00    +0.000 A 
ATOM      8  C   UNL     1       3.585  14.231  18.058  0.00  0.00    +0.000 A 
ATOM      9  C   UNL     1       3.164  12.897  18.078  0.00  0.00    +0.000 A 
ATOM     10  C   UNL     1       1.870  12.535  18.509  0.00  0.00    +0.000 A 
ATOM     11  C   UNL     1       0.936  13.498  18.973  0.00  0.00    +0.000 A 
ATOM     12  C   UNL     1      -0.380  13.371  19.507  0.00  0.00    +0.000 A 
ATOM     13  C   UNL     1      -1.187  14.535  19.681  0.00  0.00    +0.000 A 
ATOM     14  C   UNL     1      -0.713  15.835  19.410  0.00  0.00    +0.000 A 
ATOM     15  C   UNL     1       0.609  15.923  19.013  0.00  0.00    +0.000 A 
ATOM     16  C   UNL     1       1.377  14.790  18.838  0.00  0.00    +0.000 A 
BRANCH   4  18
ATOM     17  C   UNL     1       0.419  18.403  16.898  0.00  0.00    +0.000 C 
ATOM     18  C   UNL     1       0.913  18.348  18.339  0.00  0.00    +0.000 C 
ENDBRANCH   4  18
ENDBRANCH   1  12
BRANCH   1  19
ATOM     19  N   UNL     1      -0.220  10.975  20.956  0.00  0.00    +0.000 NA
ATOM     20  C   UNL     1       0.266   9.618  20.648  0.00  0.00    +0.000 C 
ATOM     21  C   UNL     1      -0.450   8.755  21.663  0.00  0.00    +0.000 C 
ATOM     22  C   UNL     1      -0.425   9.608  22.920  0.00  0.00    +0.000 C 
ATOM     23  C   UNL     1      -0.360  11.079  22.434  0.00  0.00    +0.000 C 
BRANCH  23  24
ATOM     24  C   UNL     1      -1.436  11.938  23.077  0.00  0.00    +0.000 C 
ATOM     25  O   UNL     1      -2.454  11.427  23.541  0.00  0.00    +0.000 OA
ATOM     26  N   UNL     1      -1.131  13.291  23.117  0.00  0.00    +0.000 N 
ATOM     27  H   UNL     1      -0.412  13.640  22.485  0.00  0.00    +0.000 HD
BRANCH  26  28
ATOM     28  C   UNL     1      -1.889  14.315  23.736  0.00  0.00    +0.000 A 
ATOM     29  C   UNL     1      -1.438  15.045  24.837  0.00  0.00    +0.000 A 
ATOM     30  C   UNL     1      -2.257  16.004  25.439  0.00  0.00    +0.000 A 
ATOM     31  C   UNL     1      -3.535  16.249  24.943  0.00  0.00    +0.000 A 
ATOM     32  C   UNL     1      -3.989  15.556  23.822  0.00  0.00    +0.000 A 
ATOM     33  C   UNL     1      -3.161  14.608  23.217  0.00  0.00    +0.000 A 
BRANCH  33  34
ATOM     34  O   UNL     1      -3.583  13.943  22.095  0.00  0.00    +0.000 OA
ATOM     35  H   UNL     1      -3.173  13.058  22.095  0.00  0.00    +0.000 HD
ENDBRANCH  33  34
ENDBRANCH  26  28
ENDBRANCH  23  24
ENDBRANCH   1  19
TORSDOF 6
ENDMDL
MODEL 9
REMARK VINA RESULT:      -7.1      2.659      4.697
REMARK  Name = 
REMARK  7 active torsions:
REMARK  status: ('A' for Active; 'I' for Inactive)
REMARK    1  A    between atoms: C_1  and  C_2
REMARK    2  A    between atoms: C_2  and  N_3
REMARK    3  A    between atoms: C_11  and  S_12
REMARK    4  A    between atoms: S_12  and  N_15
REMARK    5  A    between atoms: C_19  and  C_20
REMARK    6  A    between atoms: N_22  and  C_23
REMARK    7  A    between atoms: C_28  and  O_29
REMARK                            x       y       z     vdW  Elec       q    Type
REMARK                         _______ _______ _______ _____ _____    ______ ____
ROOT
ATOM      1  S   UNL     1       0.987  10.386  19.429  0.00  0.00    +0.000 S 
ATOM      2  O   UNL     1       1.245  11.059  20.683  0.00  0.00    +0.000 OA
ATOM      3  O   UNL     1       1.645  10.858  18.231  0.00  0.00    +0.000 OA
ENDROOT
BRANCH   1  12
ATOM      4  N   UNL     1       2.357   4.686  20.413  0.00  0.00    +0.000 N 
ATOM      5  C   UNL     1       3.134   4.378  19.272  0.00  0.00    +0.000 C 
ATOM      6  O   UNL     1       3.684   3.310  19.044  0.00  0.00    +0.000 OA
ATOM      7  C   UNL     1       3.151   5.636  18.557  0.00  0.00    +0.000 A 
ATOM      8  C   UNL     1       3.850   5.982  17.406  0.00  0.00    +0.000 A 
ATOM      9  C   UNL     1       3.832   7.334  17.050  0.00  0.00    +0.000 A 
ATOM     10  C   UNL     1       3.072   8.280  17.772  0.00  0.00    +0.000 A 
ATOM     11  C   UNL     1       2.265   7.908  18.878  0.00  0.00    +0.000 A 
ATOM     12  C   UNL     1       1.379   8.657  19.707  0.00  0.00    +0.000 A 
ATOM     13  C   UNL     1       0.865   8.071  20.902  0.00  0.00    +0.000 A 
ATOM     14  C   UNL     1       1.140   6.739  21.274  0.00  0.00    +0.000 A 
ATOM     15  C   UNL     1       1.901   6.009  20.378  0.00  0.00    +0.000 A 
ATOM     16  C   UNL     1       2.402   6.589  19.231  0.00  0.00    +0.000 A 
BRANCH   4  18
ATOM     17  C   UNL     1       1.354   2.735  21.510  0.00  0.00    +0.000 C 
ATOM     18  C   UNL     1       2.404   3.838  21.588  0.00  0.00    +0.000 C 
ENDBRANCH   4  18
ENDBRANCH   1  12
BRANCH   1  19
ATOM     19  N   UNL     1      -0.676  10.491  19.176  0.00  0.00    +0.000 NA
ATOM     20  C   UNL     1      -1.318   9.602  18.191  0.00  0.00    +0.000 C 
ATOM     21  C   UNL     1      -1.798  10.559  17.123  0.00  0.00    +0.000 C 
ATOM     22  C   UNL     1      -2.292  11.752  17.924  0.00  0.00    +0.000 C 
ATOM     23  C   UNL     1      -1.477  11.743  19.244  0.00  0.00    +0.000 C 
BRANCH  23  24
ATOM     24  C   UNL     1      -0.834  13.091  19.523  0.00  0.00    +0.000 C 
ATOM     25  O   UNL     1      -0.468  13.816  18.600  0.00  0.00    +0.000 OA
ATOM     26  N   UNL     1      -0.752  13.411  20.871  0.00  0.00    +0.000 N 
ATOM     27  H   UNL     1      -0.831  12.653  21.549  0.00  0.00    +0.000 HD
BRANCH  26  28
ATOM     28  C   UNL     1      -0.295  14.629  21.430  0.00  0.00    +0.000 A 
ATOM     29  C   UNL     1      -1.129  15.719  21.683  0.00  0.00    +0.000 A 
ATOM     30  C   UNL     1      -0.606  16.915  22.182  0.00  0.00    +0.000 A 
ATOM     31  C   UNL     1       0.757  17.033  22.440  0.00  0.00    +0.000 A 
ATOM     32  C   UNL     1       1.600  15.944  22.229  0.00  0.00    +0.000 A 
ATOM     33  C   UNL     1       1.070  14.746  21.742  0.00  0.00    +0.000 A 
BRANCH  33  34
ATOM     34  O   UNL     1       1.883  13.658  21.561  0.00  0.00    +0.000 OA
ATOM     35  H   UNL     1       1.986  13.512  20.603  0.00  0.00    +0.000 HD
ENDBRANCH  33  34
ENDBRANCH  26  28
ENDBRANCH  23  24
ENDBRANCH   1  19
TORSDOF 6
ENDMDL
