MODEL 1
REMARK VINA RESULT:      -7.0      0.000      0.000
REMARK  Name = 
REMARK  2 active torsions:
REMARK  status: ('A' for Active; 'I' for Inactive)
REMARK    1  A    between atoms: C_2  and  C_9
REMARK    2  A    between atoms: C_13  and  N_14
REMARK                            x       y       z     vdW  Elec       q    Type
REMARK                         _______ _______ _______ _____ _____    ______ ____
ROOT
ATOM      1  O   UNL     1       2.431   6.490  19.861  0.00  0.00    +0.000 OA
ATOM      2  C   UNL     1       2.811   6.781  18.735  0.00  0.00    +0.000 C 
ATOM      3  N   UNL     1       2.575   7.947  18.031  0.00  0.00    +0.000 N 
ATOM      4  C   UNL     1       1.804   8.961  18.547  0.00  0.00    +0.000 A 
ATOM      5  N   UNL     1       1.200   9.032  19.709  0.00  0.00    +0.000 NA
ATOM      6  C   UNL     1       0.535  10.228  19.726  0.00  0.00    +0.000 A 
ATOM      7  C   UNL     1       0.748  10.916  18.558  0.00  0.00    +0.000 A 
ATOM      8  N   UNL     1       1.561  10.101  17.819  0.00  0.00    +0.000 N 
ATOM      9  H   UNL     1       2.897   8.033  17.082  0.00  0.00    +0.000 HD
ATOM     10  H   UNL     1       1.920  10.300  16.898  0.00  0.00    +0.000 HD
ENDROOT
BRANCH   2  11
ATOM     11  C   UNL     1       3.592   5.751  17.994  0.00  0.00    +0.000 A 
ATOM     12  C   UNL     1       3.015   4.547  17.562  0.00  0.00    +0.000 A 
ATOM     13  C   UNL     1       3.788   3.601  16.885  0.00  0.00    +0.000 A 
ATOM     14  C   UNL     1       5.136   3.854  16.625  0.00  0.00    +0.000 A 
ATOM     15  C   UNL     1       5.706   5.067  17.036  0.00  0.00    +0.000 A 
ATOM     16  C   UNL     1       4.939   6.021  17.715  0.00  0.00    +0.000 A 
BRANCH  15  17
ATOM     17  N   UNL     1       7.123   5.334  16.757  0.00  0.00    +0.000 N 
ATOM     18  O   UNL     1       7.935   4.426  16.992  0.00  0.00    +0.000 OA
ATOM     19  O   UNL     1       7.425   6.452  16.318  0.00  0.00    +0.000 OA
ENDBRANCH  15  17
ENDBRANCH   2  11
TORSDOF 2
ENDMDL
MODEL 2
REMARK VINA RESULT:      -6.9      3.703      6.564
REMARK  Name = 
REMARK  2 active torsions:
REMARK  status: ('A' for Active; 'I' for Inactive)
REMARK    1  A    between atoms: C_2  and  C_9
REMARK    2  A    between atoms: C_13  and  N_14
REMARK                            x       y       z     vdW  Elec       q    Type
REMARK                         _______ _______ _______ _____ _____    ______ ____
ROOT
ATOM      1  O   UNL     1       6.483   6.355  16.170  0.00  0.00    +0.000 OA
ATOM      2  C   UNL     1       5.720   5.398  16.205  0.00  0.00    +0.000 C 
ATOM      3  N   UNL     1       5.574   4.391  15.270  0.00  0.00    +0.000 N 
ATOM      4  C   UNL     1       6.300   4.375  14.103  0.00  0.00    +0.000 A 
ATOM      5  N   UNL     1       7.203   5.226  13.679  0.00  0.00    +0.000 NA
ATOM      6  C   UNL     1       7.600   4.784  12.445  0.00  0.00    +0.000 A 
ATOM      7  C   UNL     1       6.939   3.629  12.110  0.00  0.00    +0.000 A 
ATOM      8  N   UNL     1       6.119   3.377  13.176  0.00  0.00    +0.000 N 
ATOM      9  H   UNL     1       4.862   3.692  15.394  0.00  0.00    +0.000 HD
ATOM     10  H   UNL     1       5.489   2.595  13.267  0.00  0.00    +0.000 HD
ENDROOT
BRANCH   2  11
ATOM     11  C   UNL     1       4.796   5.309  17.370  0.00  0.00    +0.000 A 
ATOM     12  C   UNL     1       3.993   6.389  17.769  0.00  0.00    +0.000 A 
ATOM     13  C   UNL     1       3.152   6.268  18.878  0.00  0.00    +0.000 A 
ATOM     14  C   UNL     1       3.098   5.067  19.588  0.00  0.00    +0.000 A 
ATOM     15  C   UNL     1       3.882   3.981  19.175  0.00  0.00    +0.000 A 
ATOM     16  C   UNL     1       4.728   4.093  18.065  0.00  0.00    +0.000 A 
BRANCH  15  17
ATOM     17  N   UNL     1       3.820   2.717  19.919  0.00  0.00    +0.000 N 
ATOM     18  O   UNL     1       2.699   2.232  20.134  0.00  0.00    +0.000 OA
ATOM     19  O   UNL     1       4.887   2.216  20.300  0.00  0.00    +0.000 OA
ENDBRANCH  15  17
ENDBRANCH   2  11
TORSDOF 2
ENDMDL
MODEL 3
REMARK VINA RESULT:      -6.9      1.405      1.825
REMARK  Name = 
REMARK  2 active torsions:
REMARK  status: ('A' for Active; 'I' for Inactive)
REMARK    1  A    between atoms: C_2  and  C_9
REMARK    2  A    between atoms: C_13  and  N_14
REMARK                            x       y       z     vdW  Elec       q    Type
REMARK                         _______ _______ _______ _____ _____    ______ ____
ROOT
ATOM      1  O   UNL     1       2.156   8.123  17.613  0.00  0.00    +0.000 OA
ATOM      2  C   UNL     1       2.564   7.288  18.411  0.00  0.00    +0.000 C 
ATOM      3  N   UNL     1       2.377   7.255  19.779  0.00  0.00    +0.000 N 
ATOM      4  C   UNL     1       1.690   8.244  20.441  0.00  0.00    +0.000 A 
ATOM      5  N   UNL     1       1.114   9.318  19.956  0.00  0.00    +0.000 NA
ATOM      6  C   UNL     1       0.600   9.997  21.028  0.00  0.00    +0.000 A 
ATOM      7  C   UNL     1       0.849   9.319  22.194  0.00  0.00    +0.000 A 
ATOM      8  N   UNL     1       1.539   8.203  21.806  0.00  0.00    +0.000 N 
ATOM      9  H   UNL     1       2.823   6.539  20.329  0.00  0.00    +0.000 HD
ATOM     10  H   UNL     1       1.879   7.476  22.416  0.00  0.00    +0.000 HD
ENDROOT
BRANCH   2  11
ATOM     11  C   UNL     1       3.406   6.185  17.867  0.00  0.00    +0.000 A 
ATOM     12  C   UNL     1       2.931   4.869  17.762  0.00  0.00    +0.000 A 
ATOM     13  C   UNL     1       3.760   3.861  17.262  0.00  0.00    +0.000 A 
ATOM     14  C   UNL     1       5.061   4.162  16.854  0.00  0.00    +0.000 A 
ATOM     15  C   UNL     1       5.526   5.482  16.937  0.00  0.00    +0.000 A 
ATOM     16  C   UNL     1       4.703   6.498  17.437  0.00  0.00    +0.000 A 
BRANCH  15  17
ATOM     17  N   UNL     1       6.893   5.798  16.502  0.00  0.00    +0.000 N 
ATOM     18  O   UNL     1       7.545   4.894  15.958  0.00  0.00    +0.000 OA
ATOM     19  O   UNL     1       7.317   6.942  16.714  0.00  0.00    +0.000 OA
ENDBRANCH  15  17
ENDBRANCH   2  11
TORSDOF 2
ENDMDL
MODEL 4
REMARK VINA RESULT:      -6.8      3.638      6.664
REMARK  Name = 
REMARK  2 active torsions:
REMARK  status: ('A' for Active; 'I' for Inactive)
REMARK    1  A    between atoms: C_2  and  C_9
REMARK    2  A    between atoms: C_13  and  N_14
REMARK                            x       y       z     vdW  Elec       q    Type
REMARK                         _______ _______ _______ _____ _____    ______ ____
ROOT
ATOM      1  O   UNL     1       6.127   6.317  16.299  0.00  0.00    +0.000 OA
ATOM      2  C   UNL     1       5.339   5.393  16.145  0.00  0.00    +0.000 C 
ATOM      3  N   UNL     1       5.317   4.452  15.133  0.00  0.00    +0.000 N 
ATOM      4  C   UNL     1       6.223   4.478  14.100  0.00  0.00    +0.000 A 
ATOM      5  N   UNL     1       7.211   5.315  13.886  0.00  0.00    +0.000 NA
ATOM      6  C   UNL     1       7.790   4.934  12.706  0.00  0.00    +0.000 A 
ATOM      7  C   UNL     1       7.157   3.831  12.191  0.00  0.00    +0.000 A 
ATOM      8  N   UNL     1       6.166   3.548  13.090  0.00  0.00    +0.000 N 
ATOM      9  H   UNL     1       4.571   3.778  15.092  0.00  0.00    +0.000 HD
ATOM     10  H   UNL     1       5.505   2.789  13.024  0.00  0.00    +0.000 HD
ENDROOT
BRANCH   2  11
ATOM     11  C   UNL     1       4.233   5.271  17.136  0.00  0.00    +0.000 A 
ATOM     12  C   UNL     1       3.722   6.383  17.823  0.00  0.00    +0.000 A 
ATOM     13  C   UNL     1       2.695   6.222  18.756  0.00  0.00    +0.000 A 
ATOM     14  C   UNL     1       2.165   4.954  19.002  0.00  0.00    +0.000 A 
ATOM     15  C   UNL     1       2.661   3.847  18.299  0.00  0.00    +0.000 A 
ATOM     16  C   UNL     1       3.689   3.999  17.362  0.00  0.00    +0.000 A 
BRANCH  15  17
ATOM     17  N   UNL     1       2.098   2.514  18.555  0.00  0.00    +0.000 N 
ATOM     18  O   UNL     1       0.867   2.423  18.665  0.00  0.00    +0.000 OA
ATOM     19  O   UNL     1       2.886   1.564  18.659  0.00  0.00    +0.000 OA
ENDBRANCH  15  17
ENDBRANCH   2  11
TORSDOF 2
ENDMDL
MODEL 5
REMARK VINA RESULT:      -6.8      4.102      5.953
REMARK  Name = 
REMARK  2 active torsions:
REMARK  status: ('A' for Active; 'I' for Inactive)
REMARK    1  A    between atoms: C_2  and  C_9
REMARK    2  A    between atoms: C_13  and  N_14
REMARK                            x       y       z     vdW  Elec       q    Type
REMARK                         _______ _______ _______ _____ _____    ______ ____
ROOT
ATOM      1  O   UNL     1       4.929   5.891  16.220  0.00  0.00    +0.000 OA
ATOM      2  C   UNL     1       5.234   4.740  15.934  0.00  0.00    +0.000 C 
ATOM      3  N   UNL     1       5.061   3.599  16.694  0.00  0.00    +0.000 N 
ATOM      4  C   UNL     1       4.519   3.645  17.957  0.00  0.00    +0.000 A 
ATOM      5  N   UNL     1       4.085   4.681  18.633  0.00  0.00    +0.000 NA
ATOM      6  C   UNL     1       3.678   4.204  19.850  0.00  0.00    +0.000 A 
ATOM      7  C   UNL     1       3.850   2.844  19.918  0.00  0.00    +0.000 A 
ATOM      8  N   UNL     1       4.381   2.501  18.705  0.00  0.00    +0.000 N 
ATOM      9  H   UNL     1       5.415   2.718  16.363  0.00  0.00    +0.000 HD
ATOM     10  H   UNL     1       4.630   1.570  18.410  0.00  0.00    +0.000 HD
ENDROOT
BRANCH   2  11
ATOM     11  C   UNL     1       5.915   4.523  14.626  0.00  0.00    +0.000 A 
ATOM     12  C   UNL     1       7.124   5.158  14.302  0.00  0.00    +0.000 A 
ATOM     13  C   UNL     1       7.720   4.939  13.058  0.00  0.00    +0.000 A 
ATOM     14  C   UNL     1       7.121   4.078  12.136  0.00  0.00    +0.000 A 
ATOM     15  C   UNL     1       5.927   3.427  12.470  0.00  0.00    +0.000 A 
ATOM     16  C   UNL     1       5.322   3.640  13.714  0.00  0.00    +0.000 A 
BRANCH  15  17
ATOM     17  N   UNL     1       5.301   2.517  11.501  0.00  0.00    +0.000 N 
ATOM     18  O   UNL     1       5.938   1.507  11.168  0.00  0.00    +0.000 OA
ATOM     19  O   UNL     1       4.182   2.819  11.064  0.00  0.00    +0.000 OA
ENDBRANCH  15  17
ENDBRANCH   2  11
TORSDOF 2
ENDMDL
MODEL 6
REMARK VINA RESULT:      -6.8      4.047      4.605
REMARK  Name = 
REMARK  2 active torsions:
REMARK  status: ('A' for Active; 'I' for Inactive)
REMARK    1  A    between atoms: C_2  and  C_9
REMARK    2  A    between atoms: C_13  and  N_14
REMARK                            x       y       z     vdW  Elec       q    Type
REMARK                         _______ _______ _______ _____ _____    ______ ____
ROOT
ATOM      1  O   UNL     1       2.546   4.112  17.145  0.00  0.00    +0.000 OA
ATOM      2  C   UNL     1       3.596   4.033  17.768  0.00  0.00    +0.000 C 
ATOM      3  N   UNL     1       3.782   3.621  19.075  0.00  0.00    +0.000 N 
ATOM      4  C   UNL     1       2.727   3.263  19.879  0.00  0.00    +0.000 A 
ATOM      5  N   UNL     1       1.446   3.229  19.597  0.00  0.00    +0.000 NA
ATOM      6  C   UNL     1       0.809   2.841  20.744  0.00  0.00    +0.000 A 
ATOM      7  C   UNL     1       1.717   2.615  21.748  0.00  0.00    +0.000 A 
ATOM      8  N   UNL     1       2.933   2.881  21.182  0.00  0.00    +0.000 N 
ATOM      9  H   UNL     1       4.699   3.662  19.487  0.00  0.00    +0.000 HD
ATOM     10  H   UNL     1       3.828   2.812  21.642  0.00  0.00    +0.000 HD
ENDROOT
BRANCH   2  11
ATOM     11  C   UNL     1       4.837   4.468  17.067  0.00  0.00    +0.000 A 
ATOM     12  C   UNL     1       5.233   3.914  15.840  0.00  0.00    +0.000 A 
ATOM     13  C   UNL     1       6.413   4.340  15.225  0.00  0.00    +0.000 A 
ATOM     14  C   UNL     1       7.197   5.328  15.824  0.00  0.00    +0.000 A 
ATOM     15  C   UNL     1       6.789   5.897  17.037  0.00  0.00    +0.000 A 
ATOM     16  C   UNL     1       5.609   5.477  17.661  0.00  0.00    +0.000 A 
BRANCH  15  17
ATOM     17  N   UNL     1       7.613   6.940  17.663  0.00  0.00    +0.000 N 
ATOM     18  O   UNL     1       8.110   6.691  18.772  0.00  0.00    +0.000 OA
ATOM     19  O   UNL     1       7.753   8.009  17.054  0.00  0.00    +0.000 OA
ENDBRANCH  15  17
ENDBRANCH   2  11
TORSDOF 2
ENDMDL
MODEL 7
REMARK VINA RESULT:      -6.7      3.886      5.536
REMARK  Name = 
REMARK  2 active torsions:
REMARK  status: ('A' for Active; 'I' for Inactive)
REMARK    1  A    between atoms: C_2  and  C_9
REMARK    2  A    between atoms: C_13  and  N_14
REMARK                            x       y       z     vdW  Elec       q    Type
REMARK                         _______ _______ _______ _____ _____    ______ ____
ROOT
ATOM      1  O   UNL     1       7.101   4.489  16.811  0.00  0.00    +0.000 OA
ATOM      2  C   UNL     1       6.214   4.732  16.003  0.00  0.00    +0.000 C 
ATOM      3  N   UNL     1       4.906   5.097  16.259  0.00  0.00    +0.000 N 
ATOM      4  C   UNL     1       4.420   5.203  17.540  0.00  0.00    +0.000 A 
ATOM      5  N   UNL     1       5.042   5.008  18.679  0.00  0.00    +0.000 NA
ATOM      6  C   UNL     1       4.111   5.203  19.664  0.00  0.00    +0.000 A 
ATOM      7  C   UNL     1       2.897   5.541  19.121  0.00  0.00    +0.000 A 
ATOM      8  N   UNL     1       3.109   5.543  17.770  0.00  0.00    +0.000 N 
ATOM      9  H   UNL     1       4.259   5.208  15.497  0.00  0.00    +0.000 HD
ATOM     10  H   UNL     1       2.423   5.755  17.063  0.00  0.00    +0.000 HD
ENDROOT
BRANCH   2  11
ATOM     11  C   UNL     1       6.550   4.580  14.559  0.00  0.00    +0.000 A 
ATOM     12  C   UNL     1       7.603   5.289  13.961  0.00  0.00    +0.000 A 
ATOM     13  C   UNL     1       7.873   5.129  12.600  0.00  0.00    +0.000 A 
ATOM     14  C   UNL     1       7.104   4.253  11.831  0.00  0.00    +0.000 A 
ATOM     15  C   UNL     1       6.068   3.528  12.435  0.00  0.00    +0.000 A 
ATOM     16  C   UNL     1       5.790   3.682  13.798  0.00  0.00    +0.000 A 
BRANCH  15  17
ATOM     17  N   UNL     1       5.263   2.603  11.626  0.00  0.00    +0.000 N 
ATOM     18  O   UNL     1       5.763   1.504  11.343  0.00  0.00    +0.000 OA
ATOM     19  O   UNL     1       4.140   2.978  11.264  0.00  0.00    +0.000 OA
ENDBRANCH  15  17
ENDBRANCH   2  11
TORSDOF 2
ENDMDL
MODEL 8
REMARK VINA RESULT:      -6.7      4.184      6.359
REMARK  Name = 
REMARK  2 active torsions:
REMARK  status: ('A' for Active; 'I' for Inactive)
REMARK    1  A    between atoms: C_2  and  C_9
REMARK    2  A    between atoms: C_13  and  N_14
REMARK                            x       y       z     vdW  Elec       q    Type
REMARK                         _______ _______ _______ _____ _____    ______ ____
ROOT
ATOM      1  O   UNL     1       4.979   5.838  17.173  0.00  0.00    +0.000 OA
ATOM      2  C   UNL     1       4.555   4.714  16.934  0.00  0.00    +0.000 C 
ATOM      3  N   UNL     1       4.914   3.870  15.900  0.00  0.00    +0.000 N 
ATOM      4  C   UNL     1       5.827   4.245  14.943  0.00  0.00    +0.000 A 
ATOM      5  N   UNL     1       6.492   5.369  14.830  0.00  0.00    +0.000 NA
ATOM      6  C   UNL     1       7.243   5.261  13.690  0.00  0.00    +0.000 A 
ATOM      7  C   UNL     1       7.048   4.037  13.099  0.00  0.00    +0.000 A 
ATOM      8  N   UNL     1       6.150   3.399  13.910  0.00  0.00    +0.000 N 
ATOM      9  H   UNL     1       4.440   2.991  15.784  0.00  0.00    +0.000 HD
ATOM     10  H   UNL     1       5.784   2.470  13.773  0.00  0.00    +0.000 HD
ENDROOT
BRANCH   2  11
ATOM     11  C   UNL     1       3.489   4.185  17.831  0.00  0.00    +0.000 A 
ATOM     12  C   UNL     1       2.130   4.234  17.483  0.00  0.00    +0.000 A 
ATOM     13  C   UNL     1       1.162   3.742  18.361  0.00  0.00    +0.000 A 
ATOM     14  C   UNL     1       1.543   3.189  19.585  0.00  0.00    +0.000 A 
ATOM     15  C   UNL     1       2.901   3.120  19.922  0.00  0.00    +0.000 A 
ATOM     16  C   UNL     1       3.879   3.610  19.049  0.00  0.00    +0.000 A 
BRANCH  15  17
ATOM     17  N   UNL     1       3.301   2.533  21.208  0.00  0.00    +0.000 N 
ATOM     18  O   UNL     1       4.408   1.978  21.266  0.00  0.00    +0.000 OA
ATOM     19  O   UNL     1       2.505   2.616  22.154  0.00  0.00    +0.000 OA
ENDBRANCH  15  17
ENDBRANCH   2  11
TORSDOF 2
ENDMDL
MODEL 9
REMARK VINA RESULT:      -6.7      3.871      4.718
REMARK  Name = 
REMARK  2 active torsions:
REMARK  status: ('A' for Active; 'I' for Inactive)
REMARK    1  A    between atoms: C_2  and  C_9
REMARK    2  A    between atoms: C_13  and  N_14
REMARK                            x       y       z     vdW  Elec       q    Type
REMARK                         _______ _______ _______ _____ _____    ______ ____
ROOT
ATOM      1  O   UNL     1       2.760   4.983  17.603  0.00  0.00    +0.000 OA
ATOM      2  C   UNL     1       3.780   4.658  18.197  0.00  0.00    +0.000 C 
ATOM      3  N   UNL     1       3.889   3.923  19.362  0.00  0.00    +0.000 N 
ATOM      4  C   UNL     1       2.782   3.475  20.043  0.00  0.00    +0.000 A 
ATOM      5  N   UNL     1       1.513   3.628  19.749  0.00  0.00    +0.000 NA
ATOM      6  C   UNL     1       0.808   3.029  20.759  0.00  0.00    +0.000 A 
ATOM      7  C   UNL     1       1.662   2.481  21.684  0.00  0.00    +0.000 A 
ATOM      8  N   UNL     1       2.914   2.768  21.213  0.00  0.00    +0.000 N 
ATOM      9  H   UNL     1       4.792   3.779  19.781  0.00  0.00    +0.000 HD
ATOM     10  H   UNL     1       3.784   2.508  21.650  0.00  0.00    +0.000 HD
ENDROOT
BRANCH   2  11
ATOM     11  C   UNL     1       5.074   5.139  17.638  0.00  0.00    +0.000 A 
ATOM     12  C   UNL     1       5.959   5.935  18.383  0.00  0.00    +0.000 A 
ATOM     13  C   UNL     1       7.155   6.378  17.814  0.00  0.00    +0.000 A 
ATOM     14  C   UNL     1       7.481   6.022  16.503  0.00  0.00    +0.000 A 
ATOM     15  C   UNL     1       6.609   5.208  15.768  0.00  0.00    +0.000 A 
ATOM     16  C   UNL     1       5.408   4.759  16.330  0.00  0.00    +0.000 A 
BRANCH  15  17
ATOM     17  N   UNL     1       6.956   4.829  14.392  0.00  0.00    +0.000 N 
ATOM     18  O   UNL     1       7.841   5.486  13.823  0.00  0.00    +0.000 OA
ATOM     19  O   UNL     1       6.338   3.888  13.878  0.00  0.00    +0.000 OA
ENDBRANCH  15  17
ENDBRANCH   2  11
TORSDOF 2
ENDMDL
