MODEL 1
REMARK VINA RESULT:     -10.0      0.000      0.000
REMARK  Name = 
REMARK  8 active torsions:
REMARK  status: ('A' for Active; 'I' for Inactive)
REMARK    1  A    between atoms: C_1  and  N_2
REMARK    2  A    between atoms: C_7  and  C_8
REMARK    3  A    between atoms: C_16  and  C_18
REMARK    4  A    between atoms: C_18  and  C_19
REMARK    5  A    between atoms: C_18  and  C_20
REMARK    6  A    between atoms: C_18  and  C_21
REMARK    7  A    between atoms: N_27  and  C_28
REMARK    8  A    between atoms: C_28  and  C_29
REMARK                            x       y       z     vdW  Elec       q    Type
REMARK                         _______ _______ _______ _____ _____    ______ ____
ROOT
ATOM      1  C   UNL     1       7.080   4.000  14.678  0.00  0.00    +0.000 C 
ATOM      2  N   UNL     1       7.321   5.085  15.602  0.00  0.00    +0.000 N 
ATOM      3  C   UNL     1       6.178   5.527  16.256  0.00  0.00    +0.000 A 
ATOM      4  N   UNL     1       6.155   6.853  16.482  0.00  0.00    +0.000 NA
ATOM      5  C   UNL     1       5.077   7.397  17.089  0.00  0.00    +0.000 A 
ATOM      6  C   UNL     1       4.015   6.584  17.456  0.00  0.00    +0.000 A 
ATOM      7  C   UNL     1       2.741   6.712  18.077  0.00  0.00    +0.000 A 
ATOM      8  N   UNL     1       2.107   5.527  18.127  0.00  0.00    +0.000 NA
ATOM      9  N   UNL     1       2.995   4.652  17.596  0.00  0.00    +0.000 N 
ATOM     10  C   UNL     1       4.150   5.244  17.165  0.00  0.00    +0.000 A 
ATOM     11  N   UNL     1       5.205   4.658  16.577  0.00  0.00    +0.000 NA
ATOM     12  H   UNL     1       7.735   5.918  15.194  0.00  0.00    +0.000 HD
ENDROOT
BRANCH   7  13
ATOM     13  C   UNL     1       2.134   7.929  18.598  0.00  0.00    +0.000 A 
ATOM     14  C   UNL     1       2.053   9.091  17.836  0.00  0.00    +0.000 A 
ATOM     15  C   UNL     1       1.390  10.209  18.342  0.00  0.00    +0.000 A 
ATOM     16  C   UNL     1       0.837  10.177  19.619  0.00  0.00    +0.000 A 
ATOM     17  N   UNL     1       0.198  11.275  20.141  0.00  0.00    +0.000 N 
ATOM     18  C   UNL     1      -0.583  12.221  19.335  0.00  0.00    +0.000 C 
ATOM     19  C   UNL     1      -2.029  12.344  19.863  0.00  0.00    +0.000 C 
ATOM     20  N   UNL     1      -2.072  12.553  21.321  0.00  0.00    +0.000 N 
ATOM     21  C   UNL     1      -2.763  13.644  21.821  0.00  0.00    +0.000 C 
ATOM     22  O   UNL     1      -3.319  14.425  21.036  0.00  0.00    +0.000 OA
ATOM     23  C   UNL     1      -1.339  11.513  22.057  0.00  0.00    +0.000 C 
ATOM     24  C   UNL     1       0.121  11.427  21.595  0.00  0.00    +0.000 C 
ATOM     25  N   UNL     1       0.959   9.069  20.382  0.00  0.00    +0.000 NA
ATOM     26  C   UNL     1       1.593   7.981  19.870  0.00  0.00    +0.000 A 
BRANCH  21  27
ATOM     27  C   UNL     1      -2.834  13.928  23.346  0.00  0.00    +0.000 C 
ATOM     28  C   UNL     1      -3.384  12.710  24.106  0.00  0.00    +0.000 C 
ATOM     29  C   UNL     1      -1.391  14.157  23.871  0.00  0.00    +0.000 C 
ATOM     30  C   UNL     1      -3.599  15.222  23.662  0.00  0.00    +0.000 C 
ENDBRANCH  21  27
ENDBRANCH   7  13
BRANCH   9  31
ATOM     31  C   UNL     1       2.712   3.230  17.620  0.00  0.00    +0.000 C 
BRANCH  31  32
ATOM     32  C   UNL     1       2.448   2.656  19.017  0.00  0.00    +0.000 C 
ATOM     33  C   UNL     1       3.298   3.291  20.116  0.00  0.00    +0.000 C 
ATOM     34  C   UNL     1       2.520   3.038  21.399  0.00  0.00    +0.000 C 
ATOM     35  C   UNL     1       1.051   2.978  20.998  0.00  0.00    +0.000 C 
ATOM     36  C   UNL     1       1.013   2.940  19.473  0.00  0.00    +0.000 C 
ENDBRANCH  31  32
ENDBRANCH   9  31
TORSDOF 4
ENDMDL
MODEL 2
REMARK VINA RESULT:      -9.8      1.441      3.515
REMARK  Name = 
REMARK  8 active torsions:
REMARK  status: ('A' for Active; 'I' for Inactive)
REMARK    1  A    between atoms: C_1  and  N_2
REMARK    2  A    between atoms: C_7  and  C_8
REMARK    3  A    between atoms: C_16  and  C_18
REMARK    4  A    between atoms: C_18  and  C_19
REMARK    5  A    between atoms: C_18  and  C_20
REMARK    6  A    between atoms: C_18  and  C_21
REMARK    7  A    between atoms: N_27  and  C_28
REMARK    8  A    between atoms: C_28  and  C_29
REMARK                            x       y       z     vdW  Elec       q    Type
REMARK                         _______ _______ _______ _____ _____    ______ ____
ROOT
ATOM      1  C   UNL     1       3.956   1.239  18.595  0.00  0.00    +0.000 C 
ATOM      2  N   UNL     1       2.630   1.803  18.700  0.00  0.00    +0.000 N 
ATOM      3  C   UNL     1       2.601   3.188  18.601  0.00  0.00    +0.000 A 
ATOM      4  N   UNL     1       1.673   3.774  19.380  0.00  0.00    +0.000 NA
ATOM      5  C   UNL     1       1.574   5.122  19.384  0.00  0.00    +0.000 A 
ATOM      6  C   UNL     1       2.434   5.873  18.596  0.00  0.00    +0.000 A 
ATOM      7  C   UNL     1       2.687   7.242  18.303  0.00  0.00    +0.000 A 
ATOM      8  N   UNL     1       3.725   7.372  17.457  0.00  0.00    +0.000 NA
ATOM      9  N   UNL     1       4.084   6.096  17.174  0.00  0.00    +0.000 N 
ATOM     10  C   UNL     1       3.346   5.162  17.848  0.00  0.00    +0.000 A 
ATOM     11  N   UNL     1       3.472   3.826  17.802  0.00  0.00    +0.000 NA
ATOM     12  H   UNL     1       2.132   1.586  19.559  0.00  0.00    +0.000 HD
ENDROOT
BRANCH   7  13
ATOM     13  C   UNL     1       1.972   8.400  18.822  0.00  0.00    +0.000 A 
ATOM     14  C   UNL     1       1.691   9.506  18.025  0.00  0.00    +0.000 A 
ATOM     15  C   UNL     1       0.933  10.558  18.537  0.00  0.00    +0.000 A 
ATOM     16  C   UNL     1       0.483  10.521  19.853  0.00  0.00    +0.000 A 
ATOM     17  N   UNL     1      -0.248  11.557  20.381  0.00  0.00    +0.000 N 
ATOM     18  C   UNL     1      -1.198  12.361  19.603  0.00  0.00    +0.000 C 
ATOM     19  C   UNL     1      -2.605  12.333  20.238  0.00  0.00    +0.000 C 
ATOM     20  N   UNL     1      -2.568  12.605  21.685  0.00  0.00    +0.000 N 
ATOM     21  C   UNL     1      -3.351  13.627  22.195  0.00  0.00    +0.000 C 
ATOM     22  O   UNL     1      -4.056  14.297  21.426  0.00  0.00    +0.000 OA
ATOM     23  C   UNL     1      -1.659  11.699  22.401  0.00  0.00    +0.000 C 
ATOM     24  C   UNL     1      -0.238  11.768  21.829  0.00  0.00    +0.000 C 
ATOM     25  N   UNL     1       0.797   9.473  20.647  0.00  0.00    +0.000 NA
ATOM     26  C   UNL     1       1.523   8.448  20.130  0.00  0.00    +0.000 A 
BRANCH  21  27
ATOM     27  C   UNL     1      -3.345  13.974  23.709  0.00  0.00    +0.000 C 
ATOM     28  C   UNL     1      -1.938  14.383  24.173  0.00  0.00    +0.000 C 
ATOM     29  C   UNL     1      -4.258  15.210  23.932  0.00  0.00    +0.000 C 
ATOM     30  C   UNL     1      -3.953  12.852  24.565  0.00  0.00    +0.000 C 
ENDBRANCH  21  27
ENDBRANCH   7  13
BRANCH   9  31
ATOM     31  C   UNL     1       5.091   5.836  16.164  0.00  0.00    +0.000 C 
BRANCH  31  32
ATOM     32  C   UNL     1       6.533   5.853  16.682  0.00  0.00    +0.000 C 
ATOM     33  C   UNL     1       6.723   6.678  17.953  0.00  0.00    +0.000 C 
ATOM     34  C   UNL     1       7.985   6.118  18.591  0.00  0.00    +0.000 C 
ATOM     35  C   UNL     1       8.058   4.654  18.171  0.00  0.00    +0.000 C 
ATOM     36  C   UNL     1       6.991   4.452  17.100  0.00  0.00    +0.000 C 
ENDBRANCH  31  32
ENDBRANCH   9  31
TORSDOF 4
ENDMDL
MODEL 3
REMARK VINA RESULT:      -9.7      0.728      1.168
REMARK  Name = 
REMARK  8 active torsions:
REMARK  status: ('A' for Active; 'I' for Inactive)
REMARK    1  A    between atoms: C_1  and  N_2
REMARK    2  A    between atoms: C_7  and  C_8
REMARK    3  A    between atoms: C_16  and  C_18
REMARK    4  A    between atoms: C_18  and  C_19
REMARK    5  A    between atoms: C_18  and  C_20
REMARK    6  A    between atoms: C_18  and  C_21
REMARK    7  A    between atoms: N_27  and  C_28
REMARK    8  A    between atoms: C_28  and  C_29
REMARK                            x       y       z     vdW  Elec       q    Type
REMARK                         _______ _______ _______ _____ _____    ______ ____
ROOT
ATOM      1  C   UNL     1       6.350   3.670  14.203  0.00  0.00    +0.000 C 
ATOM      2  N   UNL     1       6.522   5.072  14.507  0.00  0.00    +0.000 N 
ATOM      3  C   UNL     1       5.690   5.531  15.520  0.00  0.00    +0.000 A 
ATOM      4  N   UNL     1       5.259   6.794  15.344  0.00  0.00    +0.000 NA
ATOM      5  C   UNL     1       4.421   7.335  16.256  0.00  0.00    +0.000 A 
ATOM      6  C   UNL     1       4.015   6.579  17.346  0.00  0.00    +0.000 A 
ATOM      7  C   UNL     1       3.183   6.723  18.491  0.00  0.00    +0.000 A 
ATOM      8  N   UNL     1       3.136   5.582  19.202  0.00  0.00    +0.000 NA
ATOM      9  N   UNL     1       3.977   4.747  18.544  0.00  0.00    +0.000 N 
ATOM     10  C   UNL     1       4.517   5.298  17.414  0.00  0.00    +0.000 A 
ATOM     11  N   UNL     1       5.360   4.724  16.541  0.00  0.00    +0.000 NA
ATOM     12  H   UNL     1       6.371   5.706  13.728  0.00  0.00    +0.000 HD
ENDROOT
BRANCH   7  13
ATOM     13  C   UNL     1       2.438   7.908  18.894  0.00  0.00    +0.000 A 
ATOM     14  C   UNL     1       2.221   8.970  18.020  0.00  0.00    +0.000 A 
ATOM     15  C   UNL     1       1.433  10.049  18.419  0.00  0.00    +0.000 A 
ATOM     16  C   UNL     1       0.888  10.082  19.699  0.00  0.00    +0.000 A 
ATOM     17  N   UNL     1       0.125  11.146  20.116  0.00  0.00    +0.000 N 
ATOM     18  C   UNL     1      -0.761  11.908  19.229  0.00  0.00    +0.000 C 
ATOM     19  C   UNL     1      -2.211  11.915  19.760  0.00  0.00    +0.000 C 
ATOM     20  N   UNL     1      -2.279  12.264  21.189  0.00  0.00    +0.000 N 
ATOM     21  C   UNL     1      -3.091  13.313  21.586  0.00  0.00    +0.000 C 
ATOM     22  O   UNL     1      -3.735  13.941  20.733  0.00  0.00    +0.000 OA
ATOM     23  C   UNL     1      -1.428  11.396  22.017  0.00  0.00    +0.000 C 
ATOM     24  C   UNL     1       0.031  11.434  21.548  0.00  0.00    +0.000 C 
ATOM     25  N   UNL     1       1.138   9.078  20.569  0.00  0.00    +0.000 NA
ATOM     26  C   UNL     1       1.895   8.025  20.161  0.00  0.00    +0.000 A 
BRANCH  21  27
ATOM     27  C   UNL     1      -3.195  13.739  23.075  0.00  0.00    +0.000 C 
ATOM     28  C   UNL     1      -1.836  14.230  23.602  0.00  0.00    +0.000 C 
ATOM     29  C   UNL     1      -4.165  14.948  23.173  0.00  0.00    +0.000 C 
ATOM     30  C   UNL     1      -3.813  12.642  23.954  0.00  0.00    +0.000 C 
ENDBRANCH  21  27
ENDBRANCH   7  13
BRANCH   9  31
ATOM     31  C   UNL     1       4.299   3.451  19.111  0.00  0.00    +0.000 C 
BRANCH  31  32
ATOM     32  C   UNL     1       3.085   2.636  19.567  0.00  0.00    +0.000 C 
ATOM     33  C   UNL     1       2.514   3.079  20.913  0.00  0.00    +0.000 C 
ATOM     34  C   UNL     1       1.072   2.592  20.899  0.00  0.00    +0.000 C 
ATOM     35  C   UNL     1       0.644   2.581  19.436  0.00  0.00    +0.000 C 
ATOM     36  C   UNL     1       1.903   2.813  18.608  0.00  0.00    +0.000 C 
ENDBRANCH  31  32
ENDBRANCH   9  31
TORSDOF 4
ENDMDL
MODEL 4
REMARK VINA RESULT:      -9.3      1.655      3.735
REMARK  Name = 
REMARK  8 active torsions:
REMARK  status: ('A' for Active; 'I' for Inactive)
REMARK    1  A    between atoms: C_1  and  N_2
REMARK    2  A    between atoms: C_7  and  C_8
REMARK    3  A    between atoms: C_16  and  C_18
REMARK    4  A    between atoms: C_18  and  C_19
REMARK    5  A    between atoms: C_18  and  C_20
REMARK    6  A    between atoms: C_18  and  C_21
REMARK    7  A    between atoms: N_27  and  C_28
REMARK    8  A    between atoms: C_28  and  C_29
REMARK                            x       y       z     vdW  Elec       q    Type
REMARK                         _______ _______ _______ _____ _____    ______ ____
ROOT
ATOM      1  C   UNL     1       4.585   1.848  20.355  0.00  0.00    +0.000 C 
ATOM      2  N   UNL     1       3.227   2.296  20.560  0.00  0.00    +0.000 N 
ATOM      3  C   UNL     1       2.995   3.596  20.128  0.00  0.00    +0.000 A 
ATOM      4  N   UNL     1       2.127   4.281  20.895  0.00  0.00    +0.000 NA
ATOM      5  C   UNL     1       1.847   5.566  20.584  0.00  0.00    +0.000 A 
ATOM      6  C   UNL     1       2.464   6.155  19.490  0.00  0.00    +0.000 A 
ATOM      7  C   UNL     1       2.480   7.413  18.827  0.00  0.00    +0.000 A 
ATOM      8  N   UNL     1       3.347   7.407  17.798  0.00  0.00    +0.000 NA
ATOM      9  N   UNL     1       3.830   6.140  17.779  0.00  0.00    +0.000 N 
ATOM     10  C   UNL     1       3.339   5.356  18.786  0.00  0.00    +0.000 A 
ATOM     11  N   UNL     1       3.637   4.074  19.050  0.00  0.00    +0.000 NA
ATOM     12  H   UNL     1       2.902   2.272  21.522  0.00  0.00    +0.000 HD
ENDROOT
BRANCH   7  13
ATOM     13  C   UNL     1       1.702   8.597  19.166  0.00  0.00    +0.000 A 
ATOM     14  C   UNL     1       1.366   9.552  18.210  0.00  0.00    +0.000 A 
ATOM     15  C   UNL     1       0.551  10.628  18.559  0.00  0.00    +0.000 A 
ATOM     16  C   UNL     1       0.098  10.768  19.867  0.00  0.00    +0.000 A 
ATOM     17  N   UNL     1      -0.689  11.833  20.234  0.00  0.00    +0.000 N 
ATOM     18  C   UNL     1      -1.677  12.457  19.346  0.00  0.00    +0.000 C 
ATOM     19  C   UNL     1      -3.083  12.451  19.984  0.00  0.00    +0.000 C 
ATOM     20  N   UNL     1      -3.066  12.943  21.373  0.00  0.00    +0.000 N 
ATOM     21  C   UNL     1      -3.904  13.988  21.724  0.00  0.00    +0.000 C 
ATOM     22  O   UNL     1      -4.641  14.493  20.865  0.00  0.00    +0.000 OA
ATOM     23  C   UNL     1      -2.112  12.206  22.214  0.00  0.00    +0.000 C 
ATOM     24  C   UNL     1      -0.695  12.263  21.633  0.00  0.00    +0.000 C 
ATOM     25  N   UNL     1       0.465   9.873  20.811  0.00  0.00    +0.000 NA
ATOM     26  C   UNL     1       1.246   8.820  20.453  0.00  0.00    +0.000 A 
BRANCH  21  27
ATOM     27  C   UNL     1      -3.923  14.561  23.167  0.00  0.00    +0.000 C 
ATOM     28  C   UNL     1      -5.081  15.556  23.347  0.00  0.00    +0.000 C 
ATOM     29  C   UNL     1      -4.190  13.394  24.155  0.00  0.00    +0.000 C 
ATOM     30  C   UNL     1      -2.564  15.148  23.578  0.00  0.00    +0.000 C 
ENDBRANCH  21  27
ENDBRANCH   7  13
BRANCH   9  31
ATOM     31  C   UNL     1       4.695   5.713  16.696  0.00  0.00    +0.000 C 
BRANCH  31  32
ATOM     32  C   UNL     1       6.188   5.954  16.941  0.00  0.00    +0.000 C 
ATOM     33  C   UNL     1       6.523   7.385  17.357  0.00  0.00    +0.000 C 
ATOM     34  C   UNL     1       7.856   7.274  18.083  0.00  0.00    +0.000 C 
ATOM     35  C   UNL     1       7.887   5.880  18.699  0.00  0.00    +0.000 C 
ATOM     36  C   UNL     1       6.701   5.116  18.117  0.00  0.00    +0.000 C 
ENDBRANCH  31  32
ENDBRANCH   9  31
TORSDOF 4
ENDMDL
MODEL 5
REMARK VINA RESULT:      -9.2      1.436      3.840
REMARK  Name = 
REMARK  8 active torsions:
REMARK  status: ('A' for Active; 'I' for Inactive)
REMARK    1  A    between atoms: C_1  and  N_2
REMARK    2  A    between atoms: C_7  and  C_8
REMARK    3  A    between atoms: C_16  and  C_18
REMARK    4  A    between atoms: C_18  and  C_19
REMARK    5  A    between atoms: C_18  and  C_20
REMARK    6  A    between atoms: C_18  and  C_21
REMARK    7  A    between atoms: N_27  and  C_28
REMARK    8  A    between atoms: C_28  and  C_29
REMARK                            x       y       z     vdW  Elec       q    Type
REMARK                         _______ _______ _______ _____ _____    ______ ____
ROOT
ATOM      1  C   UNL     1       3.828   0.772  18.908  0.00  0.00    +0.000 C 
ATOM      2  N   UNL     1       2.569   1.416  18.607  0.00  0.00    +0.000 N 
ATOM      3  C   UNL     1       2.648   2.802  18.554  0.00  0.00    +0.000 A 
ATOM      4  N   UNL     1       1.553   3.431  19.019  0.00  0.00    +0.000 NA
ATOM      5  C   UNL     1       1.531   4.782  19.041  0.00  0.00    +0.000 A 
ATOM      6  C   UNL     1       2.636   5.492  18.594  0.00  0.00    +0.000 A 
ATOM      7  C   UNL     1       3.042   6.848  18.448  0.00  0.00    +0.000 A 
ATOM      8  N   UNL     1       4.301   6.927  17.981  0.00  0.00    +0.000 NA
ATOM      9  N   UNL     1       4.663   5.636  17.780  0.00  0.00    +0.000 N 
ATOM     10  C   UNL     1       3.700   4.738  18.150  0.00  0.00    +0.000 A 
ATOM     11  N   UNL     1       3.762   3.398  18.098  0.00  0.00    +0.000 NA
ATOM     12  H   UNL     1       1.813   1.216  19.255  0.00  0.00    +0.000 HD
ENDROOT
BRANCH   7  13
ATOM     13  C   UNL     1       2.262   8.039  18.755  0.00  0.00    +0.000 A 
ATOM     14  C   UNL     1       1.893   8.948  17.767  0.00  0.00    +0.000 A 
ATOM     15  C   UNL     1       1.077  10.032  18.089  0.00  0.00    +0.000 A 
ATOM     16  C   UNL     1       0.655  10.224  19.402  0.00  0.00    +0.000 A 
ATOM     17  N   UNL     1      -0.133  11.297  19.741  0.00  0.00    +0.000 N 
ATOM     18  C   UNL     1      -1.148  11.873  18.852  0.00  0.00    +0.000 C 
ATOM     19  C   UNL     1      -2.538  11.884  19.525  0.00  0.00    +0.000 C 
ATOM     20  N   UNL     1      -2.492  12.435  20.890  0.00  0.00    +0.000 N 
ATOM     21  C   UNL     1      -3.331  13.487  21.217  0.00  0.00    +0.000 C 
ATOM     22  O   UNL     1      -4.094  13.949  20.355  0.00  0.00    +0.000 OA
ATOM     23  C   UNL     1      -1.511  11.744  21.739  0.00  0.00    +0.000 C 
ATOM     24  C   UNL     1      -0.109  11.787  21.120  0.00  0.00    +0.000 C 
ATOM     25  N   UNL     1       1.053   9.374  20.373  0.00  0.00    +0.000 NA
ATOM     26  C   UNL     1       1.836   8.313  20.042  0.00  0.00    +0.000 A 
BRANCH  21  27
ATOM     27  C   UNL     1      -3.320  14.122  22.633  0.00  0.00    +0.000 C 
ATOM     28  C   UNL     1      -1.965  14.787  22.926  0.00  0.00    +0.000 C 
ATOM     29  C   UNL     1      -4.381  15.255  22.671  0.00  0.00    +0.000 C 
ATOM     30  C   UNL     1      -3.743  13.125  23.722  0.00  0.00    +0.000 C 
ENDBRANCH  21  27
ENDBRANCH   7  13
BRANCH   9  31
ATOM     31  C   UNL     1       5.925   5.332  17.133  0.00  0.00    +0.000 C 
BRANCH  31  32
ATOM     32  C   UNL     1       5.881   5.368  15.602  0.00  0.00    +0.000 C 
ATOM     33  C   UNL     1       7.257   5.300  14.942  0.00  0.00    +0.000 C 
ATOM     34  C   UNL     1       6.987   4.777  13.539  0.00  0.00    +0.000 C 
ATOM     35  C   UNL     1       5.738   3.909  13.645  0.00  0.00    +0.000 C 
ATOM     36  C   UNL     1       5.158   4.141  15.036  0.00  0.00    +0.000 C 
ENDBRANCH  31  32
ENDBRANCH   9  31
TORSDOF 4
ENDMDL
MODEL 6
REMARK VINA RESULT:      -8.9      2.398      3.016
REMARK  Name = 
REMARK  8 active torsions:
REMARK  status: ('A' for Active; 'I' for Inactive)
REMARK    1  A    between atoms: C_1  and  N_2
REMARK    2  A    between atoms: C_7  and  C_8
REMARK    3  A    between atoms: C_16  and  C_18
REMARK    4  A    between atoms: C_18  and  C_19
REMARK    5  A    between atoms: C_18  and  C_20
REMARK    6  A    between atoms: C_18  and  C_21
REMARK    7  A    between atoms: N_27  and  C_28
REMARK    8  A    between atoms: C_28  and  C_29
REMARK                            x       y       z     vdW  Elec       q    Type
REMARK                         _______ _______ _______ _____ _____    ______ ____
ROOT
ATOM      1  C   UNL     1       6.866   3.966  15.042  0.00  0.00    +0.000 C 
ATOM      2  N   UNL     1       7.137   5.063  15.943  0.00  0.00    +0.000 N 
ATOM      3  C   UNL     1       5.997   5.612  16.515  0.00  0.00    +0.000 A 
ATOM      4  N   UNL     1       6.063   6.944  16.697  0.00  0.00    +0.000 NA
ATOM      5  C   UNL     1       4.998   7.588  17.223  0.00  0.00    +0.000 A 
ATOM      6  C   UNL     1       3.858   6.870  17.554  0.00  0.00    +0.000 A 
ATOM      7  C   UNL     1       2.566   7.115  18.096  0.00  0.00    +0.000 A 
ATOM      8  N   UNL     1       1.840   5.982  18.147  0.00  0.00    +0.000 NA
ATOM      9  N   UNL     1       2.688   5.025  17.696  0.00  0.00    +0.000 N 
ATOM     10  C   UNL     1       3.906   5.514  17.314  0.00  0.00    +0.000 A 
ATOM     11  N   UNL     1       4.945   4.830  16.807  0.00  0.00    +0.000 NA
ATOM     12  H   UNL     1       7.636   5.847  15.533  0.00  0.00    +0.000 HD
ENDROOT
BRANCH   7  13
ATOM     13  C   UNL     1       2.025   8.391  18.541  0.00  0.00    +0.000 A 
ATOM     14  C   UNL     1       1.397   8.530  19.776  0.00  0.00    +0.000 A 
ATOM     15  C   UNL     1       0.966   9.787  20.200  0.00  0.00    +0.000 A 
ATOM     16  C   UNL     1       1.136  10.898  19.380  0.00  0.00    +0.000 A 
ATOM     17  N   UNL     1       0.701  12.140  19.773  0.00  0.00    +0.000 N 
ATOM     18  C   UNL     1       0.711  12.603  21.166  0.00  0.00    +0.000 C 
ATOM     19  C   UNL     1       1.516  13.912  21.313  0.00  0.00    +0.000 C 
ATOM     20  N   UNL     1       1.134  14.917  20.306  0.00  0.00    +0.000 N 
ATOM     21  C   UNL     1       0.743  16.176  20.730  0.00  0.00    +0.000 C 
ATOM     22  O   UNL     1       0.713  16.428  21.943  0.00  0.00    +0.000 OA
ATOM     23  C   UNL     1       1.235  14.399  18.934  0.00  0.00    +0.000 C 
ATOM     24  C   UNL     1       0.382  13.138  18.750  0.00  0.00    +0.000 C 
ATOM     25  N   UNL     1       1.698  10.760  18.159  0.00  0.00    +0.000 NA
ATOM     26  C   UNL     1       2.127   9.532  17.765  0.00  0.00    +0.000 A 
BRANCH  21  27
ATOM     27  C   UNL     1       0.314  17.274  19.719  0.00  0.00    +0.000 C 
ATOM     28  C   UNL     1       0.111  18.623  20.428  0.00  0.00    +0.000 C 
ATOM     29  C   UNL     1       1.468  17.483  18.702  0.00  0.00    +0.000 C 
ATOM     30  C   UNL     1      -0.903  16.852  18.882  0.00  0.00    +0.000 C 
ENDBRANCH  21  27
ENDBRANCH   7  13
BRANCH   9  31
ATOM     31  C   UNL     1       2.296   3.630  17.750  0.00  0.00    +0.000 C 
BRANCH  31  32
ATOM     32  C   UNL     1       2.334   3.010  19.151  0.00  0.00    +0.000 C 
ATOM     33  C   UNL     1       3.087   3.852  20.178  0.00  0.00    +0.000 C 
ATOM     34  C   UNL     1       2.536   3.404  21.524  0.00  0.00    +0.000 C 
ATOM     35  C   UNL     1       1.104   2.950  21.263  0.00  0.00    +0.000 C 
ATOM     36  C   UNL     1       0.928   2.900  19.749  0.00  0.00    +0.000 C 
ENDBRANCH  31  32
ENDBRANCH   9  31
TORSDOF 4
ENDMDL
MODEL 7
REMARK VINA RESULT:      -8.8      1.601      2.601
REMARK  Name = 
REMARK  8 active torsions:
REMARK  status: ('A' for Active; 'I' for Inactive)
REMARK    1  A    between atoms: C_1  and  N_2
REMARK    2  A    between atoms: C_7  and  C_8
REMARK    3  A    between atoms: C_16  and  C_18
REMARK    4  A    between atoms: C_18  and  C_19
REMARK    5  A    between atoms: C_18  and  C_20
REMARK    6  A    between atoms: C_18  and  C_21
REMARK    7  A    between atoms: N_27  and  C_28
REMARK    8  A    between atoms: C_28  and  C_29
REMARK                            x       y       z     vdW  Elec       q    Type
REMARK                         _______ _______ _______ _____ _____    ______ ____
ROOT
ATOM      1  C   UNL     1       4.976   4.171  16.322  0.00  0.00    +0.000 C 
ATOM      2  N   UNL     1       5.144   5.593  16.516  0.00  0.00    +0.000 N 
ATOM      3  C   UNL     1       4.267   6.138  17.446  0.00  0.00    +0.000 A 
ATOM      4  N   UNL     1       3.854   7.383  17.145  0.00  0.00    +0.000 NA
ATOM      5  C   UNL     1       2.977   8.001  17.967  0.00  0.00    +0.000 A 
ATOM      6  C   UNL     1       2.514   7.340  19.096  0.00  0.00    +0.000 A 
ATOM      7  C   UNL     1       1.628   7.581  20.182  0.00  0.00    +0.000 A 
ATOM      8  N   UNL     1       1.539   6.503  20.982  0.00  0.00    +0.000 NA
ATOM      9  N   UNL     1       2.405   5.613  20.438  0.00  0.00    +0.000 N 
ATOM     10  C   UNL     1       3.002   6.067  19.294  0.00  0.00    +0.000 A 
ATOM     11  N   UNL     1       3.882   5.419  18.513  0.00  0.00    +0.000 NA
ATOM     12  H   UNL     1       5.035   6.161  15.681  0.00  0.00    +0.000 HD
ENDROOT
BRANCH   7  13
ATOM     13  C   UNL     1       0.873   8.798  20.449  0.00  0.00    +0.000 A 
ATOM     14  C   UNL     1       0.876   9.871  19.563  0.00  0.00    +0.000 A 
ATOM     15  C   UNL     1       0.075  10.984  19.815  0.00  0.00    +0.000 A 
ATOM     16  C   UNL     1      -0.704  11.038  20.967  0.00  0.00    +0.000 A 
ATOM     17  N   UNL     1      -1.485  12.135  21.242  0.00  0.00    +0.000 N 
ATOM     18  C   UNL     1      -2.149  12.940  20.211  0.00  0.00    +0.000 C 
ATOM     19  C   UNL     1      -3.672  13.012  20.453  0.00  0.00    +0.000 C 
ATOM     20  N   UNL     1      -3.998  13.360  21.847  0.00  0.00    +0.000 N 
ATOM     21  C   UNL     1      -4.824  14.443  22.092  0.00  0.00    +0.000 C 
ATOM     22  O   UNL     1      -5.263  15.103  21.138  0.00  0.00    +0.000 OA
ATOM     23  C   UNL     1      -3.362  12.451  22.812  0.00  0.00    +0.000 C 
ATOM     24  C   UNL     1      -1.840  12.422  22.633  0.00  0.00    +0.000 C 
ATOM     25  N   UNL     1      -0.672  10.021  21.856  0.00  0.00    +0.000 NA
ATOM     26  C   UNL     1       0.102   8.936  21.589  0.00  0.00    +0.000 A 
BRANCH  21  27
ATOM     27  C   UNL     1      -5.193  14.869  23.539  0.00  0.00    +0.000 C 
ATOM     28  C   UNL     1      -3.931  15.192  24.355  0.00  0.00    +0.000 C 
ATOM     29  C   UNL     1      -6.018  16.183  23.468  0.00  0.00    +0.000 C 
ATOM     30  C   UNL     1      -6.106  13.846  24.232  0.00  0.00    +0.000 C 
ENDBRANCH  21  27
ENDBRANCH   7  13
BRANCH   9  31
ATOM     31  C   UNL     1       2.690   4.369  21.125  0.00  0.00    +0.000 C 
BRANCH  31  32
ATOM     32  C   UNL     1       2.034   3.132  20.503  0.00  0.00    +0.000 C 
ATOM     33  C   UNL     1       0.823   3.449  19.627  0.00  0.00    +0.000 C 
ATOM     34  C   UNL     1       0.698   2.254  18.694  0.00  0.00    +0.000 C 
ATOM     35  C   UNL     1       2.110   1.707  18.517  0.00  0.00    +0.000 C 
ATOM     36  C   UNL     1       2.990   2.422  19.538  0.00  0.00    +0.000 C 
ENDBRANCH  31  32
ENDBRANCH   9  31
TORSDOF 4
ENDMDL
MODEL 8
REMARK VINA RESULT:      -8.6      1.822      3.968
REMARK  Name = 
REMARK  8 active torsions:
REMARK  status: ('A' for Active; 'I' for Inactive)
REMARK    1  A    between atoms: C_1  and  N_2
REMARK    2  A    between atoms: C_7  and  C_8
REMARK    3  A    between atoms: C_16  and  C_18
REMARK    4  A    between atoms: C_18  and  C_19
REMARK    5  A    between atoms: C_18  and  C_20
REMARK    6  A    between atoms: C_18  and  C_21
REMARK    7  A    between atoms: N_27  and  C_28
REMARK    8  A    between atoms: C_28  and  C_29
REMARK                            x       y       z     vdW  Elec       q    Type
REMARK                         _______ _______ _______ _____ _____    ______ ____
ROOT
ATOM      1  C   UNL     1       4.189   2.593  20.099  0.00  0.00    +0.000 C 
ATOM      2  N   UNL     1       2.825   3.004  20.343  0.00  0.00    +0.000 N 
ATOM      3  C   UNL     1       2.575   4.333  20.025  0.00  0.00    +0.000 A 
ATOM      4  N   UNL     1       1.700   4.938  20.849  0.00  0.00    +0.000 NA
ATOM      5  C   UNL     1       1.403   6.241  20.650  0.00  0.00    +0.000 A 
ATOM      6  C   UNL     1       2.010   6.931  19.611  0.00  0.00    +0.000 A 
ATOM      7  C   UNL     1       2.009   8.242  19.059  0.00  0.00    +0.000 A 
ATOM      8  N   UNL     1       2.875   8.336  18.033  0.00  0.00    +0.000 NA
ATOM      9  N   UNL     1       3.373   7.082  17.904  0.00  0.00    +0.000 N 
ATOM     10  C   UNL     1       2.894   6.207  18.840  0.00  0.00    +0.000 A 
ATOM     11  N   UNL     1       3.209   4.911  18.992  0.00  0.00    +0.000 NA
ATOM     12  H   UNL     1       2.502   2.892  21.299  0.00  0.00    +0.000 HD
ENDROOT
BRANCH   7  13
ATOM     13  C   UNL     1       1.217   9.382  19.499  0.00  0.00    +0.000 A 
ATOM     14  C   UNL     1       0.223   9.938  18.698  0.00  0.00    +0.000 A 
ATOM     15  C   UNL     1      -0.568  10.975  19.190  0.00  0.00    +0.000 A 
ATOM     16  C   UNL     1      -0.346  11.478  20.469  0.00  0.00    +0.000 A 
ATOM     17  N   UNL     1      -1.103  12.513  20.963  0.00  0.00    +0.000 N 
ATOM     18  C   UNL     1      -2.521  12.710  20.640  0.00  0.00    +0.000 C 
ATOM     19  C   UNL     1      -3.383  12.759  21.919  0.00  0.00    +0.000 C 
ATOM     20  N   UNL     1      -2.823  13.668  22.934  0.00  0.00    +0.000 N 
ATOM     21  C   UNL     1      -3.624  14.675  23.447  0.00  0.00    +0.000 C 
ATOM     22  O   UNL     1      -4.788  14.796  23.037  0.00  0.00    +0.000 OA
ATOM     23  C   UNL     1      -1.427  13.346  23.262  0.00  0.00    +0.000 C 
ATOM     24  C   UNL     1      -0.541  13.365  22.011  0.00  0.00    +0.000 C 
ATOM     25  N   UNL     1       0.650  10.976  21.231  0.00  0.00    +0.000 NA
ATOM     26  C   UNL     1       1.403   9.955  20.745  0.00  0.00    +0.000 A 
BRANCH  21  27
ATOM     27  C   UNL     1      -3.088  15.674  24.507  0.00  0.00    +0.000 C 
ATOM     28  C   UNL     1      -2.009  16.588  23.904  0.00  0.00    +0.000 C 
ATOM     29  C   UNL     1      -4.256  16.601  24.941  0.00  0.00    +0.000 C 
ATOM     30  C   UNL     1      -2.623  14.969  25.791  0.00  0.00    +0.000 C 
ENDBRANCH  21  27
ENDBRANCH   7  13
BRANCH   9  31
ATOM     31  C   UNL     1       4.242   6.761  16.788  0.00  0.00    +0.000 C 
BRANCH  31  32
ATOM     32  C   UNL     1       5.200   5.592  17.042  0.00  0.00    +0.000 C 
ATOM     33  C   UNL     1       5.788   4.988  15.768  0.00  0.00    +0.000 C 
ATOM     34  C   UNL     1       7.070   4.304  16.221  0.00  0.00    +0.000 C 
ATOM     35  C   UNL     1       7.561   5.088  17.433  0.00  0.00    +0.000 C 
ATOM     36  C   UNL     1       6.439   6.047  17.820  0.00  0.00    +0.000 C 
ENDBRANCH  31  32
ENDBRANCH   9  31
TORSDOF 4
ENDMDL
MODEL 9
REMARK VINA RESULT:      -8.5      1.855      3.978
REMARK  Name = 
REMARK  8 active torsions:
REMARK  status: ('A' for Active; 'I' for Inactive)
REMARK    1  A    between atoms: C_1  and  N_2
REMARK    2  A    between atoms: C_7  and  C_8
REMARK    3  A    between atoms: C_16  and  C_18
REMARK    4  A    between atoms: C_18  and  C_19
REMARK    5  A    between atoms: C_18  and  C_20
REMARK    6  A    between atoms: C_18  and  C_21
REMARK    7  A    between atoms: N_27  and  C_28
REMARK    8  A    between atoms: C_28  and  C_29
REMARK                            x       y       z     vdW  Elec       q    Type
REMARK                         _______ _______ _______ _____ _____    ______ ____
ROOT
ATOM      1  C   UNL     1       4.499   2.082  20.798  0.00  0.00    +0.000 C 
ATOM      2  N   UNL     1       3.107   2.434  20.637  0.00  0.00    +0.000 N 
ATOM      3  C   UNL     1       2.906   3.740  20.207  0.00  0.00    +0.000 A 
ATOM      4  N   UNL     1       1.814   4.327  20.730  0.00  0.00    +0.000 NA
ATOM      5  C   UNL     1       1.535   5.607  20.402  0.00  0.00    +0.000 A 
ATOM      6  C   UNL     1       2.381   6.294  19.543  0.00  0.00    +0.000 A 
ATOM      7  C   UNL     1       2.485   7.586  18.958  0.00  0.00    +0.000 A 
ATOM      8  N   UNL     1       3.598   7.690  18.209  0.00  0.00    +0.000 NA
ATOM      9  N   UNL     1       4.159   6.458  18.276  0.00  0.00    +0.000 N 
ATOM     10  C   UNL     1       3.472   5.590  19.079  0.00  0.00    +0.000 A 
ATOM     11  N   UNL     1       3.780   4.316  19.366  0.00  0.00    +0.000 NA
ATOM     12  H   UNL     1       2.535   2.336  21.470  0.00  0.00    +0.000 HD
ENDROOT
BRANCH   7  13
ATOM     13  C   UNL     1       1.559   8.700  19.114  0.00  0.00    +0.000 A 
ATOM     14  C   UNL     1       1.086   9.419  18.019  0.00  0.00    +0.000 A 
ATOM     15  C   UNL     1       0.138  10.424  18.204  0.00  0.00    +0.000 A 
ATOM     16  C   UNL     1      -0.315  10.732  19.484  0.00  0.00    +0.000 A 
ATOM     17  N   UNL     1      -1.234  11.732  19.687  0.00  0.00    +0.000 N 
ATOM     18  C   UNL     1      -2.306  12.056  18.739  0.00  0.00    +0.000 C 
ATOM     19  C   UNL     1      -3.692  11.979  19.417  0.00  0.00    +0.000 C 
ATOM     20  N   UNL     1      -3.726  12.706  20.698  0.00  0.00    +0.000 N 
ATOM     21  C   UNL     1      -4.693  13.678  20.892  0.00  0.00    +0.000 C 
ATOM     22  O   UNL     1      -5.501  13.924  19.984  0.00  0.00    +0.000 OA
ATOM     23  C   UNL     1      -2.673  12.259  21.621  0.00  0.00    +0.000 C 
ATOM     24  C   UNL     1      -1.282  12.398  20.990  0.00  0.00    +0.000 C 
ATOM     25  N   UNL     1       0.179  10.072  20.555  0.00  0.00    +0.000 NA
ATOM     26  C   UNL     1       1.091   9.084  20.358  0.00  0.00    +0.000 A 
BRANCH  21  27
ATOM     27  C   UNL     1      -4.773  14.489  22.213  0.00  0.00    +0.000 C 
ATOM     28  C   UNL     1      -3.566  15.431  22.353  0.00  0.00    +0.000 C 
ATOM     29  C   UNL     1      -6.032  15.395  22.157  0.00  0.00    +0.000 C 
ATOM     30  C   UNL     1      -4.969  13.585  23.440  0.00  0.00    +0.000 C 
ENDBRANCH  21  27
ENDBRANCH   7  13
BRANCH   9  31
ATOM     31  C   UNL     1       5.316   6.146  17.459  0.00  0.00    +0.000 C 
BRANCH  31  32
ATOM     32  C   UNL     1       5.014   5.278  16.232  0.00  0.00    +0.000 C 
ATOM     33  C   UNL     1       5.525   5.866  14.918  0.00  0.00    +0.000 C 
ATOM     34  C   UNL     1       5.656   4.671  13.986  0.00  0.00    +0.000 C 
ATOM     35  C   UNL     1       5.949   3.469  14.877  0.00  0.00    +0.000 C 
ATOM     36  C   UNL     1       5.733   3.928  16.317  0.00  0.00    +0.000 C 
ENDBRANCH  31  32
ENDBRANCH   9  31
TORSDOF 4
ENDMDL
