MODEL 1
REMARK VINA RESULT:      -6.4      0.000      0.000
REMARK  Name = 
REMARK  12 active torsions:
REMARK  status: ('A' for Active; 'I' for Inactive)
REMARK    1  A    between atoms: C_1  and  C_2
REMARK    2  A    between atoms: C_3  and  O_4
REMARK    3  A    between atoms: O_4  and  C_5
REMARK    4  A    between atoms: C_5  and  C_6
REMARK    5  A    between atoms: C_6  and  C_7
REMARK    6  A    between atoms: C_7  and  C_8
REMARK    7  A    between atoms: C_8  and  C_9
REMARK    8  A    between atoms: C_9  and  C_10
REMARK    9  A    between atoms: C_10  and  C_11
REMARK   10  A    between atoms: C_11  and  C_12
REMARK   11  A    between atoms: C_12  and  N_13
REMARK   12  A    between atoms: C_19  and  C_20
REMARK                            x       y       z     vdW  Elec       q    Type
REMARK                         _______ _______ _______ _____ _____    ______ ____
ROOT
ATOM      1  C   UNL     1       6.927   5.897  16.893  0.00  0.00    +0.000 C 
ENDROOT
BRANCH   1   2
ATOM      2  C   UNL     1       5.653   5.354  16.254  0.00  0.00    +0.000 C 
BRANCH   2   3
ATOM      3  C   UNL     1       5.165   4.090  16.958  0.00  0.00    +0.000 C 
BRANCH   3   4
ATOM      4  O   UNL     1       5.406   4.247  18.359  0.00  0.00    +0.000 OA
BRANCH   4   7
ATOM      5  C   UNL     1       3.426   6.367  19.057  0.00  0.00    +0.000 C 
ATOM      6  C   UNL     1       3.442   4.945  19.488  0.00  0.00    +0.000 C 
ATOM      7  C   UNL     1       4.328   3.989  19.187  0.00  0.00    +0.000 C 
ATOM      8  C   UNL     1       4.058   2.600  19.702  0.00  0.00    +0.000 C 
ATOM      9  C   UNL     1       3.627   1.644  18.595  0.00  0.00    +0.000 C 
ATOM     10  S   UNL     1       2.672   2.802  20.870  0.00  0.00    +0.000 S 
ATOM     11  C   UNL     1       2.363   4.444  20.359  0.00  0.00    +0.000 C 
ATOM     12  O   UNL     1       1.381   5.088  20.695  0.00  0.00    +0.000 OA
ENDBRANCH   4   7
ENDBRANCH   3   4
ENDBRANCH   2   3
ENDBRANCH   1   2
BRANCH   1  13
ATOM     13  C   UNL     1       6.787   7.376  17.270  0.00  0.00    +0.000 C 
BRANCH  13  14
ATOM     14  C   UNL     1       8.019   7.833  18.046  0.00  0.00    +0.000 C 
BRANCH  14  15
ATOM     15  C   UNL     1       8.274   9.343  17.960  0.00  0.00    +0.000 C 
BRANCH  15  16
ATOM     16  C   UNL     1       9.191   9.738  19.119  0.00  0.00    +0.000 C 
BRANCH  16  17
ATOM     17  C   UNL     1       9.179  11.230  19.481  0.00  0.00    +0.000 C 
BRANCH  17  18
ATOM     18  N   UNL     1      10.067  11.963  18.568  0.00  0.00    +0.000 NA
ATOM     19  C   UNL     1      11.486  11.550  18.612  0.00  0.00    +0.000 C 
ATOM     20  C   UNL     1      12.328  12.207  19.717  0.00  0.00    +0.000 C 
ATOM     21  O   UNL     1      12.219  13.633  19.680  0.00  0.00    +0.000 OA
ATOM     22  C   UNL     1      10.849  14.021  19.829  0.00  0.00    +0.000 C 
ATOM     23  C   UNL     1       9.975  13.427  18.712  0.00  0.00    +0.000 C 
ENDBRANCH  17  18
ENDBRANCH  16  17
ENDBRANCH  15  16
ENDBRANCH  14  15
ENDBRANCH  13  14
ENDBRANCH   1  13
TORSDOF 10
ENDMDL
MODEL 2
REMARK VINA RESULT:      -6.4      4.223     10.732
REMARK  Name = 
REMARK  12 active torsions:
REMARK  status: ('A' for Active; 'I' for Inactive)
REMARK    1  A    between atoms: C_1  and  C_2
REMARK    2  A    between atoms: C_3  and  O_4
REMARK    3  A    between atoms: O_4  and  C_5
REMARK    4  A    between atoms: C_5  and  C_6
REMARK    5  A    between atoms: C_6  and  C_7
REMARK    6  A    between atoms: C_7  and  C_8
REMARK    7  A    between atoms: C_8  and  C_9
REMARK    8  A    between atoms: C_9  and  C_10
REMARK    9  A    between atoms: C_10  and  C_11
REMARK   10  A    between atoms: C_11  and  C_12
REMARK   11  A    between atoms: C_12  and  N_13
REMARK   12  A    between atoms: C_19  and  C_20
REMARK                            x       y       z     vdW  Elec       q    Type
REMARK                         _______ _______ _______ _____ _____    ______ ____
ROOT
ATOM      1  C   UNL     1       7.876   8.354  17.671  0.00  0.00    +0.000 C 
ENDROOT
BRANCH   1   2
ATOM      2  C   UNL     1       8.649   9.380  18.494  0.00  0.00    +0.000 C 
BRANCH   2   3
ATOM      3  C   UNL     1       8.524  10.783  17.905  0.00  0.00    +0.000 C 
BRANCH   3   4
ATOM      4  O   UNL     1       9.189  11.690  18.788  0.00  0.00    +0.000 OA
BRANCH   4   7
ATOM      5  C   UNL     1       8.577  14.529  18.107  0.00  0.00    +0.000 C 
ATOM      6  C   UNL     1       9.850  13.789  17.907  0.00  0.00    +0.000 C 
ATOM      7  C   UNL     1      10.133  12.515  18.203  0.00  0.00    +0.000 C 
ATOM      8  C   UNL     1      11.541  12.039  17.964  0.00  0.00    +0.000 C 
ATOM      9  C   UNL     1      12.312  11.832  19.263  0.00  0.00    +0.000 C 
ATOM     10  S   UNL     1      12.332  13.389  17.026  0.00  0.00    +0.000 S 
ATOM     11  C   UNL     1      11.006  14.489  17.317  0.00  0.00    +0.000 C 
ATOM     12  O   UNL     1      11.040  15.681  17.053  0.00  0.00    +0.000 OA
ENDBRANCH   4   7
ENDBRANCH   3   4
ENDBRANCH   2   3
ENDBRANCH   1   2
BRANCH   1  13
ATOM     13  C   UNL     1       7.806   6.996  18.377  0.00  0.00    +0.000 C 
BRANCH  13  14
ATOM     14  C   UNL     1       6.719   6.135  17.743  0.00  0.00    +0.000 C 
BRANCH  14  15
ATOM     15  C   UNL     1       6.148   5.070  18.687  0.00  0.00    +0.000 C 
BRANCH  15  16
ATOM     16  C   UNL     1       4.638   4.988  18.457  0.00  0.00    +0.000 C 
BRANCH  16  17
ATOM     17  C   UNL     1       3.780   5.040  19.728  0.00  0.00    +0.000 C 
BRANCH  17  18
ATOM     18  N   UNL     1       2.363   5.160  19.358  0.00  0.00    +0.000 NA
ATOM     19  C   UNL     1       1.406   4.802  20.426  0.00  0.00    +0.000 C 
ATOM     20  C   UNL     1       1.090   3.303  20.551  0.00  0.00    +0.000 C 
ATOM     21  O   UNL     1       0.677   2.750  19.298  0.00  0.00    +0.000 OA
ATOM     22  C   UNL     1       1.703   2.942  18.318  0.00  0.00    +0.000 C 
ATOM     23  C   UNL     1       2.016   4.434  18.122  0.00  0.00    +0.000 C 
ENDBRANCH  17  18
ENDBRANCH  16  17
ENDBRANCH  15  16
ENDBRANCH  14  15
ENDBRANCH  13  14
ENDBRANCH   1  13
TORSDOF 10
ENDMDL
MODEL 3
REMARK VINA RESULT:      -6.4      4.234     10.374
REMARK  Name = 
REMARK  12 active torsions:
REMARK  status: ('A' for Active; 'I' for Inactive)
REMARK    1  A    between atoms: C_1  and  C_2
REMARK    2  A    between atoms: C_3  and  O_4
REMARK    3  A    between atoms: O_4  and  C_5
REMARK    4  A    between atoms: C_5  and  C_6
REMARK    5  A    between atoms: C_6  and  C_7
REMARK    6  A    between atoms: C_7  and  C_8
REMARK    7  A    between atoms: C_8  and  C_9
REMARK    8  A    between atoms: C_9  and  C_10
REMARK    9  A    between atoms: C_10  and  C_11
REMARK   10  A    between atoms: C_11  and  C_12
REMARK   11  A    between atoms: C_12  and  N_13
REMARK   12  A    between atoms: C_19  and  C_20
REMARK                            x       y       z     vdW  Elec       q    Type
REMARK                         _______ _______ _______ _____ _____    ______ ____
ROOT
ATOM      1  C   UNL     1       8.217   7.631  18.412  0.00  0.00    +0.000 C 
ENDROOT
BRANCH   1   2
ATOM      2  C   UNL     1       8.106   9.060  17.891  0.00  0.00    +0.000 C 
BRANCH   2   3
ATOM      3  C   UNL     1       8.953  10.027  18.714  0.00  0.00    +0.000 C 
BRANCH   3   4
ATOM      4  O   UNL     1       9.785  10.760  17.811  0.00  0.00    +0.000 OA
BRANCH   4   7
ATOM      5  C   UNL     1       7.683  12.783  17.190  0.00  0.00    +0.000 C 
ATOM      6  C   UNL     1       9.007  12.999  17.830  0.00  0.00    +0.000 C 
ATOM      7  C   UNL     1       9.959  12.100  18.107  0.00  0.00    +0.000 C 
ATOM      8  C   UNL     1      11.184  12.583  18.836  0.00  0.00    +0.000 C 
ATOM      9  C   UNL     1      11.222  12.106  20.284  0.00  0.00    +0.000 C 
ATOM     10  S   UNL     1      11.040  14.402  18.826  0.00  0.00    +0.000 S 
ATOM     11  C   UNL     1       9.390  14.358  18.254  0.00  0.00    +0.000 C 
ATOM     12  O   UNL     1       8.660  15.336  18.206  0.00  0.00    +0.000 OA
ENDBRANCH   4   7
ENDBRANCH   3   4
ENDBRANCH   2   3
ENDBRANCH   1   2
BRANCH   1  13
ATOM     13  C   UNL     1       7.316   6.670  17.630  0.00  0.00    +0.000 C 
BRANCH  13  14
ATOM     14  C   UNL     1       7.193   5.347  18.378  0.00  0.00    +0.000 C 
BRANCH  14  15
ATOM     15  C   UNL     1       5.824   5.138  19.038  0.00  0.00    +0.000 C 
BRANCH  15  16
ATOM     16  C   UNL     1       4.795   4.895  17.933  0.00  0.00    +0.000 C 
BRANCH  16  17
ATOM     17  C   UNL     1       4.121   3.517  17.960  0.00  0.00    +0.000 C 
BRANCH  17  18
ATOM     18  N   UNL     1       2.671   3.676  17.781  0.00  0.00    +0.000 NA
ATOM     19  C   UNL     1       2.091   4.875  18.421  0.00  0.00    +0.000 C 
ATOM     20  C   UNL     1       1.739   4.721  19.909  0.00  0.00    +0.000 C 
ATOM     21  O   UNL     1       0.908   3.579  20.134  0.00  0.00    +0.000 OA
ATOM     22  C   UNL     1       1.571   2.396  19.676  0.00  0.00    +0.000 C 
ATOM     23  C   UNL     1       1.898   2.484  18.176  0.00  0.00    +0.000 C 
ENDBRANCH  17  18
ENDBRANCH  16  17
ENDBRANCH  15  16
ENDBRANCH  14  15
ENDBRANCH  13  14
ENDBRANCH   1  13
TORSDOF 10
ENDMDL
MODEL 4
REMARK VINA RESULT:      -6.3      4.113     10.624
REMARK  Name = 
REMARK  12 active torsions:
REMARK  status: ('A' for Active; 'I' for Inactive)
REMARK    1  A    between atoms: C_1  and  C_2
REMARK    2  A    between atoms: C_3  and  O_4
REMARK    3  A    between atoms: O_4  and  C_5
REMARK    4  A    between atoms: C_5  and  C_6
REMARK    5  A    between atoms: C_6  and  C_7
REMARK    6  A    between atoms: C_7  and  C_8
REMARK    7  A    between atoms: C_8  and  C_9
REMARK    8  A    between atoms: C_9  and  C_10
REMARK    9  A    between atoms: C_10  and  C_11
REMARK   10  A    between atoms: C_11  and  C_12
REMARK   11  A    between atoms: C_12  and  N_13
REMARK   12  A    between atoms: C_19  and  C_20
REMARK                            x       y       z     vdW  Elec       q    Type
REMARK                         _______ _______ _______ _____ _____    ______ ____
ROOT
ATOM      1  C   UNL     1       7.946   8.704  17.628  0.00  0.00    +0.000 C 
ENDROOT
BRANCH   1   2
ATOM      2  C   UNL     1       8.789   9.501  18.619  0.00  0.00    +0.000 C 
BRANCH   2   3
ATOM      3  C   UNL     1       9.018  10.932  18.140  0.00  0.00    +0.000 C 
BRANCH   3   4
ATOM      4  O   UNL     1      10.319  11.337  18.575  0.00  0.00    +0.000 OA
BRANCH   4   7
ATOM      5  C   UNL     1      10.269  12.639  21.259  0.00  0.00    +0.000 C 
ATOM      6  C   UNL     1      10.487  13.273  19.933  0.00  0.00    +0.000 C 
ATOM      7  C   UNL     1      10.505  12.700  18.724  0.00  0.00    +0.000 C 
ATOM      8  C   UNL     1      10.827  13.575  17.542  0.00  0.00    +0.000 C 
ATOM      9  C   UNL     1      12.217  13.297  16.978  0.00  0.00    +0.000 C 
ATOM     10  S   UNL     1      10.796  15.274  18.203  0.00  0.00    +0.000 S 
ATOM     11  C   UNL     1      10.732  14.725  19.860  0.00  0.00    +0.000 C 
ATOM     12  O   UNL     1      10.866  15.460  20.827  0.00  0.00    +0.000 OA
ENDBRANCH   4   7
ENDBRANCH   3   4
ENDBRANCH   2   3
ENDBRANCH   1   2
BRANCH   1  13
ATOM     13  C   UNL     1       7.809   7.237  18.050  0.00  0.00    +0.000 C 
BRANCH  13  14
ATOM     14  C   UNL     1       6.522   6.650  17.480  0.00  0.00    +0.000 C 
BRANCH  14  15
ATOM     15  C   UNL     1       6.753   5.648  16.342  0.00  0.00    +0.000 C 
BRANCH  15  16
ATOM     16  C   UNL     1       5.391   5.134  15.875  0.00  0.00    +0.000 C 
BRANCH  16  17
ATOM     17  C   UNL     1       4.898   3.860  16.576  0.00  0.00    +0.000 C 
BRANCH  17  18
ATOM     18  N   UNL     1       3.957   4.221  17.646  0.00  0.00    +0.000 NA
ATOM     19  C   UNL     1       4.418   3.909  19.015  0.00  0.00    +0.000 C 
ATOM     20  C   UNL     1       4.161   2.467  19.482  0.00  0.00    +0.000 C 
ATOM     21  O   UNL     1       2.788   2.101  19.316  0.00  0.00    +0.000 OA
ATOM     22  C   UNL     1       2.411   2.231  17.941  0.00  0.00    +0.000 C 
ATOM     23  C   UNL     1       2.603   3.673  17.444  0.00  0.00    +0.000 C 
ENDBRANCH  17  18
ENDBRANCH  16  17
ENDBRANCH  15  16
ENDBRANCH  14  15
ENDBRANCH  13  14
ENDBRANCH   1  13
TORSDOF 10
ENDMDL
MODEL 5
REMARK VINA RESULT:      -6.3      4.188     10.670
REMARK  Name = 
REMARK  12 active torsions:
REMARK  status: ('A' for Active; 'I' for Inactive)
REMARK    1  A    between atoms: C_1  and  C_2
REMARK    2  A    between atoms: C_3  and  O_4
REMARK    3  A    between atoms: O_4  and  C_5
REMARK    4  A    between atoms: C_5  and  C_6
REMARK    5  A    between atoms: C_6  and  C_7
REMARK    6  A    between atoms: C_7  and  C_8
REMARK    7  A    between atoms: C_8  and  C_9
REMARK    8  A    between atoms: C_9  and  C_10
REMARK    9  A    between atoms: C_10  and  C_11
REMARK   10  A    between atoms: C_11  and  C_12
REMARK   11  A    between atoms: C_12  and  N_13
REMARK   12  A    between atoms: C_19  and  C_20
REMARK                            x       y       z     vdW  Elec       q    Type
REMARK                         _______ _______ _______ _____ _____    ______ ____
ROOT
ATOM      1  C   UNL     1       8.282   9.122  17.946  0.00  0.00    +0.000 C 
ENDROOT
BRANCH   1   2
ATOM      2  C   UNL     1       8.971   9.954  19.022  0.00  0.00    +0.000 C 
BRANCH   2   3
ATOM      3  C   UNL     1       9.892  11.009  18.414  0.00  0.00    +0.000 C 
BRANCH   3   4
ATOM      4  O   UNL     1       9.087  11.900  17.638  0.00  0.00    +0.000 OA
BRANCH   4   7
ATOM      5  C   UNL     1      11.517  13.336  16.674  0.00  0.00    +0.000 C 
ATOM      6  C   UNL     1      10.368  13.884  17.439  0.00  0.00    +0.000 C 
ATOM      7  C   UNL     1       9.277  13.248  17.882  0.00  0.00    +0.000 C 
ATOM      8  C   UNL     1       8.220  14.071  18.571  0.00  0.00    +0.000 C 
ATOM      9  C   UNL     1       6.974  14.251  17.711  0.00  0.00    +0.000 C 
ATOM     10  S   UNL     1       8.996  15.703  18.821  0.00  0.00    +0.000 S 
ATOM     11  C   UNL     1      10.351  15.317  17.787  0.00  0.00    +0.000 C 
ATOM     12  O   UNL     1      11.178  16.136  17.415  0.00  0.00    +0.000 OA
ENDBRANCH   4   7
ENDBRANCH   3   4
ENDBRANCH   2   3
ENDBRANCH   1   2
BRANCH   1  13
ATOM     13  C   UNL     1       8.141   7.655  18.365  0.00  0.00    +0.000 C 
BRANCH  13  14
ATOM     14  C   UNL     1       7.398   6.874  17.286  0.00  0.00    +0.000 C 
BRANCH  14  15
ATOM     15  C   UNL     1       5.967   6.490  17.679  0.00  0.00    +0.000 C 
BRANCH  15  16
ATOM     16  C   UNL     1       6.041   5.518  18.857  0.00  0.00    +0.000 C 
BRANCH  16  17
ATOM     17  C   UNL     1       4.705   4.883  19.266  0.00  0.00    +0.000 C 
BRANCH  17  18
ATOM     18  N   UNL     1       4.669   3.484  18.819  0.00  0.00    +0.000 NA
ATOM     19  C   UNL     1       4.085   3.271  17.478  0.00  0.00    +0.000 C 
ATOM     20  C   UNL     1       2.552   3.166  17.438  0.00  0.00    +0.000 C 
ATOM     21  O   UNL     1       2.072   2.182  18.359  0.00  0.00    +0.000 OA
ATOM     22  C   UNL     1       2.492   2.511  19.687  0.00  0.00    +0.000 C 
ATOM     23  C   UNL     1       4.025   2.576  19.787  0.00  0.00    +0.000 C 
ENDBRANCH  17  18
ENDBRANCH  16  17
ENDBRANCH  15  16
ENDBRANCH  14  15
ENDBRANCH  13  14
ENDBRANCH   1  13
TORSDOF 10
ENDMDL
MODEL 6
REMARK VINA RESULT:      -6.2      1.375      1.794
REMARK  Name = 
REMARK  12 active torsions:
REMARK  status: ('A' for Active; 'I' for Inactive)
REMARK    1  A    between atoms: C_1  and  C_2
REMARK    2  A    between atoms: C_3  and  O_4
REMARK    3  A    between atoms: O_4  and  C_5
REMARK    4  A    between atoms: C_5  and  C_6
REMARK    5  A    between atoms: C_6  and  C_7
REMARK    6  A    between atoms: C_7  and  C_8
REMARK    7  A    between atoms: C_8  and  C_9
REMARK    8  A    between atoms: C_9  and  C_10
REMARK    9  A    between atoms: C_10  and  C_11
REMARK   10  A    between atoms: C_11  and  C_12
REMARK   11  A    between atoms: C_12  and  N_13
REMARK   12  A    between atoms: C_19  and  C_20
REMARK                            x       y       z     vdW  Elec       q    Type
REMARK                         _______ _______ _______ _____ _____    ______ ____
ROOT
ATOM      1  C   UNL     1       6.242   5.268  17.692  0.00  0.00    +0.000 C 
ENDROOT
BRANCH   1   2
ATOM      2  C   UNL     1       5.074   5.988  17.027  0.00  0.00    +0.000 C 
BRANCH   2   3
ATOM      3  C   UNL     1       3.989   6.352  18.037  0.00  0.00    +0.000 C 
BRANCH   3   4
ATOM      4  O   UNL     1       2.989   5.330  17.995  0.00  0.00    +0.000 OA
BRANCH   4   7
ATOM      5  C   UNL     1       1.747   5.777  20.670  0.00  0.00    +0.000 C 
ATOM      6  C   UNL     1       2.494   4.586  20.190  0.00  0.00    +0.000 C 
ATOM      7  C   UNL     1       3.061   4.378  18.996  0.00  0.00    +0.000 C 
ATOM      8  C   UNL     1       3.696   3.036  18.748  0.00  0.00    +0.000 C 
ATOM      9  C   UNL     1       2.881   2.177  17.787  0.00  0.00    +0.000 C 
ATOM     10  S   UNL     1       3.712   2.225  20.382  0.00  0.00    +0.000 S 
ATOM     11  C   UNL     1       2.669   3.433  21.092  0.00  0.00    +0.000 C 
ATOM     12  O   UNL     1       2.163   3.330  22.200  0.00  0.00    +0.000 OA
ENDBRANCH   4   7
ENDBRANCH   3   4
ENDBRANCH   2   3
ENDBRANCH   1   2
BRANCH   1  13
ATOM     13  C   UNL     1       7.215   6.252  18.351  0.00  0.00    +0.000 C 
BRANCH  13  14
ATOM     14  C   UNL     1       7.698   7.272  17.325  0.00  0.00    +0.000 C 
BRANCH  14  15
ATOM     15  C   UNL     1       7.500   8.728  17.764  0.00  0.00    +0.000 C 
BRANCH  15  16
ATOM     16  C   UNL     1       8.684   9.125  18.647  0.00  0.00    +0.000 C 
BRANCH  16  17
ATOM     17  C   UNL     1       9.106  10.597  18.551  0.00  0.00    +0.000 C 
BRANCH  17  18
ATOM     18  N   UNL     1      10.140  10.878  19.557  0.00  0.00    +0.000 NA
ATOM     19  C   UNL     1       9.663  11.589  20.762  0.00  0.00    +0.000 C 
ATOM     20  C   UNL     1       9.585  13.119  20.634  0.00  0.00    +0.000 C 
ATOM     21  O   UNL     1      10.826  13.669  20.182  0.00  0.00    +0.000 OA
ATOM     22  C   UNL     1      11.179  13.102  18.915  0.00  0.00    +0.000 C 
ATOM     23  C   UNL     1      11.318  11.574  19.008  0.00  0.00    +0.000 C 
ENDBRANCH  17  18
ENDBRANCH  16  17
ENDBRANCH  15  16
ENDBRANCH  14  15
ENDBRANCH  13  14
ENDBRANCH   1  13
TORSDOF 10
ENDMDL
MODEL 7
REMARK VINA RESULT:      -6.2      6.040      8.576
REMARK  Name = 
REMARK  12 active torsions:
REMARK  status: ('A' for Active; 'I' for Inactive)
REMARK    1  A    between atoms: C_1  and  C_2
REMARK    2  A    between atoms: C_3  and  O_4
REMARK    3  A    between atoms: O_4  and  C_5
REMARK    4  A    between atoms: C_5  and  C_6
REMARK    5  A    between atoms: C_6  and  C_7
REMARK    6  A    between atoms: C_7  and  C_8
REMARK    7  A    between atoms: C_8  and  C_9
REMARK    8  A    between atoms: C_9  and  C_10
REMARK    9  A    between atoms: C_10  and  C_11
REMARK   10  A    between atoms: C_11  and  C_12
REMARK   11  A    between atoms: C_12  and  N_13
REMARK   12  A    between atoms: C_19  and  C_20
REMARK                            x       y       z     vdW  Elec       q    Type
REMARK                         _______ _______ _______ _____ _____    ______ ____
ROOT
ATOM      1  C   UNL     1       2.110   7.828  19.402  0.00  0.00    +0.000 C 
ENDROOT
BRANCH   1   2
ATOM      2  C   UNL     1       2.354   8.544  18.078  0.00  0.00    +0.000 C 
BRANCH   2   3
ATOM      3  C   UNL     1       1.587   9.862  18.001  0.00  0.00    +0.000 C 
BRANCH   3   4
ATOM      4  O   UNL     1       0.204   9.554  17.809  0.00  0.00    +0.000 OA
BRANCH   4   7
ATOM      5  C   UNL     1      -2.569   9.822  16.742  0.00  0.00    +0.000 C 
ATOM      6  C   UNL     1      -1.937  10.570  17.859  0.00  0.00    +0.000 C 
ATOM      7  C   UNL     1      -0.693  10.463  18.341  0.00  0.00    +0.000 C 
ATOM      8  C   UNL     1      -0.335  11.298  19.542  0.00  0.00    +0.000 C 
ATOM      9  C   UNL     1      -0.203  10.461  20.810  0.00  0.00    +0.000 C 
ATOM     10  S   UNL     1      -1.741  12.443  19.743  0.00  0.00    +0.000 S 
ATOM     11  C   UNL     1      -2.727  11.578  18.590  0.00  0.00    +0.000 C 
ATOM     12  O   UNL     1      -3.917  11.795  18.413  0.00  0.00    +0.000 OA
ENDBRANCH   4   7
ENDBRANCH   3   4
ENDBRANCH   2   3
ENDBRANCH   1   2
BRANCH   1  13
ATOM     13  C   UNL     1       2.476   6.342  19.320  0.00  0.00    +0.000 C 
BRANCH  13  14
ATOM     14  C   UNL     1       2.046   5.774  17.972  0.00  0.00    +0.000 C 
BRANCH  14  15
ATOM     15  C   UNL     1       1.982   4.242  17.941  0.00  0.00    +0.000 C 
BRANCH  15  16
ATOM     16  C   UNL     1       3.391   3.701  18.185  0.00  0.00    +0.000 C 
BRANCH  16  17
ATOM     17  C   UNL     1       4.260   3.551  16.928  0.00  0.00    +0.000 C 
BRANCH  17  18
ATOM     18  N   UNL     1       4.904   4.836  16.622  0.00  0.00    +0.000 NA
ATOM     19  C   UNL     1       5.383   4.979  15.231  0.00  0.00    +0.000 C 
ATOM     20  C   UNL     1       6.772   4.386  14.949  0.00  0.00    +0.000 C 
ATOM     21  O   UNL     1       7.748   4.881  15.871  0.00  0.00    +0.000 OA
ATOM     22  C   UNL     1       7.357   4.565  17.212  0.00  0.00    +0.000 C 
ATOM     23  C   UNL     1       5.992   5.183  17.555  0.00  0.00    +0.000 C 
ENDBRANCH  17  18
ENDBRANCH  16  17
ENDBRANCH  15  16
ENDBRANCH  14  15
ENDBRANCH  13  14
ENDBRANCH   1  13
TORSDOF 10
ENDMDL
MODEL 8
REMARK VINA RESULT:      -6.2      4.195     10.293
REMARK  Name = 
REMARK  12 active torsions:
REMARK  status: ('A' for Active; 'I' for Inactive)
REMARK    1  A    between atoms: C_1  and  C_2
REMARK    2  A    between atoms: C_3  and  O_4
REMARK    3  A    between atoms: O_4  and  C_5
REMARK    4  A    between atoms: C_5  and  C_6
REMARK    5  A    between atoms: C_6  and  C_7
REMARK    6  A    between atoms: C_7  and  C_8
REMARK    7  A    between atoms: C_8  and  C_9
REMARK    8  A    between atoms: C_9  and  C_10
REMARK    9  A    between atoms: C_10  and  C_11
REMARK   10  A    between atoms: C_11  and  C_12
REMARK   11  A    between atoms: C_12  and  N_13
REMARK   12  A    between atoms: C_19  and  C_20
REMARK                            x       y       z     vdW  Elec       q    Type
REMARK                         _______ _______ _______ _____ _____    ______ ____
ROOT
ATOM      1  C   UNL     1       7.160   7.527  17.367  0.00  0.00    +0.000 C 
ENDROOT
BRANCH   1   2
ATOM      2  C   UNL     1       8.293   8.047  18.246  0.00  0.00    +0.000 C 
BRANCH   2   3
ATOM      3  C   UNL     1       8.415   9.567  18.166  0.00  0.00    +0.000 C 
BRANCH   3   4
ATOM      4  O   UNL     1       9.185  10.004  19.289  0.00  0.00    +0.000 OA
BRANCH   4   7
ATOM      5  C   UNL     1       8.805  11.579  21.794  0.00  0.00    +0.000 C 
ATOM      6  C   UNL     1       9.286  12.056  20.472  0.00  0.00    +0.000 C 
ATOM      7  C   UNL     1       9.454  11.360  19.341  0.00  0.00    +0.000 C 
ATOM      8  C   UNL     1      10.034  12.084  18.155  0.00  0.00    +0.000 C 
ATOM      9  C   UNL     1      11.469  11.660  17.863  0.00  0.00    +0.000 C 
ATOM     10  S   UNL     1      10.034  13.842  18.642  0.00  0.00    +0.000 S 
ATOM     11  C   UNL     1       9.657  13.474  20.308  0.00  0.00    +0.000 C 
ATOM     12  O   UNL     1       9.691  14.296  21.211  0.00  0.00    +0.000 OA
ENDBRANCH   4   7
ENDBRANCH   3   4
ENDBRANCH   2   3
ENDBRANCH   1   2
BRANCH   1  13
ATOM     13  C   UNL     1       7.145   5.995  17.308  0.00  0.00    +0.000 C 
BRANCH  13  14
ATOM     14  C   UNL     1       6.160   5.445  18.334  0.00  0.00    +0.000 C 
BRANCH  14  15
ATOM     15  C   UNL     1       4.692   5.563  17.904  0.00  0.00    +0.000 C 
BRANCH  15  16
ATOM     16  C   UNL     1       4.215   4.182  17.454  0.00  0.00    +0.000 C 
BRANCH  16  17
ATOM     17  C   UNL     1       2.695   3.973  17.488  0.00  0.00    +0.000 C 
BRANCH  17  18
ATOM     18  N   UNL     1       2.393   2.658  18.071  0.00  0.00    +0.000 NA
ATOM     19  C   UNL     1       1.045   2.532  18.663  0.00  0.00    +0.000 C 
ATOM     20  C   UNL     1       0.912   3.036  20.109  0.00  0.00    +0.000 C 
ATOM     21  O   UNL     1       1.895   2.442  20.962  0.00  0.00    +0.000 OA
ATOM     22  C   UNL     1       3.208   2.737  20.472  0.00  0.00    +0.000 C 
ATOM     23  C   UNL     1       3.403   2.203  19.044  0.00  0.00    +0.000 C 
ENDBRANCH  17  18
ENDBRANCH  16  17
ENDBRANCH  15  16
ENDBRANCH  14  15
ENDBRANCH  13  14
ENDBRANCH   1  13
TORSDOF 10
ENDMDL
MODEL 9
REMARK VINA RESULT:      -6.2      4.062     10.372
REMARK  Name = 
REMARK  12 active torsions:
REMARK  status: ('A' for Active; 'I' for Inactive)
REMARK    1  A    between atoms: C_1  and  C_2
REMARK    2  A    between atoms: C_3  and  O_4
REMARK    3  A    between atoms: O_4  and  C_5
REMARK    4  A    between atoms: C_5  and  C_6
REMARK    5  A    between atoms: C_6  and  C_7
REMARK    6  A    between atoms: C_7  and  C_8
REMARK    7  A    between atoms: C_8  and  C_9
REMARK    8  A    between atoms: C_9  and  C_10
REMARK    9  A    between atoms: C_10  and  C_11
REMARK   10  A    between atoms: C_11  and  C_12
REMARK   11  A    between atoms: C_12  and  N_13
REMARK   12  A    between atoms: C_19  and  C_20
REMARK                            x       y       z     vdW  Elec       q    Type
REMARK                         _______ _______ _______ _____ _____    ______ ____
ROOT
ATOM      1  C   UNL     1       8.361   9.269  18.080  0.00  0.00    +0.000 C 
ENDROOT
BRANCH   1   2
ATOM      2  C   UNL     1       9.047  10.005  19.226  0.00  0.00    +0.000 C 
BRANCH   2   3
ATOM      3  C   UNL     1      10.082  11.005  18.715  0.00  0.00    +0.000 C 
BRANCH   3   4
ATOM      4  O   UNL     1       9.469  11.779  17.681  0.00  0.00    +0.000 OA
BRANCH   4   7
ATOM      5  C   UNL     1      11.773  13.352  16.625  0.00  0.00    +0.000 C 
ATOM      6  C   UNL     1      10.577  13.849  17.352  0.00  0.00    +0.000 C 
ATOM      7  C   UNL     1       9.542  13.152  17.836  0.00  0.00    +0.000 C 
ATOM      8  C   UNL     1       8.416  13.924  18.471  0.00  0.00    +0.000 C 
ATOM      9  C   UNL     1       7.163  13.941  17.602  0.00  0.00    +0.000 C 
ATOM     10  S   UNL     1       9.048  15.630  18.613  0.00  0.00    +0.000 S 
ATOM     11  C   UNL     1      10.436  15.295  17.606  0.00  0.00    +0.000 C 
ATOM     12  O   UNL     1      11.192  16.155  17.181  0.00  0.00    +0.000 OA
ENDBRANCH   4   7
ENDBRANCH   3   4
ENDBRANCH   2   3
ENDBRANCH   1   2
BRANCH   1  13
ATOM     13  C   UNL     1       8.201   7.775  18.379  0.00  0.00    +0.000 C 
BRANCH  13  14
ATOM     14  C   UNL     1       7.467   7.091  17.230  0.00  0.00    +0.000 C 
BRANCH  14  15
ATOM     15  C   UNL     1       5.940   7.195  17.327  0.00  0.00    +0.000 C 
BRANCH  15  16
ATOM     16  C   UNL     1       5.330   6.156  16.385  0.00  0.00    +0.000 C 
BRANCH  16  17
ATOM     17  C   UNL     1       5.336   4.714  16.911  0.00  0.00    +0.000 C 
BRANCH  17  18
ATOM     18  N   UNL     1       3.958   4.291  17.196  0.00  0.00    +0.000 NA
ATOM     19  C   UNL     1       3.174   5.233  18.022  0.00  0.00    +0.000 C 
ATOM     20  C   UNL     1       3.371   5.097  19.540  0.00  0.00    +0.000 C 
ATOM     21  O   UNL     1       3.162   3.751  19.976  0.00  0.00    +0.000 OA
ATOM     22  C   UNL     1       4.067   2.872  19.298  0.00  0.00    +0.000 C 
ATOM     23  C   UNL     1       3.869   2.937  17.774  0.00  0.00    +0.000 C 
ENDBRANCH  17  18
ENDBRANCH  16  17
ENDBRANCH  15  16
ENDBRANCH  14  15
ENDBRANCH  13  14
ENDBRANCH   1  13
TORSDOF 10
ENDMDL
