MODEL 1
REMARK VINA RESULT:      -7.1      0.000      0.000
REMARK  Name = 
REMARK  4 active torsions:
REMARK  status: ('A' for Active; 'I' for Inactive)
REMARK    1  A    between atoms: C_1  and  C_2
REMARK    2  A    between atoms: C_5  and  C_6
REMARK    3  A    between atoms: C_11  and  C_12
REMARK    4  A    between atoms: C_15  and  C_16
REMARK                            x       y       z     vdW  Elec       q    Type
REMARK                         _______ _______ _______ _____ _____    ______ ____
ROOT
ATOM      1  C   UNL     1      -1.626  14.142  22.583  0.00  0.00    +0.000 C 
ATOM      2  C   UNL     1      -0.735  15.062  21.765  0.00  0.00    +0.000 C 
ATOM      3  C   UNL     1       0.417  14.207  21.422  0.00  0.00    +0.000 C 
ATOM      4  O   UNL     1       1.446  14.153  22.085  0.00  0.00    +0.000 OA
ATOM      5  C   UNL     1       0.127  13.305  20.300  0.00  0.00    +0.000 C 
ATOM      6  C   UNL     1      -0.879  12.181  20.690  0.00  0.00    +0.000 C 
ATOM      7  C   UNL     1      -2.088  12.752  21.795  0.00  0.00    +0.000 C 
ATOM      8  C   UNL     1      -2.217  11.796  23.019  0.00  0.00    +0.000 C 
ATOM      9  O   UNL     1      -1.368  10.974  23.351  0.00  0.00    +0.000 OA
ATOM     10  N   UNL     1      -3.295  12.030  23.853  0.00  0.00    +0.000 N 
ATOM     11  C   UNL     1      -4.471  12.649  23.488  0.00  0.00    +0.000 C 
ATOM     12  O   UNL     1      -5.416  12.763  24.248  0.00  0.00    +0.000 OA
ATOM     13  N   UNL     1      -4.510  13.055  22.183  0.00  0.00    +0.000 N 
ATOM     14  C   UNL     1      -3.510  12.892  21.254  0.00  0.00    +0.000 C 
ATOM     15  O   UNL     1      -3.809  12.891  20.064  0.00  0.00    +0.000 OA
ATOM     16  H   UNL     1      -3.312  11.591  24.761  0.00  0.00    +0.000 HD
ATOM     17  H   UNL     1      -5.428  13.311  21.845  0.00  0.00    +0.000 HD
ENDROOT
BRANCH   1  22
ATOM     18  C   UNL     1      -5.092  17.966  25.404  0.00  0.00    +0.000 C 
ATOM     19  C   UNL     1      -4.222  16.986  24.672  0.00  0.00    +0.000 A 
ATOM     20  C   UNL     1      -4.207  16.936  23.275  0.00  0.00    +0.000 A 
ATOM     21  C   UNL     1      -3.408  16.005  22.596  0.00  0.00    +0.000 A 
ATOM     22  C   UNL     1      -2.610  15.087  23.298  0.00  0.00    +0.000 A 
ATOM     23  C   UNL     1      -2.624  15.153  24.704  0.00  0.00    +0.000 A 
ATOM     24  C   UNL     1      -3.427  16.081  25.381  0.00  0.00    +0.000 A 
ENDBRANCH   1  22
BRANCH   6  25
ATOM     25  C   UNL     1      -0.884  11.480  19.251  0.00  0.00    +0.000 A 
ATOM     26  C   UNL     1      -1.288  12.301  18.146  0.00  0.00    +0.000 A 
ATOM     27  C   UNL     1      -1.961  11.805  17.004  0.00  0.00    +0.000 A 
ATOM     28  C   UNL     1      -2.184  10.432  16.863  0.00  0.00    +0.000 A 
ATOM     29  C   UNL     1      -3.029   9.879  15.741  0.00  0.00    +0.000 C 
ATOM     30  C   UNL     1      -1.647   9.600  17.849  0.00  0.00    +0.000 A 
ATOM     31  C   UNL     1      -1.028  10.104  19.018  0.00  0.00    +0.000 A 
ENDBRANCH   6  25
TORSDOF 2
ENDMDL
MODEL 2
REMARK VINA RESULT:      -7.1      2.591      4.332
REMARK  Name = 
REMARK  4 active torsions:
REMARK  status: ('A' for Active; 'I' for Inactive)
REMARK    1  A    between atoms: C_1  and  C_2
REMARK    2  A    between atoms: C_5  and  C_6
REMARK    3  A    between atoms: C_11  and  C_12
REMARK    4  A    between atoms: C_15  and  C_16
REMARK                            x       y       z     vdW  Elec       q    Type
REMARK                         _______ _______ _______ _____ _____    ______ ____
ROOT
ATOM      1  C   UNL     1      -2.243  12.789  20.035  0.00  0.00    +0.000 C 
ATOM      2  C   UNL     1      -2.998  11.578  19.513  0.00  0.00    +0.000 C 
ATOM      3  C   UNL     1      -2.280  11.235  18.271  0.00  0.00    +0.000 C 
ATOM      4  O   UNL     1      -2.602  11.646  17.162  0.00  0.00    +0.000 OA
ATOM      5  C   UNL     1      -1.041  10.491  18.531  0.00  0.00    +0.000 C 
ATOM      6  C   UNL     1       0.056  11.381  19.188  0.00  0.00    +0.000 C 
ATOM      7  C   UNL     1      -0.622  12.528  20.299  0.00  0.00    +0.000 C 
ATOM      8  C   UNL     1      -0.082  13.961  20.014  0.00  0.00    +0.000 C 
ATOM      9  O   UNL     1       0.447  14.309  18.962  0.00  0.00    +0.000 OA
ATOM     10  N   UNL     1      -0.382  14.916  20.968  0.00  0.00    +0.000 N 
ATOM     11  C   UNL     1      -0.658  14.665  22.295  0.00  0.00    +0.000 C 
ATOM     12  O   UNL     1      -0.844  15.553  23.107  0.00  0.00    +0.000 OA
ATOM     13  N   UNL     1      -0.630  13.340  22.633  0.00  0.00    +0.000 N 
ATOM     14  C   UNL     1      -0.354  12.294  21.785  0.00  0.00    +0.000 C 
ATOM     15  O   UNL     1       0.063  11.244  22.264  0.00  0.00    +0.000 OA
ATOM     16  H   UNL     1      -0.248  15.890  20.741  0.00  0.00    +0.000 HD
ATOM     17  H   UNL     1      -0.616  13.156  23.627  0.00  0.00    +0.000 HD
ENDROOT
BRANCH   1  22
ATOM     18  C   UNL     1      -6.128  15.167  23.756  0.00  0.00    +0.000 C 
ATOM     19  C   UNL     1      -5.127  14.553  22.821  0.00  0.00    +0.000 A 
ATOM     20  C   UNL     1      -4.669  13.246  23.011  0.00  0.00    +0.000 A 
ATOM     21  C   UNL     1      -3.718  12.684  22.147  0.00  0.00    +0.000 A 
ATOM     22  C   UNL     1      -3.188  13.420  21.074  0.00  0.00    +0.000 A 
ATOM     23  C   UNL     1      -3.664  14.732  20.886  0.00  0.00    +0.000 A 
ATOM     24  C   UNL     1      -4.611  15.293  21.754  0.00  0.00    +0.000 A 
ENDBRANCH   1  22
BRANCH   6  25
ATOM     25  C   UNL     1       1.158  10.222  19.270  0.00  0.00    +0.000 A 
ATOM     26  C   UNL     1       1.856   9.922  18.052  0.00  0.00    +0.000 A 
ATOM     27  C   UNL     1       2.336   8.633  17.719  0.00  0.00    +0.000 A 
ATOM     28  C   UNL     1       2.224   7.585  18.637  0.00  0.00    +0.000 A 
ATOM     29  C   UNL     1       2.580   6.165  18.265  0.00  0.00    +0.000 C 
ATOM     30  C   UNL     1       1.699   7.898  19.893  0.00  0.00    +0.000 A 
ATOM     31  C   UNL     1       1.166   9.174  20.202  0.00  0.00    +0.000 A 
ENDBRANCH   6  25
TORSDOF 2
ENDMDL
MODEL 3
REMARK VINA RESULT:      -7.0      1.349      1.841
REMARK  Name = 
REMARK  4 active torsions:
REMARK  status: ('A' for Active; 'I' for Inactive)
REMARK    1  A    between atoms: C_1  and  C_2
REMARK    2  A    between atoms: C_5  and  C_6
REMARK    3  A    between atoms: C_11  and  C_12
REMARK    4  A    between atoms: C_15  and  C_16
REMARK                            x       y       z     vdW  Elec       q    Type
REMARK                         _______ _______ _______ _____ _____    ______ ____
ROOT
ATOM      1  C   UNL     1      -1.441  13.850  21.348  0.00  0.00    +0.000 C 
ATOM      2  C   UNL     1      -1.100  14.691  20.129  0.00  0.00    +0.000 C 
ATOM      3  C   UNL     1      -0.320  13.768  19.282  0.00  0.00    +0.000 C 
ATOM      4  O   UNL     1       0.903  13.691  19.306  0.00  0.00    +0.000 OA
ATOM      5  C   UNL     1      -1.177  12.836  18.539  0.00  0.00    +0.000 C 
ATOM      6  C   UNL     1      -1.846  11.779  19.468  0.00  0.00    +0.000 C 
ATOM      7  C   UNL     1      -2.277  12.453  21.008  0.00  0.00    +0.000 C 
ATOM      8  C   UNL     1      -1.758  11.555  22.170  0.00  0.00    +0.000 C 
ATOM      9  O   UNL     1      -0.878  10.707  22.054  0.00  0.00    +0.000 OA
ATOM     10  N   UNL     1      -2.227  11.875  23.431  0.00  0.00    +0.000 N 
ATOM     11  C   UNL     1      -3.405  12.535  23.705  0.00  0.00    +0.000 C 
ATOM     12  O   UNL     1      -3.804  12.727  24.839  0.00  0.00    +0.000 OA
ATOM     13  N   UNL     1      -4.121  12.890  22.594  0.00  0.00    +0.000 N 
ATOM     14  C   UNL     1      -3.767  12.640  21.289  0.00  0.00    +0.000 C 
ATOM     15  O   UNL     1      -4.650  12.605  20.438  0.00  0.00    +0.000 OA
ATOM     16  H   UNL     1      -1.770  11.475  24.236  0.00  0.00    +0.000 HD
ATOM     17  H   UNL     1      -5.073  13.176  22.776  0.00  0.00    +0.000 HD
ENDROOT
BRANCH   1  22
ATOM     18  C   UNL     1      -2.803  17.939  25.351  0.00  0.00    +0.000 C 
ATOM     19  C   UNL     1      -2.474  16.892  24.326  0.00  0.00    +0.000 A 
ATOM     20  C   UNL     1      -3.157  16.835  23.108  0.00  0.00    +0.000 A 
ATOM     21  C   UNL     1      -2.860  15.843  22.162  0.00  0.00    +0.000 A 
ATOM     22  C   UNL     1      -1.879  14.870  22.415  0.00  0.00    +0.000 A 
ATOM     23  C   UNL     1      -1.190  14.944  23.641  0.00  0.00    +0.000 A 
ATOM     24  C   UNL     1      -1.492  15.933  24.587  0.00  0.00    +0.000 A 
ENDBRANCH   1  22
BRANCH   6  25
ATOM     25  C   UNL     1      -2.625  11.021  18.293  0.00  0.00    +0.000 A 
ATOM     26  C   UNL     1      -1.903   9.978  17.621  0.00  0.00    +0.000 A 
ATOM     27  C   UNL     1      -2.086   9.649  16.256  0.00  0.00    +0.000 A 
ATOM     28  C   UNL     1      -3.077  10.290  15.508  0.00  0.00    +0.000 A 
ATOM     29  C   UNL     1      -3.203  10.082  14.018  0.00  0.00    +0.000 C 
ATOM     30  C   UNL     1      -3.903  11.188  16.190  0.00  0.00    +0.000 A 
ATOM     31  C   UNL     1      -3.680  11.557  17.539  0.00  0.00    +0.000 A 
ENDBRANCH   6  25
TORSDOF 2
ENDMDL
MODEL 4
REMARK VINA RESULT:      -6.8      2.138      2.972
REMARK  Name = 
REMARK  4 active torsions:
REMARK  status: ('A' for Active; 'I' for Inactive)
REMARK    1  A    between atoms: C_1  and  C_2
REMARK    2  A    between atoms: C_5  and  C_6
REMARK    3  A    between atoms: C_11  and  C_12
REMARK    4  A    between atoms: C_15  and  C_16
REMARK                            x       y       z     vdW  Elec       q    Type
REMARK                         _______ _______ _______ _____ _____    ______ ____
ROOT
ATOM      1  C   UNL     1      -0.592  13.915  21.443  0.00  0.00    +0.000 C 
ATOM      2  C   UNL     1       0.536  14.430  20.565  0.00  0.00    +0.000 C 
ATOM      3  C   UNL     1       1.657  13.524  20.878  0.00  0.00    +0.000 C 
ATOM      4  O   UNL     1       2.503  13.757  21.733  0.00  0.00    +0.000 OA
ATOM      5  C   UNL     1       1.547  12.238  20.176  0.00  0.00    +0.000 C 
ATOM      6  C   UNL     1       0.385  11.360  20.730  0.00  0.00    +0.000 C 
ATOM      7  C   UNL     1      -0.986  12.318  21.191  0.00  0.00    +0.000 C 
ATOM      8  C   UNL     1      -1.467  11.944  22.624  0.00  0.00    +0.000 C 
ATOM      9  O   UNL     1      -0.789  11.340  23.450  0.00  0.00    +0.000 OA
ATOM     10  N   UNL     1      -2.680  12.485  23.011  0.00  0.00    +0.000 N 
ATOM     11  C   UNL     1      -3.686  12.888  22.160  0.00  0.00    +0.000 C 
ATOM     12  O   UNL     1      -4.763  13.291  22.560  0.00  0.00    +0.000 OA
ATOM     13  N   UNL     1      -3.398  12.725  20.833  0.00  0.00    +0.000 N 
ATOM     14  C   UNL     1      -2.234  12.208  20.315  0.00  0.00    +0.000 C 
ATOM     15  O   UNL     1      -2.259  11.718  19.191  0.00  0.00    +0.000 OA
ATOM     16  H   UNL     1      -2.937  12.455  23.986  0.00  0.00    +0.000 HD
ATOM     17  H   UNL     1      -4.191  12.810  20.213  0.00  0.00    +0.000 HD
ENDROOT
BRANCH   1  22
ATOM     18  C   UNL     1      -4.259  18.510  21.620  0.00  0.00    +0.000 C 
ATOM     19  C   UNL     1      -3.333  17.329  21.561  0.00  0.00    +0.000 A 
ATOM     20  C   UNL     1      -2.925  16.792  20.337  0.00  0.00    +0.000 A 
ATOM     21  C   UNL     1      -2.078  15.676  20.287  0.00  0.00    +0.000 A 
ATOM     22  C   UNL     1      -1.624  15.057  21.463  0.00  0.00    +0.000 A 
ATOM     23  C   UNL     1      -2.032  15.613  22.691  0.00  0.00    +0.000 A 
ATOM     24  C   UNL     1      -2.884  16.725  22.738  0.00  0.00    +0.000 A 
ENDBRANCH   1  22
BRANCH   6  25
ATOM     25  C   UNL     1       0.640  10.132  19.735  0.00  0.00    +0.000 A 
ATOM     26  C   UNL     1       0.986   8.880  20.346  0.00  0.00    +0.000 A 
ATOM     27  C   UNL     1       1.833   7.920  19.743  0.00  0.00    +0.000 A 
ATOM     28  C   UNL     1       2.308   8.121  18.445  0.00  0.00    +0.000 A 
ATOM     29  C   UNL     1       3.333   7.202  17.825  0.00  0.00    +0.000 C 
ATOM     30  C   UNL     1       1.845   9.254  17.770  0.00  0.00    +0.000 A 
ATOM     31  C   UNL     1       1.046  10.242  18.397  0.00  0.00    +0.000 A 
ENDBRANCH   6  25
TORSDOF 2
ENDMDL
MODEL 5
REMARK VINA RESULT:      -6.8      3.233      5.231
REMARK  Name = 
REMARK  4 active torsions:
REMARK  status: ('A' for Active; 'I' for Inactive)
REMARK    1  A    between atoms: C_1  and  C_2
REMARK    2  A    between atoms: C_5  and  C_6
REMARK    3  A    between atoms: C_11  and  C_12
REMARK    4  A    between atoms: C_15  and  C_16
REMARK                            x       y       z     vdW  Elec       q    Type
REMARK                         _______ _______ _______ _____ _____    ______ ____
ROOT
ATOM      1  C   UNL     1       0.639  13.258  21.008  0.00  0.00    +0.000 C 
ATOM      2  C   UNL     1       1.285  11.882  21.016  0.00  0.00    +0.000 C 
ATOM      3  C   UNL     1       0.198  10.994  21.468  0.00  0.00    +0.000 C 
ATOM      4  O   UNL     1       0.018  10.680  22.639  0.00  0.00    +0.000 OA
ATOM      5  C   UNL     1      -0.743  10.670  20.388  0.00  0.00    +0.000 C 
ATOM      6  C   UNL     1      -1.611  11.896  19.973  0.00  0.00    +0.000 C 
ATOM      7  C   UNL     1      -0.712  13.378  20.045  0.00  0.00    +0.000 C 
ATOM      8  C   UNL     1      -1.496  14.464  20.840  0.00  0.00    +0.000 C 
ATOM      9  O   UNL     1      -2.426  14.229  21.606  0.00  0.00    +0.000 OA
ATOM     10  N   UNL     1      -0.979  15.745  20.777  0.00  0.00    +0.000 N 
ATOM     11  C   UNL     1      -0.189  16.242  19.763  0.00  0.00    +0.000 C 
ATOM     12  O   UNL     1       0.179  17.402  19.725  0.00  0.00    +0.000 OA
ATOM     13  N   UNL     1       0.082  15.341  18.770  0.00  0.00    +0.000 N 
ATOM     14  C   UNL     1      -0.361  14.041  18.713  0.00  0.00    +0.000 C 
ATOM     15  O   UNL     1      -0.426  13.491  17.619  0.00  0.00    +0.000 OA
ATOM     16  H   UNL     1      -1.313  16.436  21.431  0.00  0.00    +0.000 HD
ATOM     17  H   UNL     1       0.472  15.742  17.928  0.00  0.00    +0.000 HD
ENDROOT
BRANCH   1  22
ATOM     18  C   UNL     1       5.310  16.832  21.070  0.00  0.00    +0.000 C 
ATOM     19  C   UNL     1       4.115  15.923  21.035  0.00  0.00    +0.000 A 
ATOM     20  C   UNL     1       3.950  14.987  20.011  0.00  0.00    +0.000 A 
ATOM     21  C   UNL     1       2.823  14.154  19.971  0.00  0.00    +0.000 A 
ATOM     22  C   UNL     1       1.821  14.244  20.951  0.00  0.00    +0.000 A 
ATOM     23  C   UNL     1       2.002  15.182  21.985  0.00  0.00    +0.000 A 
ATOM     24  C   UNL     1       3.127  16.017  22.019  0.00  0.00    +0.000 A 
ENDBRANCH   1  22
BRANCH   6  25
ATOM     25  C   UNL     1      -2.441  11.116  18.848  0.00  0.00    +0.000 A 
ATOM     26  C   UNL     1      -1.714  10.142  18.083  0.00  0.00    +0.000 A 
ATOM     27  C   UNL     1      -1.998   9.836  16.730  0.00  0.00    +0.000 A 
ATOM     28  C   UNL     1      -3.093  10.425  16.093  0.00  0.00    +0.000 A 
ATOM     29  C   UNL     1      -3.340  10.247  14.614  0.00  0.00    +0.000 C 
ATOM     30  C   UNL     1      -3.912  11.247  16.873  0.00  0.00    +0.000 A 
ATOM     31  C   UNL     1      -3.592  11.597  18.207  0.00  0.00    +0.000 A 
ENDBRANCH   6  25
TORSDOF 2
ENDMDL
MODEL 6
REMARK VINA RESULT:      -6.7      2.794      3.895
REMARK  Name = 
REMARK  4 active torsions:
REMARK  status: ('A' for Active; 'I' for Inactive)
REMARK    1  A    between atoms: C_1  and  C_2
REMARK    2  A    between atoms: C_5  and  C_6
REMARK    3  A    between atoms: C_11  and  C_12
REMARK    4  A    between atoms: C_15  and  C_16
REMARK                            x       y       z     vdW  Elec       q    Type
REMARK                         _______ _______ _______ _____ _____    ______ ____
ROOT
ATOM      1  C   UNL     1      -4.069  14.722  22.641  0.00  0.00    +0.000 C 
ATOM      2  C   UNL     1      -2.871  15.654  22.710  0.00  0.00    +0.000 C 
ATOM      3  C   UNL     1      -2.096  15.133  23.852  0.00  0.00    +0.000 C 
ATOM      4  O   UNL     1      -2.212  15.546  24.999  0.00  0.00    +0.000 OA
ATOM      5  C   UNL     1      -1.299  13.953  23.491  0.00  0.00    +0.000 C 
ATOM      6  C   UNL     1      -2.185  12.699  23.230  0.00  0.00    +0.000 C 
ATOM      7  C   UNL     1      -3.681  13.115  22.455  0.00  0.00    +0.000 C 
ATOM      8  C   UNL     1      -4.888  12.472  23.200  0.00  0.00    +0.000 C 
ATOM      9  O   UNL     1      -4.848  12.044  24.350  0.00  0.00    +0.000 OA
ATOM     10  N   UNL     1      -6.107  12.554  22.551  0.00  0.00    +0.000 N 
ATOM     11  C   UNL     1      -6.283  12.688  21.191  0.00  0.00    +0.000 C 
ATOM     12  O   UNL     1      -7.383  12.682  20.667  0.00  0.00    +0.000 OA
ATOM     13  N   UNL     1      -5.119  12.753  20.477  0.00  0.00    +0.000 N 
ATOM     14  C   UNL     1      -3.847  12.691  20.996  0.00  0.00    +0.000 C 
ATOM     15  O   UNL     1      -2.932  12.327  20.265  0.00  0.00    +0.000 OA
ATOM     16  H   UNL     1      -6.948  12.351  23.069  0.00  0.00    +0.000 HD
ATOM     17  H   UNL     1      -5.225  12.635  19.479  0.00  0.00    +0.000 HD
ENDROOT
BRANCH   1  22
ATOM     18  C   UNL     1      -7.906  17.857  19.472  0.00  0.00    +0.000 C 
ATOM     19  C   UNL     1      -6.922  17.046  20.266  0.00  0.00    +0.000 A 
ATOM     20  C   UNL     1      -5.672  16.709  19.738  0.00  0.00    +0.000 A 
ATOM     21  C   UNL     1      -4.765  15.934  20.475  0.00  0.00    +0.000 A 
ATOM     22  C   UNL     1      -5.090  15.463  21.758  0.00  0.00    +0.000 A 
ATOM     23  C   UNL     1      -6.347  15.816  22.284  0.00  0.00    +0.000 A 
ATOM     24  C   UNL     1      -7.254  16.587  21.543  0.00  0.00    +0.000 A 
ENDBRANCH   1  22
BRANCH   6  25
ATOM     25  C   UNL     1      -0.962  11.718  22.903  0.00  0.00    +0.000 A 
ATOM     26  C   UNL     1      -0.075  12.137  21.855  0.00  0.00    +0.000 A 
ATOM     27  C   UNL     1       0.609  11.239  21.001  0.00  0.00    +0.000 A 
ATOM     28  C   UNL     1       0.514   9.861  21.212  0.00  0.00    +0.000 A 
ATOM     29  C   UNL     1       1.100   8.868  20.236  0.00  0.00    +0.000 C 
ATOM     30  C   UNL     1      -0.209   9.441  22.331  0.00  0.00    +0.000 A 
ATOM     31  C   UNL     1      -0.940  10.337  23.148  0.00  0.00    +0.000 A 
ENDBRANCH   6  25
TORSDOF 2
ENDMDL
MODEL 7
REMARK VINA RESULT:      -6.6      1.656      2.128
REMARK  Name = 
REMARK  4 active torsions:
REMARK  status: ('A' for Active; 'I' for Inactive)
REMARK    1  A    between atoms: C_1  and  C_2
REMARK    2  A    between atoms: C_5  and  C_6
REMARK    3  A    between atoms: C_11  and  C_12
REMARK    4  A    between atoms: C_15  and  C_16
REMARK                            x       y       z     vdW  Elec       q    Type
REMARK                         _______ _______ _______ _____ _____    ______ ____
ROOT
ATOM      1  C   UNL     1      -1.228  14.295  22.294  0.00  0.00    +0.000 C 
ATOM      2  C   UNL     1      -0.317  15.255  21.547  0.00  0.00    +0.000 C 
ATOM      3  C   UNL     1       0.982  14.555  21.532  0.00  0.00    +0.000 C 
ATOM      4  O   UNL     1       1.854  14.722  22.376  0.00  0.00    +0.000 OA
ATOM      5  C   UNL     1       1.042  13.515  20.497  0.00  0.00    +0.000 C 
ATOM      6  C   UNL     1       0.132  12.295  20.832  0.00  0.00    +0.000 C 
ATOM      7  C   UNL     1      -1.338  12.781  21.614  0.00  0.00    +0.000 C 
ATOM      8  C   UNL     1      -1.585  11.940  22.901  0.00  0.00    +0.000 C 
ATOM      9  O   UNL     1      -0.721  11.292  23.485  0.00  0.00    +0.000 OA
ATOM     10  N   UNL     1      -2.830  12.088  23.485  0.00  0.00    +0.000 N 
ATOM     11  C   UNL     1      -3.979  12.484  22.836  0.00  0.00    +0.000 C 
ATOM     12  O   UNL     1      -5.064  12.527  23.386  0.00  0.00    +0.000 OA
ATOM     13  N   UNL     1      -3.807  12.751  21.505  0.00  0.00    +0.000 N 
ATOM     14  C   UNL     1      -2.628  12.652  20.805  0.00  0.00    +0.000 C 
ATOM     15  O   UNL     1      -2.679  12.491  19.590  0.00  0.00    +0.000 OA
ATOM     16  H   UNL     1      -2.972  11.741  24.422  0.00  0.00    +0.000 HD
ATOM     17  H   UNL     1      -4.664  12.832  20.974  0.00  0.00    +0.000 HD
ENDROOT
BRANCH   1  22
ATOM     18  C   UNL     1      -5.655  17.799  23.942  0.00  0.00    +0.000 C 
ATOM     19  C   UNL     1      -4.535  16.898  23.507  0.00  0.00    +0.000 A 
ATOM     20  C   UNL     1      -4.202  16.761  22.157  0.00  0.00    +0.000 A 
ATOM     21  C   UNL     1      -3.170  15.903  21.753  0.00  0.00    +0.000 A 
ATOM     22  C   UNL     1      -2.449  15.146  22.691  0.00  0.00    +0.000 A 
ATOM     23  C   UNL     1      -2.785  15.299  24.050  0.00  0.00    +0.000 A 
ATOM     24  C   UNL     1      -3.821  16.154  24.450  0.00  0.00    +0.000 A 
ENDBRANCH   1  22
BRANCH   6  25
ATOM     25  C   UNL     1       0.507  11.465  19.515  0.00  0.00    +0.000 A 
ATOM     26  C   UNL     1       0.040  10.109  19.464  0.00  0.00    +0.000 A 
ATOM     27  C   UNL     1       0.730   9.065  18.804  0.00  0.00    +0.000 A 
ATOM     28  C   UNL     1       1.888   9.343  18.072  0.00  0.00    +0.000 A 
ATOM     29  C   UNL     1       2.737   8.241  17.484  0.00  0.00    +0.000 C 
ATOM     30  C   UNL     1       2.265  10.685  17.971  0.00  0.00    +0.000 A 
ATOM     31  C   UNL     1       1.606  11.718  18.681  0.00  0.00    +0.000 A 
ENDBRANCH   6  25
TORSDOF 2
ENDMDL
MODEL 8
REMARK VINA RESULT:      -6.6      2.326      2.907
REMARK  Name = 
REMARK  4 active torsions:
REMARK  status: ('A' for Active; 'I' for Inactive)
REMARK    1  A    between atoms: C_1  and  C_2
REMARK    2  A    between atoms: C_5  and  C_6
REMARK    3  A    between atoms: C_11  and  C_12
REMARK    4  A    between atoms: C_15  and  C_16
REMARK                            x       y       z     vdW  Elec       q    Type
REMARK                         _______ _______ _______ _____ _____    ______ ____
ROOT
ATOM      1  C   UNL     1      -3.102  14.680  22.481  0.00  0.00    +0.000 C 
ATOM      2  C   UNL     1      -1.886  15.579  22.325  0.00  0.00    +0.000 C 
ATOM      3  C   UNL     1      -0.866  14.925  23.166  0.00  0.00    +0.000 C 
ATOM      4  O   UNL     1      -0.662  15.214  24.339  0.00  0.00    +0.000 OA
ATOM      5  C   UNL     1      -0.243  13.777  22.494  0.00  0.00    +0.000 C 
ATOM      6  C   UNL     1      -1.222  12.574  22.351  0.00  0.00    +0.000 C 
ATOM      7  C   UNL     1      -2.847  13.096  22.041  0.00  0.00    +0.000 C 
ATOM      8  C   UNL     1      -3.848  12.398  23.009  0.00  0.00    +0.000 C 
ATOM      9  O   UNL     1      -3.530  11.849  24.060  0.00  0.00    +0.000 OA
ATOM     10  N   UNL     1      -5.188  12.570  22.714  0.00  0.00    +0.000 N 
ATOM     11  C   UNL     1      -5.705  12.853  21.468  0.00  0.00    +0.000 C 
ATOM     12  O   UNL     1      -6.901  12.922  21.253  0.00  0.00    +0.000 OA
ATOM     13  N   UNL     1      -4.763  12.974  20.484  0.00  0.00    +0.000 N 
ATOM     14  C   UNL     1      -3.404  12.835  20.642  0.00  0.00    +0.000 C 
ATOM     15  O   UNL     1      -2.727  12.536  19.664  0.00  0.00    +0.000 OA
ATOM     16  H   UNL     1      -5.874  12.327  23.412  0.00  0.00    +0.000 HD
ATOM     17  H   UNL     1      -5.129  12.966  19.542  0.00  0.00    +0.000 HD
ENDROOT
BRANCH   1  22
ATOM     18  C   UNL     1      -7.482  18.205  20.753  0.00  0.00    +0.000 C 
ATOM     19  C   UNL     1      -6.364  17.296  21.177  0.00  0.00    +0.000 A 
ATOM     20  C   UNL     1      -5.316  16.986  20.307  0.00  0.00    +0.000 A 
ATOM     21  C   UNL     1      -4.285  16.121  20.700  0.00  0.00    +0.000 A 
ATOM     22  C   UNL     1      -4.282  15.529  21.974  0.00  0.00    +0.000 A 
ATOM     23  C   UNL     1      -5.338  15.856  22.847  0.00  0.00    +0.000 A 
ATOM     24  C   UNL     1      -6.369  16.718  22.449  0.00  0.00    +0.000 A 
ENDBRANCH   1  22
BRANCH   6  25
ATOM     25  C   UNL     1      -0.170  11.613  21.620  0.00  0.00    +0.000 A 
ATOM     26  C   UNL     1       0.665  12.226  20.626  0.00  0.00    +0.000 A 
ATOM     27  C   UNL     1       1.148  11.549  19.480  0.00  0.00    +0.000 A 
ATOM     28  C   UNL     1       0.895  10.185  19.314  0.00  0.00    +0.000 A 
ATOM     29  C   UNL     1       1.257   9.462  18.038  0.00  0.00    +0.000 C 
ATOM     30  C   UNL     1       0.227   9.534  20.355  0.00  0.00    +0.000 A 
ATOM     31  C   UNL     1      -0.305  10.225  21.470  0.00  0.00    +0.000 A 
ENDBRANCH   6  25
TORSDOF 2
ENDMDL
MODEL 9
REMARK VINA RESULT:      -6.4      7.736     11.057
REMARK  Name = 
REMARK  4 active torsions:
REMARK  status: ('A' for Active; 'I' for Inactive)
REMARK    1  A    between atoms: C_1  and  C_2
REMARK    2  A    between atoms: C_5  and  C_6
REMARK    3  A    between atoms: C_11  and  C_12
REMARK    4  A    between atoms: C_15  and  C_16
REMARK                            x       y       z     vdW  Elec       q    Type
REMARK                         _______ _______ _______ _____ _____    ______ ____
ROOT
ATOM      1  C   UNL     1       7.155  15.135  20.598  0.00  0.00    +0.000 C 
ATOM      2  C   UNL     1       6.414  14.202  21.541  0.00  0.00    +0.000 C 
ATOM      3  C   UNL     1       5.343  15.052  22.095  0.00  0.00    +0.000 C 
ATOM      4  O   UNL     1       5.445  15.681  23.141  0.00  0.00    +0.000 OA
ATOM      5  C   UNL     1       4.212  15.197  21.169  0.00  0.00    +0.000 C 
ATOM      6  C   UNL     1       4.572  16.068  19.928  0.00  0.00    +0.000 C 
ATOM      7  C   UNL     1       6.207  15.805  19.407  0.00  0.00    +0.000 C 
ATOM      8  C   UNL     1       6.952  17.160  19.219  0.00  0.00    +0.000 C 
ATOM      9  O   UNL     1       6.586  18.228  19.701  0.00  0.00    +0.000 OA
ATOM     10  N   UNL     1       8.187  17.085  18.600  0.00  0.00    +0.000 N 
ATOM     11  C   UNL     1       8.593  16.087  17.741  0.00  0.00    +0.000 C 
ATOM     12  O   UNL     1       9.668  16.111  17.167  0.00  0.00    +0.000 OA
ATOM     13  N   UNL     1       7.659  15.111  17.531  0.00  0.00    +0.000 N 
ATOM     14  C   UNL     1       6.402  15.061  18.087  0.00  0.00    +0.000 C 
ATOM     15  O   UNL     1       5.532  14.415  17.512  0.00  0.00    +0.000 OA
ATOM     16  H   UNL     1       8.801  17.884  18.642  0.00  0.00    +0.000 HD
ATOM     17  H   UNL     1       7.852  14.498  16.752  0.00  0.00    +0.000 HD
ENDROOT
BRANCH   1  22
ATOM     18  C   UNL     1      12.310  12.383  19.930  0.00  0.00    +0.000 C 
ATOM     19  C   UNL     1      10.988  13.079  20.083  0.00  0.00    +0.000 A 
ATOM     20  C   UNL     1       9.796  12.457  19.703  0.00  0.00    +0.000 A 
ATOM     21  C   UNL     1       8.567  13.119  19.829  0.00  0.00    +0.000 A 
ATOM     22  C   UNL     1       8.498  14.431  20.327  0.00  0.00    +0.000 A 
ATOM     23  C   UNL     1       9.703  15.044  20.717  0.00  0.00    +0.000 A 
ATOM     24  C   UNL     1      10.932  14.382  20.585  0.00  0.00    +0.000 A 
ENDBRANCH   1  22
BRANCH   6  25
ATOM     25  C   UNL     1       3.126  15.965  19.250  0.00  0.00    +0.000 A 
ATOM     26  C   UNL     1       2.919  16.757  18.070  0.00  0.00    +0.000 A 
ATOM     27  C   UNL     1       1.670  17.316  17.709  0.00  0.00    +0.000 A 
ATOM     28  C   UNL     1       0.530  17.032  18.465  0.00  0.00    +0.000 A 
ATOM     29  C   UNL     1      -0.785  17.727  18.206  0.00  0.00    +0.000 C 
ATOM     30  C   UNL     1       0.680  16.127  19.519  0.00  0.00    +0.000 A 
ATOM     31  C   UNL     1       1.940  15.617  19.914  0.00  0.00    +0.000 A 
ENDBRANCH   6  25
TORSDOF 2
ENDMDL
