MODEL 1
REMARK VINA RESULT:      -6.0      0.000      0.000
REMARK  Name = 
REMARK  8 active torsions:
REMARK  status: ('A' for Active; 'I' for Inactive)
REMARK    1  A    between atoms: C_1  and  C_2
REMARK    2  A    between atoms: C_2  and  N_3
REMARK    3  A    between atoms: N_3  and  C_4
REMARK    4  A    between atoms: C_4  and  C_5
REMARK    5  A    between atoms: C_6  and  C_8
REMARK    6  A    between atoms: C_8  and  N_9
REMARK    7  A    between atoms: C_16  and  O_17
REMARK    8  A    between atoms: O_17  and  C_18
REMARK                            x       y       z     vdW  Elec       q    Type
REMARK                         _______ _______ _______ _____ _____    ______ ____
ROOT
ATOM      1  N   UNL     1       1.819   7.511  19.402  0.00  0.00    +0.000 NA
ATOM      2  C   UNL     1       2.320   8.334  18.285  0.00  0.00    +0.000 C 
ATOM      3  C   UNL     1       1.213   9.003  17.468  0.00  0.00    +0.000 C 
ATOM      4  C   UNL     1       0.238   9.909  18.209  0.00  0.00    +0.000 C 
ATOM      5  N   UNL     1       0.737  10.346  19.502  0.00  0.00    +0.000 N 
ATOM      6  C   UNL     1       1.254  11.604  19.735  0.00  0.00    +0.000 A 
ATOM      7  C   UNL     1       1.763  12.390  18.718  0.00  0.00    +0.000 A 
ATOM      8  C   UNL     1       2.218  13.647  19.054  0.00  0.00    +0.000 A 
ATOM      9  N   UNL     1       2.189  14.147  20.296  0.00  0.00    +0.000 NA
ATOM     10  C   UNL     1       1.694  13.315  21.213  0.00  0.00    +0.000 A 
ATOM     11  N   UNL     1       1.246  12.069  20.998  0.00  0.00    +0.000 NA
ATOM     12  C   UNL     1       0.558   9.403  20.609  0.00  0.00    +0.000 C 
ATOM     13  C   UNL     1       1.675   8.336  20.635  0.00  0.00    +0.000 C 
ENDROOT
BRANCH   8  14
ATOM     14  O   UNL     1       2.733  14.407  18.019  0.00  0.00    +0.000 OA
ATOM     15  C   UNL     1       3.646  15.407  18.460  0.00  0.00    +0.000 C 
ENDBRANCH   8  14
BRANCH   1  16
ATOM     16  C   UNL     1       2.768   6.398  19.693  0.00  0.00    +0.000 C 
BRANCH  16  18
ATOM     17  N   UNL     1       2.002   3.987  19.455  0.00  0.00    +0.000 N 
ATOM     18  C   UNL     1       2.512   5.139  18.836  0.00  0.00    +0.000 C 
ATOM     19  O   UNL     1       2.802   5.157  17.636  0.00  0.00    +0.000 OA
BRANCH  17  21
ATOM     20  C   UNL     1       2.905   1.914  18.360  0.00  0.00    +0.000 C 
ATOM     21  C   UNL     1       1.719   2.840  18.584  0.00  0.00    +0.000 C 
ENDBRANCH  17  21
BRANCH  17  22
ATOM     22  C   UNL     1       1.465   4.025  20.821  0.00  0.00    +0.000 C 
ATOM     23  C   UNL     1       1.421   2.703  21.569  0.00  0.00    +0.000 C 
ENDBRANCH  17  22
ENDBRANCH  16  18
ENDBRANCH   1  16
TORSDOF 5
ENDMDL
MODEL 2
REMARK VINA RESULT:      -5.9      1.094      1.603
REMARK  Name = 
REMARK  8 active torsions:
REMARK  status: ('A' for Active; 'I' for Inactive)
REMARK    1  A    between atoms: C_1  and  C_2
REMARK    2  A    between atoms: C_2  and  N_3
REMARK    3  A    between atoms: N_3  and  C_4
REMARK    4  A    between atoms: C_4  and  C_5
REMARK    5  A    between atoms: C_6  and  C_8
REMARK    6  A    between atoms: C_8  and  N_9
REMARK    7  A    between atoms: C_16  and  O_17
REMARK    8  A    between atoms: O_17  and  C_18
REMARK                            x       y       z     vdW  Elec       q    Type
REMARK                         _______ _______ _______ _____ _____    ______ ____
ROOT
ATOM      1  N   UNL     1       1.894   7.501  19.487  0.00  0.00    +0.000 NA
ATOM      2  C   UNL     1       2.406   8.291  18.351  0.00  0.00    +0.000 C 
ATOM      3  C   UNL     1       1.307   8.934  17.503  0.00  0.00    +0.000 C 
ATOM      4  C   UNL     1       0.323   9.860  18.206  0.00  0.00    +0.000 C 
ATOM      5  N   UNL     1       0.807  10.337  19.491  0.00  0.00    +0.000 N 
ATOM      6  C   UNL     1       1.320  11.602  19.692  0.00  0.00    +0.000 A 
ATOM      7  C   UNL     1       1.839  12.358  18.658  0.00  0.00    +0.000 A 
ATOM      8  C   UNL     1       2.289  13.625  18.960  0.00  0.00    +0.000 A 
ATOM      9  N   UNL     1       2.246  14.162  20.187  0.00  0.00    +0.000 NA
ATOM     10  C   UNL     1       1.742  13.357  21.123  0.00  0.00    +0.000 A 
ATOM     11  N   UNL     1       1.298  12.104  20.940  0.00  0.00    +0.000 NA
ATOM     12  C   UNL     1       0.617   9.427  20.623  0.00  0.00    +0.000 C 
ATOM     13  C   UNL     1       1.736   8.362  20.693  0.00  0.00    +0.000 C 
ENDROOT
BRANCH   8  14
ATOM     14  O   UNL     1       2.814  14.355  17.909  0.00  0.00    +0.000 OA
ATOM     15  C   UNL     1       4.166  14.747  18.121  0.00  0.00    +0.000 C 
ENDBRANCH   8  14
BRANCH   1  16
ATOM     16  C   UNL     1       2.841   6.399  19.821  0.00  0.00    +0.000 C 
BRANCH  16  18
ATOM     17  N   UNL     1       2.636   3.910  19.354  0.00  0.00    +0.000 N 
ATOM     18  C   UNL     1       2.143   5.037  20.029  0.00  0.00    +0.000 C 
ATOM     19  O   UNL     1       1.142   4.977  20.750  0.00  0.00    +0.000 OA
BRANCH  17  21
ATOM     20  C   UNL     1       0.841   2.286  18.681  0.00  0.00    +0.000 C 
ATOM     21  C   UNL     1       1.974   2.630  19.636  0.00  0.00    +0.000 C 
ENDBRANCH  17  21
BRANCH  17  22
ATOM     22  C   UNL     1       3.935   3.933  18.672  0.00  0.00    +0.000 C 
ATOM     23  C   UNL     1       3.903   3.922  17.153  0.00  0.00    +0.000 C 
ENDBRANCH  17  22
ENDBRANCH  16  18
ENDBRANCH   1  16
TORSDOF 5
ENDMDL
MODEL 3
REMARK VINA RESULT:      -5.9      5.272      8.413
REMARK  Name = 
REMARK  8 active torsions:
REMARK  status: ('A' for Active; 'I' for Inactive)
REMARK    1  A    between atoms: C_1  and  C_2
REMARK    2  A    between atoms: C_2  and  N_3
REMARK    3  A    between atoms: N_3  and  C_4
REMARK    4  A    between atoms: C_4  and  C_5
REMARK    5  A    between atoms: C_6  and  C_8
REMARK    6  A    between atoms: C_8  and  N_9
REMARK    7  A    between atoms: C_16  and  O_17
REMARK    8  A    between atoms: O_17  and  C_18
REMARK                            x       y       z     vdW  Elec       q    Type
REMARK                         _______ _______ _______ _____ _____    ______ ____
ROOT
ATOM      1  N   UNL     1       7.026   5.384  15.387  0.00  0.00    +0.000 NA
ATOM      2  C   UNL     1       7.021   4.232  16.308  0.00  0.00    +0.000 C 
ATOM      3  C   UNL     1       7.574   4.551  17.698  0.00  0.00    +0.000 C 
ATOM      4  C   UNL     1       6.908   5.675  18.482  0.00  0.00    +0.000 C 
ATOM      5  N   UNL     1       5.584   6.008  17.986  0.00  0.00    +0.000 N 
ATOM      6  C   UNL     1       4.415   5.607  18.600  0.00  0.00    +0.000 A 
ATOM      7  C   UNL     1       4.364   4.512  19.442  0.00  0.00    +0.000 A 
ATOM      8  C   UNL     1       3.155   4.221  20.035  0.00  0.00    +0.000 A 
ATOM      9  N   UNL     1       2.039   4.937  19.849  0.00  0.00    +0.000 NA
ATOM     10  C   UNL     1       2.177   5.966  19.012  0.00  0.00    +0.000 A 
ATOM     11  N   UNL     1       3.299   6.323  18.368  0.00  0.00    +0.000 NA
ATOM     12  C   UNL     1       5.541   6.912  16.834  0.00  0.00    +0.000 C 
ATOM     13  C   UNL     1       5.754   6.152  15.505  0.00  0.00    +0.000 C 
ENDROOT
BRANCH   8  14
ATOM     14  O   UNL     1       3.131   3.113  20.862  0.00  0.00    +0.000 OA
ATOM     15  C   UNL     1       4.195   2.201  20.608  0.00  0.00    +0.000 C 
ENDBRANCH   8  14
BRANCH   1  16
ATOM     16  C   UNL     1       7.163   4.922  13.976  0.00  0.00    +0.000 C 
BRANCH  16  18
ATOM     17  N   UNL     1       6.005   3.464  12.247  0.00  0.00    +0.000 N 
ATOM     18  C   UNL     1       5.917   4.171  13.456  0.00  0.00    +0.000 C 
ATOM     19  O   UNL     1       4.861   4.245  14.092  0.00  0.00    +0.000 OA
BRANCH  17  21
ATOM     20  C   UNL     1       3.907   3.469  10.864  0.00  0.00    +0.000 C 
ATOM     21  C   UNL     1       4.811   2.718  11.831  0.00  0.00    +0.000 C 
ENDBRANCH  17  21
BRANCH  17  22
ATOM     22  C   UNL     1       7.298   3.202  11.604  0.00  0.00    +0.000 C 
ATOM     23  C   UNL     1       7.460   1.848  10.934  0.00  0.00    +0.000 C 
ENDBRANCH  17  22
ENDBRANCH  16  18
ENDBRANCH   1  16
TORSDOF 5
ENDMDL
MODEL 4
REMARK VINA RESULT:      -5.7      1.566      2.068
REMARK  Name = 
REMARK  8 active torsions:
REMARK  status: ('A' for Active; 'I' for Inactive)
REMARK    1  A    between atoms: C_1  and  C_2
REMARK    2  A    between atoms: C_2  and  N_3
REMARK    3  A    between atoms: N_3  and  C_4
REMARK    4  A    between atoms: C_4  and  C_5
REMARK    5  A    between atoms: C_6  and  C_8
REMARK    6  A    between atoms: C_8  and  N_9
REMARK    7  A    between atoms: C_16  and  O_17
REMARK    8  A    between atoms: O_17  and  C_18
REMARK                            x       y       z     vdW  Elec       q    Type
REMARK                         _______ _______ _______ _____ _____    ______ ____
ROOT
ATOM      1  N   UNL     1       1.851   7.459  19.457  0.00  0.00    +0.000 NA
ATOM      2  C   UNL     1       2.421   8.252  18.351  0.00  0.00    +0.000 C 
ATOM      3  C   UNL     1       1.367   8.917  17.463  0.00  0.00    +0.000 C 
ATOM      4  C   UNL     1       0.366   9.850  18.133  0.00  0.00    +0.000 C 
ATOM      5  N   UNL     1       0.802  10.309  19.441  0.00  0.00    +0.000 N 
ATOM      6  C   UNL     1       1.322  11.565  19.675  0.00  0.00    +0.000 A 
ATOM      7  C   UNL     1       1.894  12.324  18.671  0.00  0.00    +0.000 A 
ATOM      8  C   UNL     1       2.348  13.581  19.005  0.00  0.00    +0.000 A 
ATOM      9  N   UNL     1       2.260  14.108  20.233  0.00  0.00    +0.000 NA
ATOM     10  C   UNL     1       1.706  13.302  21.139  0.00  0.00    +0.000 A 
ATOM     11  N   UNL     1       1.254  12.057  20.927  0.00  0.00    +0.000 NA
ATOM     12  C   UNL     1       0.552   9.392  20.556  0.00  0.00    +0.000 C 
ATOM     13  C   UNL     1       1.653   8.312  20.663  0.00  0.00    +0.000 C 
ENDROOT
BRANCH   8  14
ATOM     14  O   UNL     1       2.927  14.313  17.983  0.00  0.00    +0.000 OA
ATOM     15  C   UNL     1       4.295  14.626  18.224  0.00  0.00    +0.000 C 
ENDBRANCH   8  14
BRANCH   1  16
ATOM     16  C   UNL     1       2.769   6.341  19.821  0.00  0.00    +0.000 C 
BRANCH  16  18
ATOM     17  N   UNL     1       4.292   4.876  18.411  0.00  0.00    +0.000 N 
ATOM     18  C   UNL     1       2.992   5.336  18.670  0.00  0.00    +0.000 C 
ATOM     19  O   UNL     1       2.030   4.992  17.975  0.00  0.00    +0.000 OA
BRANCH  17  21
ATOM     20  C   UNL     1       4.914   4.439  16.016  0.00  0.00    +0.000 C 
ATOM     21  C   UNL     1       4.439   3.875  17.347  0.00  0.00    +0.000 C 
ENDBRANCH  17  21
BRANCH  17  22
ATOM     22  C   UNL     1       5.392   5.115  19.354  0.00  0.00    +0.000 C 
ATOM     23  C   UNL     1       6.698   5.612  18.759  0.00  0.00    +0.000 C 
ENDBRANCH  17  22
ENDBRANCH  16  18
ENDBRANCH   1  16
TORSDOF 5
ENDMDL
MODEL 5
REMARK VINA RESULT:      -5.6      5.643      9.376
REMARK  Name = 
REMARK  8 active torsions:
REMARK  status: ('A' for Active; 'I' for Inactive)
REMARK    1  A    between atoms: C_1  and  C_2
REMARK    2  A    between atoms: C_2  and  N_3
REMARK    3  A    between atoms: N_3  and  C_4
REMARK    4  A    between atoms: C_4  and  C_5
REMARK    5  A    between atoms: C_6  and  C_8
REMARK    6  A    between atoms: C_8  and  N_9
REMARK    7  A    between atoms: C_16  and  O_17
REMARK    8  A    between atoms: O_17  and  C_18
REMARK                            x       y       z     vdW  Elec       q    Type
REMARK                         _______ _______ _______ _____ _____    ______ ____
ROOT
ATOM      1  N   UNL     1       6.925   7.152  16.967  0.00  0.00    +0.000 NA
ATOM      2  C   UNL     1       5.603   6.911  16.358  0.00  0.00    +0.000 C 
ATOM      3  C   UNL     1       5.568   5.703  15.419  0.00  0.00    +0.000 C 
ATOM      4  C   UNL     1       5.982   4.353  15.990  0.00  0.00    +0.000 C 
ATOM      5  N   UNL     1       5.951   4.314  17.442  0.00  0.00    +0.000 N 
ATOM      6  C   UNL     1       4.944   3.713  18.169  0.00  0.00    +0.000 A 
ATOM      7  C   UNL     1       3.684   3.502  17.643  0.00  0.00    +0.000 A 
ATOM      8  C   UNL     1       2.762   2.858  18.440  0.00  0.00    +0.000 A 
ATOM      9  N   UNL     1       3.020   2.423  19.680  0.00  0.00    +0.000 NA
ATOM     10  C   UNL     1       4.256   2.680  20.109  0.00  0.00    +0.000 A 
ATOM     11  N   UNL     1       5.218   3.318  19.426  0.00  0.00    +0.000 NA
ATOM     12  C   UNL     1       7.130   4.859  18.122  0.00  0.00    +0.000 C 
ATOM     13  C   UNL     1       7.056   6.398  18.246  0.00  0.00    +0.000 C 
ENDROOT
BRANCH   8  14
ATOM     14  O   UNL     1       1.506   2.670  17.893  0.00  0.00    +0.000 OA
ATOM     15  C   UNL     1       0.548   2.205  18.839  0.00  0.00    +0.000 C 
ENDBRANCH   8  14
BRANCH   1  16
ATOM     16  C   UNL     1       7.105   8.603  17.259  0.00  0.00    +0.000 C 
BRANCH  16  18
ATOM     17  N   UNL     1       8.771  10.199  18.323  0.00  0.00    +0.000 N 
ATOM     18  C   UNL     1       8.277   8.889  18.223  0.00  0.00    +0.000 C 
ATOM     19  O   UNL     1       8.782   7.954  18.853  0.00  0.00    +0.000 OA
BRANCH  17  21
ATOM     20  C   UNL     1       9.368  10.984  20.634  0.00  0.00    +0.000 C 
ATOM     21  C   UNL     1       9.843  10.427  19.299  0.00  0.00    +0.000 C 
ENDBRANCH  17  21
BRANCH  17  22
ATOM     22  C   UNL     1       8.048  11.337  17.743  0.00  0.00    +0.000 C 
ATOM     23  C   UNL     1       8.846  12.614  17.540  0.00  0.00    +0.000 C 
ENDBRANCH  17  22
ENDBRANCH  16  18
ENDBRANCH   1  16
TORSDOF 5
ENDMDL
MODEL 6
REMARK VINA RESULT:      -5.6      5.503      8.456
REMARK  Name = 
REMARK  8 active torsions:
REMARK  status: ('A' for Active; 'I' for Inactive)
REMARK    1  A    between atoms: C_1  and  C_2
REMARK    2  A    between atoms: C_2  and  N_3
REMARK    3  A    between atoms: N_3  and  C_4
REMARK    4  A    between atoms: C_4  and  C_5
REMARK    5  A    between atoms: C_6  and  C_8
REMARK    6  A    between atoms: C_8  and  N_9
REMARK    7  A    between atoms: C_16  and  O_17
REMARK    8  A    between atoms: O_17  and  C_18
REMARK                            x       y       z     vdW  Elec       q    Type
REMARK                         _______ _______ _______ _____ _____    ______ ____
ROOT
ATOM      1  N   UNL     1       7.059   5.494  15.796  0.00  0.00    +0.000 NA
ATOM      2  C   UNL     1       7.136   4.370  16.748  0.00  0.00    +0.000 C 
ATOM      3  C   UNL     1       7.496   4.793  18.174  0.00  0.00    +0.000 C 
ATOM      4  C   UNL     1       6.597   5.817  18.855  0.00  0.00    +0.000 C 
ATOM      5  N   UNL     1       5.292   5.937  18.227  0.00  0.00    +0.000 N 
ATOM      6  C   UNL     1       4.143   5.374  18.741  0.00  0.00    +0.000 A 
ATOM      7  C   UNL     1       4.174   4.299  19.608  0.00  0.00    +0.000 A 
ATOM      8  C   UNL     1       2.970   3.838  20.094  0.00  0.00    +0.000 A 
ATOM      9  N   UNL     1       1.782   4.373  19.781  0.00  0.00    +0.000 NA
ATOM     10  C   UNL     1       1.847   5.397  18.929  0.00  0.00    +0.000 A 
ATOM     11  N   UNL     1       2.960   5.908  18.382  0.00  0.00    +0.000 NA
ATOM     12  C   UNL     1       5.229   6.804  17.047  0.00  0.00    +0.000 C 
ATOM     13  C   UNL     1       5.681   6.062  15.769  0.00  0.00    +0.000 C 
ENDROOT
BRANCH   8  14
ATOM     14  O   UNL     1       3.030   2.754  20.951  0.00  0.00    +0.000 OA
ATOM     15  C   UNL     1       1.858   2.602  21.745  0.00  0.00    +0.000 C 
ENDBRANCH   8  14
BRANCH   1  16
ATOM     16  C   UNL     1       7.401   5.033  14.420  0.00  0.00    +0.000 C 
BRANCH  16  18
ATOM     17  N   UNL     1       6.389   3.762  12.467  0.00  0.00    +0.000 N 
ATOM     18  C   UNL     1       6.387   4.019  13.846  0.00  0.00    +0.000 C 
ATOM     19  O   UNL     1       5.569   3.490  14.605  0.00  0.00    +0.000 OA
BRANCH  17  21
ATOM     20  C   UNL     1       4.201   3.308  11.317  0.00  0.00    +0.000 C 
ATOM     21  C   UNL     1       5.447   2.744  11.984  0.00  0.00    +0.000 C 
ENDBRANCH  17  21
BRANCH  17  22
ATOM     22  C   UNL     1       7.482   4.223  11.602  0.00  0.00    +0.000 C 
ATOM     23  C   UNL     1       7.559   5.718  11.345  0.00  0.00    +0.000 C 
ENDBRANCH  17  22
ENDBRANCH  16  18
ENDBRANCH   1  16
TORSDOF 5
ENDMDL
MODEL 7
REMARK VINA RESULT:      -5.5      1.761      8.131
REMARK  Name = 
REMARK  8 active torsions:
REMARK  status: ('A' for Active; 'I' for Inactive)
REMARK    1  A    between atoms: C_1  and  C_2
REMARK    2  A    between atoms: C_2  and  N_3
REMARK    3  A    between atoms: N_3  and  C_4
REMARK    4  A    between atoms: C_4  and  C_5
REMARK    5  A    between atoms: C_6  and  C_8
REMARK    6  A    between atoms: C_8  and  N_9
REMARK    7  A    between atoms: C_16  and  O_17
REMARK    8  A    between atoms: O_17  and  C_18
REMARK                            x       y       z     vdW  Elec       q    Type
REMARK                         _______ _______ _______ _____ _____    ______ ____
ROOT
ATOM      1  N   UNL     1       1.068   9.604  19.027  0.00  0.00    +0.000 NA
ATOM      2  C   UNL     1       1.210   8.762  17.824  0.00  0.00    +0.000 C 
ATOM      3  C   UNL     1       2.639   8.273  17.579  0.00  0.00    +0.000 C 
ATOM      4  C   UNL     1       3.313   7.477  18.689  0.00  0.00    +0.000 C 
ATOM      5  N   UNL     1       2.372   6.933  19.653  0.00  0.00    +0.000 N 
ATOM      6  C   UNL     1       1.978   5.611  19.673  0.00  0.00    +0.000 A 
ATOM      7  C   UNL     1       2.064   4.801  18.556  0.00  0.00    +0.000 A 
ATOM      8  C   UNL     1       1.681   3.484  18.695  0.00  0.00    +0.000 A 
ATOM      9  N   UNL     1       1.242   2.949  19.841  0.00  0.00    +0.000 NA
ATOM     10  C   UNL     1       1.179   3.806  20.861  0.00  0.00    +0.000 A 
ATOM     11  N   UNL     1       1.505   5.107  20.828  0.00  0.00    +0.000 NA
ATOM     12  C   UNL     1       1.931   7.852  20.706  0.00  0.00    +0.000 C 
ATOM     13  C   UNL     1       0.779   8.762  20.222  0.00  0.00    +0.000 C 
ENDROOT
BRANCH   8  14
ATOM     14  O   UNL     1       1.767   2.700  17.559  0.00  0.00    +0.000 OA
ATOM     15  C   UNL     1       3.016   2.028  17.436  0.00  0.00    +0.000 C 
ENDBRANCH   8  14
BRANCH   1  16
ATOM     16  C   UNL     1      -0.053  10.572  18.854  0.00  0.00    +0.000 C 
BRANCH  16  18
ATOM     17  N   UNL     1      -0.434  12.606  20.327  0.00  0.00    +0.000 N 
ATOM     18  C   UNL     1       0.307  12.007  19.297  0.00  0.00    +0.000 C 
ATOM     19  O   UNL     1       1.208  12.611  18.707  0.00  0.00    +0.000 OA
BRANCH  17  21
ATOM     20  C   UNL     1      -1.038  15.039  20.498  0.00  0.00    +0.000 C 
ATOM     21  C   UNL     1      -0.009  13.947  20.750  0.00  0.00    +0.000 C 
ENDBRANCH  17  21
BRANCH  17  22
ATOM     22  C   UNL     1      -1.355  11.828  21.163  0.00  0.00    +0.000 C 
ATOM     23  C   UNL     1      -0.859  11.451  22.549  0.00  0.00    +0.000 C 
ENDBRANCH  17  22
ENDBRANCH  16  18
ENDBRANCH   1  16
TORSDOF 5
ENDMDL
MODEL 8
REMARK VINA RESULT:      -5.5      1.434      2.076
REMARK  Name = 
REMARK  8 active torsions:
REMARK  status: ('A' for Active; 'I' for Inactive)
REMARK    1  A    between atoms: C_1  and  C_2
REMARK    2  A    between atoms: C_2  and  N_3
REMARK    3  A    between atoms: N_3  and  C_4
REMARK    4  A    between atoms: C_4  and  C_5
REMARK    5  A    between atoms: C_6  and  C_8
REMARK    6  A    between atoms: C_8  and  N_9
REMARK    7  A    between atoms: C_16  and  O_17
REMARK    8  A    between atoms: O_17  and  C_18
REMARK                            x       y       z     vdW  Elec       q    Type
REMARK                         _______ _______ _______ _____ _____    ______ ____
ROOT
ATOM      1  N   UNL     1       1.587   7.783  19.583  0.00  0.00    +0.000 NA
ATOM      2  C   UNL     1       2.144   8.731  18.599  0.00  0.00    +0.000 C 
ATOM      3  C   UNL     1       1.090   9.370  17.693  0.00  0.00    +0.000 C 
ATOM      4  C   UNL     1      -0.048  10.131  18.361  0.00  0.00    +0.000 C 
ATOM      5  N   UNL     1       0.245  10.504  19.734  0.00  0.00    +0.000 N 
ATOM      6  C   UNL     1       0.612  11.777  20.118  0.00  0.00    +0.000 A 
ATOM      7  C   UNL     1       1.168  12.681  19.232  0.00  0.00    +0.000 A 
ATOM      8  C   UNL     1       1.462  13.940  19.709  0.00  0.00    +0.000 A 
ATOM      9  N   UNL     1       1.234  14.336  20.968  0.00  0.00    +0.000 NA
ATOM     10  C   UNL     1       0.708  13.396  21.754  0.00  0.00    +0.000 A 
ATOM     11  N   UNL     1       0.406  12.138  21.398  0.00  0.00    +0.000 NA
ATOM     12  C   UNL     1       0.018   9.465  20.742  0.00  0.00    +0.000 C 
ATOM     13  C   UNL     1       1.216   8.493  20.840  0.00  0.00    +0.000 C 
ENDROOT
BRANCH   8  14
ATOM     14  O   UNL     1       2.029  14.819  18.804  0.00  0.00    +0.000 OA
ATOM     15  C   UNL     1       3.009  14.210  17.969  0.00  0.00    +0.000 C 
ENDBRANCH   8  14
BRANCH   1  16
ATOM     16  C   UNL     1       2.590   6.733  19.918  0.00  0.00    +0.000 C 
BRANCH  16  18
ATOM     17  N   UNL     1       3.300   5.113  18.094  0.00  0.00    +0.000 N 
ATOM     18  C   UNL     1       2.394   5.425  19.120  0.00  0.00    +0.000 C 
ATOM     19  O   UNL     1       1.422   4.706  19.371  0.00  0.00    +0.000 OA
BRANCH  17  21
ATOM     20  C   UNL     1       3.898   2.674  18.002  0.00  0.00    +0.000 C 
ATOM     21  C   UNL     1       3.104   3.829  17.409  0.00  0.00    +0.000 C 
ENDBRANCH  17  21
BRANCH  17  22
ATOM     22  C   UNL     1       4.560   5.848  17.934  0.00  0.00    +0.000 C 
ATOM     23  C   UNL     1       4.716   6.656  16.656  0.00  0.00    +0.000 C 
ENDBRANCH  17  22
ENDBRANCH  16  18
ENDBRANCH   1  16
TORSDOF 5
ENDMDL
MODEL 9
REMARK VINA RESULT:      -5.4      2.729      3.896
REMARK  Name = 
REMARK  8 active torsions:
REMARK  status: ('A' for Active; 'I' for Inactive)
REMARK    1  A    between atoms: C_1  and  C_2
REMARK    2  A    between atoms: C_2  and  N_3
REMARK    3  A    between atoms: N_3  and  C_4
REMARK    4  A    between atoms: C_4  and  C_5
REMARK    5  A    between atoms: C_6  and  C_8
REMARK    6  A    between atoms: C_8  and  N_9
REMARK    7  A    between atoms: C_16  and  O_17
REMARK    8  A    between atoms: O_17  and  C_18
REMARK                            x       y       z     vdW  Elec       q    Type
REMARK                         _______ _______ _______ _____ _____    ______ ____
ROOT
ATOM      1  N   UNL     1       1.624   8.273  20.279  0.00  0.00    +0.000 NA
ATOM      2  C   UNL     1       0.656   8.950  21.162  0.00  0.00    +0.000 C 
ATOM      3  C   UNL     1       0.882  10.458  21.283  0.00  0.00    +0.000 C 
ATOM      4  C   UNL     1       0.873  11.278  20.000  0.00  0.00    +0.000 C 
ATOM      5  N   UNL     1       0.239  10.590  18.888  0.00  0.00    +0.000 N 
ATOM      6  C   UNL     1      -1.037  10.869  18.445  0.00  0.00    +0.000 A 
ATOM      7  C   UNL     1      -1.982  11.472  19.255  0.00  0.00    +0.000 A 
ATOM      8  C   UNL     1      -3.215  11.742  18.702  0.00  0.00    +0.000 A 
ATOM      9  N   UNL     1      -3.544  11.464  17.434  0.00  0.00    +0.000 NA
ATOM     10  C   UNL     1      -2.577  10.873  16.731  0.00  0.00    +0.000 A 
ATOM     11  N   UNL     1      -1.354  10.546  17.178  0.00  0.00    +0.000 NA
ATOM     12  C   UNL     1       1.082   9.636  18.162  0.00  0.00    +0.000 C 
ATOM     13  C   UNL     1       1.130   8.264  18.872  0.00  0.00    +0.000 C 
ENDROOT
BRANCH   8  14
ATOM     14  O   UNL     1      -4.144  12.334  19.539  0.00  0.00    +0.000 OA
ATOM     15  C   UNL     1      -3.556  13.199  20.505  0.00  0.00    +0.000 C 
ENDBRANCH   8  14
BRANCH   1  16
ATOM     16  C   UNL     1       1.824   6.860  20.713  0.00  0.00    +0.000 C 
BRANCH  16  18
ATOM     17  N   UNL     1       2.366   4.667  19.550  0.00  0.00    +0.000 N 
ATOM     18  C   UNL     1       2.662   6.029  19.716  0.00  0.00    +0.000 C 
ATOM     19  O   UNL     1       3.599   6.569  19.120  0.00  0.00    +0.000 OA
BRANCH  17  21
ATOM     20  C   UNL     1       2.329   3.367  17.400  0.00  0.00    +0.000 C 
ATOM     21  C   UNL     1       3.152   3.940  18.545  0.00  0.00    +0.000 C 
ENDBRANCH  17  21
BRANCH  17  22
ATOM     22  C   UNL     1       1.135   4.078  20.090  0.00  0.00    +0.000 C 
ATOM     23  C   UNL     1       1.307   2.953  21.097  0.00  0.00    +0.000 C 
ENDBRANCH  17  22
ENDBRANCH  16  18
ENDBRANCH   1  16
TORSDOF 5
ENDMDL
