MODEL 1
REMARK VINA RESULT:      -8.4      0.000      0.000
REMARK  Name = 
REMARK  4 active torsions:
REMARK  status: ('A' for Active; 'I' for Inactive)
REMARK    1  A    between atoms: C_2  and  C_22
REMARK    2  A    between atoms: N_3  and  C_4
REMARK    3  A    between atoms: C_8  and  C_9
REMARK    4  A    between atoms: C_9  and  C_10
REMARK                            x       y       z     vdW  Elec       q    Type
REMARK                         _______ _______ _______ _____ _____    ______ ____
ROOT
ATOM      1  C   UNL     1       1.735   5.117  20.518  0.00  0.00    +0.000 A 
ATOM      2  C   UNL     1       0.839   4.047  20.570  0.00  0.00    +0.000 A 
ATOM      3  C   UNL     1       1.240   2.767  20.185  0.00  0.00    +0.000 A 
ATOM      4  C   UNL     1       2.550   2.538  19.762  0.00  0.00    +0.000 A 
ATOM      5  C   UNL     1       3.467   3.592  19.708  0.00  0.00    +0.000 A 
ATOM      6  C   UNL     1       3.037   4.888  20.049  0.00  0.00    +0.000 A 
ENDROOT
BRANCH   1   9
ATOM      7  O   UNL     1       2.159   7.667  19.115  0.00  0.00    +0.000 OA
ATOM      8  C   UNL     1       1.641   7.595  20.225  0.00  0.00    +0.000 C 
ATOM      9  N   UNL     1       1.407   6.424  20.927  0.00  0.00    +0.000 N 
ATOM     10  H   UNL     1       0.819   6.500  21.744  0.00  0.00    +0.000 HD
BRANCH   8  11
ATOM     11  C   UNL     1       1.148   8.793  20.881  0.00  0.00    +0.000 A 
ATOM     12  C   UNL     1       0.849   9.089  22.203  0.00  0.00    +0.000 A 
ATOM     13  C   UNL     1       0.381  10.425  22.259  0.00  0.00    +0.000 A 
ATOM     14  C   UNL     1       0.411  10.925  20.980  0.00  0.00    +0.000 A 
ATOM     15  N   UNL     1       0.894   9.942  20.159  0.00  0.00    +0.000 N 
ATOM     16  H   UNL     1       1.038  10.015  19.159  0.00  0.00    +0.000 HD
ENDBRANCH   8  11
ENDBRANCH   1   9
BRANCH   5  17
ATOM     17  C   UNL     1       4.906   3.339  19.318  0.00  0.00    +0.000 C 
BRANCH  17  18
ATOM     18  C   UNL     1       5.309   4.010  18.009  0.00  0.00    +0.000 A 
ATOM     19  N   UNL     1       4.691   3.608  16.937  0.00  0.00    +0.000 NA
ATOM     20  N   UNL     1       5.024   4.203  15.762  0.00  0.00    +0.000 N 
ATOM     21  C   UNL     1       5.956   5.189  15.595  0.00  0.00    +0.000 A 
ATOM     22  O   UNL     1       6.238   5.646  14.492  0.00  0.00    +0.000 OA
ATOM     23  C   UNL     1       6.602   5.687  16.835  0.00  0.00    +0.000 A 
ATOM     24  C   UNL     1       6.326   5.111  18.019  0.00  0.00    +0.000 A 
ATOM     25  C   UNL     1       6.973   5.565  19.298  0.00  0.00    +0.000 C 
ATOM     26  C   UNL     1       8.141   6.537  19.090  0.00  0.00    +0.000 C 
ATOM     27  C   UNL     1       7.824   7.558  18.007  0.00  0.00    +0.000 C 
ATOM     28  C   UNL     1       7.533   6.858  16.679  0.00  0.00    +0.000 C 
ATOM     29  H   UNL     1       4.567   3.851  14.927  0.00  0.00    +0.000 HD
ENDBRANCH  17  18
ENDBRANCH   5  17
TORSDOF 4
ENDMDL
MODEL 2
REMARK VINA RESULT:      -8.4      3.861      7.035
REMARK  Name = 
REMARK  4 active torsions:
REMARK  status: ('A' for Active; 'I' for Inactive)
REMARK    1  A    between atoms: C_2  and  C_22
REMARK    2  A    between atoms: N_3  and  C_4
REMARK    3  A    between atoms: C_8  and  C_9
REMARK    4  A    between atoms: C_9  and  C_10
REMARK                            x       y       z     vdW  Elec       q    Type
REMARK                         _______ _______ _______ _____ _____    ______ ____
ROOT
ATOM      1  C   UNL     1       7.982   8.131  18.020  0.00  0.00    +0.000 A 
ATOM      2  C   UNL     1       8.522   7.230  18.940  0.00  0.00    +0.000 A 
ATOM      3  C   UNL     1       7.947   5.971  19.120  0.00  0.00    +0.000 A 
ATOM      4  C   UNL     1       6.838   5.590  18.365  0.00  0.00    +0.000 A 
ATOM      5  C   UNL     1       6.284   6.472  17.432  0.00  0.00    +0.000 A 
ATOM      6  C   UNL     1       6.839   7.758  17.297  0.00  0.00    +0.000 A 
ENDROOT
BRANCH   1   9
ATOM      7  O   UNL     1       9.130  10.078  19.902  0.00  0.00    +0.000 OA
ATOM      8  C   UNL     1       9.052  10.283  18.695  0.00  0.00    +0.000 C 
ATOM      9  N   UNL     1       8.534   9.401  17.762  0.00  0.00    +0.000 N 
ATOM     10  H   UNL     1       8.693   9.628  16.792  0.00  0.00    +0.000 HD
BRANCH   8  11
ATOM     11  C   UNL     1       9.596  11.504  18.125  0.00  0.00    +0.000 A 
ATOM     12  C   UNL     1       9.098  12.792  18.008  0.00  0.00    +0.000 A 
ATOM     13  C   UNL     1      10.066  13.580  17.338  0.00  0.00    +0.000 A 
ATOM     14  C   UNL     1      11.140  12.767  17.069  0.00  0.00    +0.000 A 
ATOM     15  N   UNL     1      10.858  11.523  17.564  0.00  0.00    +0.000 N 
ATOM     16  H   UNL     1      11.462  10.711  17.524  0.00  0.00    +0.000 HD
ENDBRANCH   8  11
ENDBRANCH   1   9
BRANCH   5  17
ATOM     17  C   UNL     1       5.125   6.041  16.562  0.00  0.00    +0.000 C 
BRANCH  17  18
ATOM     18  C   UNL     1       4.302   4.905  17.163  0.00  0.00    +0.000 A 
ATOM     19  N   UNL     1       4.548   3.709  16.712  0.00  0.00    +0.000 NA
ATOM     20  N   UNL     1       3.837   2.682  17.245  0.00  0.00    +0.000 N 
ATOM     21  C   UNL     1       2.878   2.783  18.213  0.00  0.00    +0.000 A 
ATOM     22  O   UNL     1       2.242   1.812  18.611  0.00  0.00    +0.000 OA
ATOM     23  C   UNL     1       2.657   4.142  18.767  0.00  0.00    +0.000 A 
ATOM     24  C   UNL     1       3.317   5.196  18.255  0.00  0.00    +0.000 A 
ATOM     25  C   UNL     1       3.110   6.595  18.767  0.00  0.00    +0.000 C 
ATOM     26  C   UNL     1       1.915   6.735  19.717  0.00  0.00    +0.000 C 
ATOM     27  C   UNL     1       1.838   5.563  20.685  0.00  0.00    +0.000 C 
ATOM     28  C   UNL     1       1.698   4.245  19.921  0.00  0.00    +0.000 C 
ATOM     29  H   UNL     1       4.006   1.760  16.855  0.00  0.00    +0.000 HD
ENDBRANCH  17  18
ENDBRANCH   5  17
TORSDOF 4
ENDMDL
MODEL 3
REMARK VINA RESULT:      -8.2      1.469      2.263
REMARK  Name = 
REMARK  4 active torsions:
REMARK  status: ('A' for Active; 'I' for Inactive)
REMARK    1  A    between atoms: C_2  and  C_22
REMARK    2  A    between atoms: N_3  and  C_4
REMARK    3  A    between atoms: C_8  and  C_9
REMARK    4  A    between atoms: C_9  and  C_10
REMARK                            x       y       z     vdW  Elec       q    Type
REMARK                         _______ _______ _______ _____ _____    ______ ____
ROOT
ATOM      1  C   UNL     1       1.848   5.137  20.363  0.00  0.00    +0.000 A 
ATOM      2  C   UNL     1       0.924   4.103  20.203  0.00  0.00    +0.000 A 
ATOM      3  C   UNL     1       1.339   2.841  19.775  0.00  0.00    +0.000 A 
ATOM      4  C   UNL     1       2.688   2.594  19.521  0.00  0.00    +0.000 A 
ATOM      5  C   UNL     1       3.633   3.612  19.682  0.00  0.00    +0.000 A 
ATOM      6  C   UNL     1       3.196   4.894  20.063  0.00  0.00    +0.000 A 
ENDROOT
BRANCH   1   9
ATOM      7  O   UNL     1       2.173   7.744  19.040  0.00  0.00    +0.000 OA
ATOM      8  C   UNL     1       1.690   7.621  20.161  0.00  0.00    +0.000 C 
ATOM      9  N   UNL     1       1.502   6.422  20.827  0.00  0.00    +0.000 N 
ATOM     10  H   UNL     1       0.937   6.456  21.662  0.00  0.00    +0.000 HD
BRANCH   8  11
ATOM     11  C   UNL     1       1.188   8.784  20.872  0.00  0.00    +0.000 A 
ATOM     12  C   UNL     1       0.844   9.002  22.198  0.00  0.00    +0.000 A 
ATOM     13  C   UNL     1       0.392  10.338  22.321  0.00  0.00    +0.000 A 
ATOM     14  C   UNL     1       0.479  10.917  21.078  0.00  0.00    +0.000 A 
ATOM     15  N   UNL     1       0.978   9.980  20.215  0.00  0.00    +0.000 N 
ATOM     16  H   UNL     1       1.161  10.113  19.228  0.00  0.00    +0.000 HD
ENDBRANCH   8  11
ENDBRANCH   1   9
BRANCH   5  17
ATOM     17  C   UNL     1       5.105   3.332  19.476  0.00  0.00    +0.000 C 
BRANCH  17  18
ATOM     18  C   UNL     1       5.850   4.470  18.786  0.00  0.00    +0.000 A 
ATOM     19  N   UNL     1       6.531   5.269  19.556  0.00  0.00    +0.000 NA
ATOM     20  N   UNL     1       7.215   6.279  18.961  0.00  0.00    +0.000 N 
ATOM     21  C   UNL     1       7.255   6.545  17.620  0.00  0.00    +0.000 A 
ATOM     22  O   UNL     1       7.858   7.508  17.159  0.00  0.00    +0.000 OA
ATOM     23  C   UNL     1       6.532   5.585  16.748  0.00  0.00    +0.000 A 
ATOM     24  C   UNL     1       5.818   4.584  17.292  0.00  0.00    +0.000 A 
ATOM     25  C   UNL     1       5.050   3.602  16.450  0.00  0.00    +0.000 C 
ATOM     26  C   UNL     1       4.945   4.001  14.974  0.00  0.00    +0.000 C 
ATOM     27  C   UNL     1       6.263   4.561  14.458  0.00  0.00    +0.000 C 
ATOM     28  C   UNL     1       6.676   5.793  15.265  0.00  0.00    +0.000 C 
ATOM     29  H   UNL     1       7.707   6.921  19.575  0.00  0.00    +0.000 HD
ENDBRANCH  17  18
ENDBRANCH   5  17
TORSDOF 4
ENDMDL
MODEL 4
REMARK VINA RESULT:      -8.0      2.568      6.618
REMARK  Name = 
REMARK  4 active torsions:
REMARK  status: ('A' for Active; 'I' for Inactive)
REMARK    1  A    between atoms: C_2  and  C_22
REMARK    2  A    between atoms: N_3  and  C_4
REMARK    3  A    between atoms: C_8  and  C_9
REMARK    4  A    between atoms: C_9  and  C_10
REMARK                            x       y       z     vdW  Elec       q    Type
REMARK                         _______ _______ _______ _____ _____    ______ ____
ROOT
ATOM      1  C   UNL     1       6.758   6.015  16.200  0.00  0.00    +0.000 A 
ATOM      2  C   UNL     1       7.335   5.355  15.114  0.00  0.00    +0.000 A 
ATOM      3  C   UNL     1       6.762   4.188  14.607  0.00  0.00    +0.000 A 
ATOM      4  C   UNL     1       5.591   3.678  15.169  0.00  0.00    +0.000 A 
ATOM      5  C   UNL     1       4.990   4.326  16.253  0.00  0.00    +0.000 A 
ATOM      6  C   UNL     1       5.606   5.472  16.789  0.00  0.00    +0.000 A 
ENDROOT
BRANCH   1   9
ATOM      7  O   UNL     1       8.039   6.496  18.805  0.00  0.00    +0.000 OA
ATOM      8  C   UNL     1       7.850   7.385  17.980  0.00  0.00    +0.000 C 
ATOM      9  N   UNL     1       7.263   7.215  16.737  0.00  0.00    +0.000 N 
ATOM     10  H   UNL     1       7.332   7.994  16.098  0.00  0.00    +0.000 HD
BRANCH   8  11
ATOM     11  C   UNL     1       8.320   8.735  18.239  0.00  0.00    +0.000 A 
ATOM     12  C   UNL     1       8.186   9.929  17.546  0.00  0.00    +0.000 A 
ATOM     13  C   UNL     1       8.875  10.935  18.267  0.00  0.00    +0.000 A 
ATOM     14  C   UNL     1       9.406  10.345  19.388  0.00  0.00    +0.000 A 
ATOM     15  N   UNL     1       9.050   9.024  19.375  0.00  0.00    +0.000 N 
ATOM     16  H   UNL     1       9.288   8.333  20.075  0.00  0.00    +0.000 HD
ENDBRANCH   8  11
ENDBRANCH   1   9
BRANCH   5  17
ATOM     17  C   UNL     1       3.684   3.820  16.822  0.00  0.00    +0.000 C 
BRANCH  17  18
ATOM     18  C   UNL     1       3.138   4.683  17.955  0.00  0.00    +0.000 A 
ATOM     19  N   UNL     1       2.838   5.913  17.655  0.00  0.00    +0.000 NA
ATOM     20  N   UNL     1       2.335   6.694  18.646  0.00  0.00    +0.000 N 
ATOM     21  C   UNL     1       2.117   6.312  19.940  0.00  0.00    +0.000 A 
ATOM     22  O   UNL     1       1.705   7.091  20.794  0.00  0.00    +0.000 OA
ATOM     23  C   UNL     1       2.399   4.888  20.252  0.00  0.00    +0.000 A 
ATOM     24  C   UNL     1       2.922   4.082  19.311  0.00  0.00    +0.000 A 
ATOM     25  C   UNL     1       3.246   2.639  19.587  0.00  0.00    +0.000 C 
ATOM     26  C   UNL     1       3.174   2.261  21.071  0.00  0.00    +0.000 C 
ATOM     27  C   UNL     1       1.970   2.901  21.747  0.00  0.00    +0.000 C 
ATOM     28  C   UNL     1       2.041   4.425  21.638  0.00  0.00    +0.000 C 
ATOM     29  H   UNL     1       2.146   7.663  18.411  0.00  0.00    +0.000 HD
ENDBRANCH  17  18
ENDBRANCH   5  17
TORSDOF 4
ENDMDL
MODEL 5
REMARK VINA RESULT:      -7.9      2.923      8.488
REMARK  Name = 
REMARK  4 active torsions:
REMARK  status: ('A' for Active; 'I' for Inactive)
REMARK    1  A    between atoms: C_2  and  C_22
REMARK    2  A    between atoms: N_3  and  C_4
REMARK    3  A    between atoms: C_8  and  C_9
REMARK    4  A    between atoms: C_9  and  C_10
REMARK                            x       y       z     vdW  Elec       q    Type
REMARK                         _______ _______ _______ _____ _____    ______ ____
ROOT
ATOM      1  C   UNL     1       6.016   4.939  15.582  0.00  0.00    +0.000 A 
ATOM      2  C   UNL     1       7.191   5.351  16.213  0.00  0.00    +0.000 A 
ATOM      3  C   UNL     1       7.140   6.187  17.330  0.00  0.00    +0.000 A 
ATOM      4  C   UNL     1       5.911   6.603  17.841  0.00  0.00    +0.000 A 
ATOM      5  C   UNL     1       4.720   6.196  17.231  0.00  0.00    +0.000 A 
ATOM      6  C   UNL     1       4.785   5.398  16.074  0.00  0.00    +0.000 A 
ENDROOT
BRANCH   1   9
ATOM      7  O   UNL     1       7.362   5.201  12.979  0.00  0.00    +0.000 OA
ATOM      8  C   UNL     1       6.642   4.249  13.265  0.00  0.00    +0.000 C 
ATOM      9  N   UNL     1       5.994   4.068  14.475  0.00  0.00    +0.000 N 
ATOM     10  H   UNL     1       5.581   3.160  14.631  0.00  0.00    +0.000 HD
BRANCH   8  11
ATOM     11  C   UNL     1       6.473   3.154  12.326  0.00  0.00    +0.000 A 
ATOM     12  C   UNL     1       5.353   2.507  11.826  0.00  0.00    +0.000 A 
ATOM     13  C   UNL     1       5.790   1.487  10.946  0.00  0.00    +0.000 A 
ATOM     14  C   UNL     1       7.163   1.535  10.913  0.00  0.00    +0.000 A 
ATOM     15  N   UNL     1       7.565   2.555  11.731  0.00  0.00    +0.000 N 
ATOM     16  H   UNL     1       8.521   2.840  11.907  0.00  0.00    +0.000 HD
ENDBRANCH   8  11
ENDBRANCH   1   9
BRANCH   5  17
ATOM     17  C   UNL     1       3.384   6.586  17.821  0.00  0.00    +0.000 C 
BRANCH  17  18
ATOM     18  C   UNL     1       2.961   5.712  18.998  0.00  0.00    +0.000 A 
ATOM     19  N   UNL     1       2.861   6.303  20.153  0.00  0.00    +0.000 NA
ATOM     20  N   UNL     1       2.470   5.548  21.211  0.00  0.00    +0.000 N 
ATOM     21  C   UNL     1       2.173   4.214  21.183  0.00  0.00    +0.000 A 
ATOM     22  O   UNL     1       1.873   3.585  22.193  0.00  0.00    +0.000 OA
ATOM     23  C   UNL     1       2.223   3.568  19.847  0.00  0.00    +0.000 A 
ATOM     24  C   UNL     1       2.630   4.268  18.773  0.00  0.00    +0.000 A 
ATOM     25  C   UNL     1       2.719   3.650  17.404  0.00  0.00    +0.000 C 
ATOM     26  C   UNL     1       2.564   2.125  17.402  0.00  0.00    +0.000 C 
ATOM     27  C   UNL     1       1.463   1.680  18.354  0.00  0.00    +0.000 C 
ATOM     28  C   UNL     1       1.774   2.134  19.782  0.00  0.00    +0.000 C 
ATOM     29  H   UNL     1       2.438   6.010  22.114  0.00  0.00    +0.000 HD
ENDBRANCH  17  18
ENDBRANCH   5  17
TORSDOF 4
ENDMDL
MODEL 6
REMARK VINA RESULT:      -7.9      1.684      2.513
REMARK  Name = 
REMARK  4 active torsions:
REMARK  status: ('A' for Active; 'I' for Inactive)
REMARK    1  A    between atoms: C_2  and  C_22
REMARK    2  A    between atoms: N_3  and  C_4
REMARK    3  A    between atoms: C_8  and  C_9
REMARK    4  A    between atoms: C_9  and  C_10
REMARK                            x       y       z     vdW  Elec       q    Type
REMARK                         _______ _______ _______ _____ _____    ______ ____
ROOT
ATOM      1  C   UNL     1       2.024   5.578  20.171  0.00  0.00    +0.000 A 
ATOM      2  C   UNL     1       1.096   4.610  20.559  0.00  0.00    +0.000 A 
ATOM      3  C   UNL     1       1.436   3.255  20.544  0.00  0.00    +0.000 A 
ATOM      4  C   UNL     1       2.716   2.856  20.162  0.00  0.00    +0.000 A 
ATOM      5  C   UNL     1       3.665   3.808  19.777  0.00  0.00    +0.000 A 
ATOM      6  C   UNL     1       3.296   5.165  19.745  0.00  0.00    +0.000 A 
ENDROOT
BRANCH   1   9
ATOM      7  O   UNL     1       2.230   7.554  18.002  0.00  0.00    +0.000 OA
ATOM      8  C   UNL     1       1.885   7.848  19.142  0.00  0.00    +0.000 C 
ATOM      9  N   UNL     1       1.759   6.961  20.198  0.00  0.00    +0.000 N 
ATOM     10  H   UNL     1       1.301   7.310  21.026  0.00  0.00    +0.000 HD
BRANCH   8  11
ATOM     11  C   UNL     1       1.494   9.211  19.458  0.00  0.00    +0.000 A 
ATOM     12  C   UNL     1       1.371  10.358  18.689  0.00  0.00    +0.000 A 
ATOM     13  C   UNL     1       0.967  11.417  19.538  0.00  0.00    +0.000 A 
ATOM     14  C   UNL     1       0.839  10.900  20.805  0.00  0.00    +0.000 A 
ATOM     15  N   UNL     1       1.138   9.567  20.744  0.00  0.00    +0.000 N 
ATOM     16  H   UNL     1       1.126   8.914  21.519  0.00  0.00    +0.000 HD
ENDBRANCH   8  11
ENDBRANCH   1   9
BRANCH   5  17
ATOM     17  C   UNL     1       5.076   3.389  19.429  0.00  0.00    +0.000 C 
BRANCH  17  18
ATOM     18  C   UNL     1       5.887   4.487  18.748  0.00  0.00    +0.000 A 
ATOM     19  N   UNL     1       6.591   5.256  19.527  0.00  0.00    +0.000 NA
ATOM     20  N   UNL     1       7.333   6.230  18.941  0.00  0.00    +0.000 N 
ATOM     21  C   UNL     1       7.410   6.487  17.600  0.00  0.00    +0.000 A 
ATOM     22  O   UNL     1       8.066   7.419  17.147  0.00  0.00    +0.000 OA
ATOM     23  C   UNL     1       6.659   5.558  16.719  0.00  0.00    +0.000 A 
ATOM     24  C   UNL     1       5.888   4.595  17.253  0.00  0.00    +0.000 A 
ATOM     25  C   UNL     1       5.090   3.646  16.401  0.00  0.00    +0.000 C 
ATOM     26  C   UNL     1       5.032   4.042  14.921  0.00  0.00    +0.000 C 
ATOM     27  C   UNL     1       6.384   4.536  14.428  0.00  0.00    +0.000 C 
ATOM     28  C   UNL     1       6.840   5.751  15.238  0.00  0.00    +0.000 C 
ATOM     29  H   UNL     1       7.842   6.851  19.561  0.00  0.00    +0.000 HD
ENDBRANCH  17  18
ENDBRANCH   5  17
TORSDOF 4
ENDMDL
MODEL 7
REMARK VINA RESULT:      -7.9      3.864      7.357
REMARK  Name = 
REMARK  4 active torsions:
REMARK  status: ('A' for Active; 'I' for Inactive)
REMARK    1  A    between atoms: C_2  and  C_22
REMARK    2  A    between atoms: N_3  and  C_4
REMARK    3  A    between atoms: C_8  and  C_9
REMARK    4  A    between atoms: C_9  and  C_10
REMARK                            x       y       z     vdW  Elec       q    Type
REMARK                         _______ _______ _______ _____ _____    ______ ____
ROOT
ATOM      1  C   UNL     1       7.907   8.209  18.010  0.00  0.00    +0.000 A 
ATOM      2  C   UNL     1       8.548   7.195  18.724  0.00  0.00    +0.000 A 
ATOM      3  C   UNL     1       7.919   5.967  18.931  0.00  0.00    +0.000 A 
ATOM      4  C   UNL     1       6.647   5.732  18.407  0.00  0.00    +0.000 A 
ATOM      5  C   UNL     1       5.989   6.729  17.682  0.00  0.00    +0.000 A 
ATOM      6  C   UNL     1       6.611   7.981  17.525  0.00  0.00    +0.000 A 
ENDROOT
BRANCH   1   9
ATOM      7  O   UNL     1       9.171  10.120  19.855  0.00  0.00    +0.000 OA
ATOM      8  C   UNL     1       9.073  10.323  18.649  0.00  0.00    +0.000 C 
ATOM      9  N   UNL     1       8.500   9.457  17.733  0.00  0.00    +0.000 N 
ATOM     10  H   UNL     1       8.645   9.674  16.759  0.00  0.00    +0.000 HD
BRANCH   8  11
ATOM     11  C   UNL     1       9.648  11.520  18.061  0.00  0.00    +0.000 A 
ATOM     12  C   UNL     1       9.151  12.797  17.847  0.00  0.00    +0.000 A 
ATOM     13  C   UNL     1      10.160  13.561  17.210  0.00  0.00    +0.000 A 
ATOM     14  C   UNL     1      11.255  12.746  17.057  0.00  0.00    +0.000 A 
ATOM     15  N   UNL     1      10.946  11.525  17.590  0.00  0.00    +0.000 N 
ATOM     16  H   UNL     1      11.557  10.717  17.631  0.00  0.00    +0.000 HD
ENDBRANCH   8  11
ENDBRANCH   1   9
BRANCH   5  17
ATOM     17  C   UNL     1       4.642   6.457  17.052  0.00  0.00    +0.000 C 
BRANCH  17  18
ATOM     18  C   UNL     1       3.590   5.977  18.047  0.00  0.00    +0.000 A 
ATOM     19  N   UNL     1       2.995   6.895  18.752  0.00  0.00    +0.000 NA
ATOM     20  N   UNL     1       2.045   6.491  19.632  0.00  0.00    +0.000 N 
ATOM     21  C   UNL     1       1.650   5.201  19.856  0.00  0.00    +0.000 A 
ATOM     22  O   UNL     1       0.816   4.907  20.706  0.00  0.00    +0.000 OA
ATOM     23  C   UNL     1       2.286   4.171  18.997  0.00  0.00    +0.000 A 
ATOM     24  C   UNL     1       3.252   4.519  18.128  0.00  0.00    +0.000 A 
ATOM     25  C   UNL     1       3.941   3.507  17.253  0.00  0.00    +0.000 C 
ATOM     26  C   UNL     1       3.634   2.053  17.628  0.00  0.00    +0.000 C 
ATOM     27  C   UNL     1       2.162   1.869  17.969  0.00  0.00    +0.000 C 
ATOM     28  C   UNL     1       1.768   2.767  19.144  0.00  0.00    +0.000 C 
ATOM     29  H   UNL     1       1.619   7.211  20.207  0.00  0.00    +0.000 HD
ENDBRANCH  17  18
ENDBRANCH   5  17
TORSDOF 4
ENDMDL
MODEL 8
REMARK VINA RESULT:      -7.9      3.096      5.160
REMARK  Name = 
REMARK  4 active torsions:
REMARK  status: ('A' for Active; 'I' for Inactive)
REMARK    1  A    between atoms: C_2  and  C_22
REMARK    2  A    between atoms: N_3  and  C_4
REMARK    3  A    between atoms: C_8  and  C_9
REMARK    4  A    between atoms: C_9  and  C_10
REMARK                            x       y       z     vdW  Elec       q    Type
REMARK                         _______ _______ _______ _____ _____    ______ ____
ROOT
ATOM      1  C   UNL     1       0.256   9.730  19.883  0.00  0.00    +0.000 A 
ATOM      2  C   UNL     1       0.590   9.992  18.553  0.00  0.00    +0.000 A 
ATOM      3  C   UNL     1       1.570   9.237  17.906  0.00  0.00    +0.000 A 
ATOM      4  C   UNL     1       2.212   8.196  18.577  0.00  0.00    +0.000 A 
ATOM      5  C   UNL     1       1.889   7.910  19.907  0.00  0.00    +0.000 A 
ATOM      6  C   UNL     1       0.938   8.711  20.565  0.00  0.00    +0.000 A 
ENDROOT
BRANCH   1   9
ATOM      7  O   UNL     1       0.518  11.975  21.766  0.00  0.00    +0.000 OA
ATOM      8  C   UNL     1      -0.563  11.476  21.469  0.00  0.00    +0.000 C 
ATOM      9  N   UNL     1      -0.748  10.428  20.584  0.00  0.00    +0.000 N 
ATOM     10  H   UNL     1      -1.698  10.238  20.304  0.00  0.00    +0.000 HD
BRANCH   8  11
ATOM     11  C   UNL     1      -1.795  12.030  22.004  0.00  0.00    +0.000 A 
ATOM     12  C   UNL     1      -2.370  12.004  23.266  0.00  0.00    +0.000 A 
ATOM     13  C   UNL     1      -3.601  12.702  23.202  0.00  0.00    +0.000 A 
ATOM     14  C   UNL     1      -3.752  13.151  21.913  0.00  0.00    +0.000 A 
ATOM     15  N   UNL     1      -2.650  12.760  21.202  0.00  0.00    +0.000 N 
ATOM     16  H   UNL     1      -2.470  12.950  20.224  0.00  0.00    +0.000 HD
ENDBRANCH   8  11
ENDBRANCH   1   9
BRANCH   5  17
ATOM     17  C   UNL     1       2.530   6.739  20.617  0.00  0.00    +0.000 C 
BRANCH  17  18
ATOM     18  C   UNL     1       2.107   5.383  20.061  0.00  0.00    +0.000 A 
ATOM     19  N   UNL     1       0.978   4.904  20.495  0.00  0.00    +0.000 NA
ATOM     20  N   UNL     1       0.574   3.706  20.000  0.00  0.00    +0.000 N 
ATOM     21  C   UNL     1       1.247   2.944  19.086  0.00  0.00    +0.000 A 
ATOM     22  O   UNL     1       0.843   1.845  18.722  0.00  0.00    +0.000 OA
ATOM     23  C   UNL     1       2.499   3.534  18.547  0.00  0.00    +0.000 A 
ATOM     24  C   UNL     1       2.953   4.706  19.024  0.00  0.00    +0.000 A 
ATOM     25  C   UNL     1       4.227   5.332  18.526  0.00  0.00    +0.000 C 
ATOM     26  C   UNL     1       5.068   4.403  17.643  0.00  0.00    +0.000 C 
ATOM     27  C   UNL     1       4.194   3.615  16.679  0.00  0.00    +0.000 C 
ATOM     28  C   UNL     1       3.179   2.766  17.447  0.00  0.00    +0.000 C 
ATOM     29  H   UNL     1      -0.285   3.322  20.379  0.00  0.00    +0.000 HD
ENDBRANCH  17  18
ENDBRANCH   5  17
TORSDOF 4
ENDMDL
MODEL 9
REMARK VINA RESULT:      -7.9      2.831      6.519
REMARK  Name = 
REMARK  4 active torsions:
REMARK  status: ('A' for Active; 'I' for Inactive)
REMARK    1  A    between atoms: C_2  and  C_22
REMARK    2  A    between atoms: N_3  and  C_4
REMARK    3  A    between atoms: C_8  and  C_9
REMARK    4  A    between atoms: C_9  and  C_10
REMARK                            x       y       z     vdW  Elec       q    Type
REMARK                         _______ _______ _______ _____ _____    ______ ____
ROOT
ATOM      1  C   UNL     1       6.716   5.995  16.507  0.00  0.00    +0.000 A 
ATOM      2  C   UNL     1       7.453   5.101  15.729  0.00  0.00    +0.000 A 
ATOM      3  C   UNL     1       6.876   3.912  15.277  0.00  0.00    +0.000 A 
ATOM      4  C   UNL     1       5.547   3.616  15.580  0.00  0.00    +0.000 A 
ATOM      5  C   UNL     1       4.787   4.501  16.351  0.00  0.00    +0.000 A 
ATOM      6  C   UNL     1       5.394   5.669  16.846  0.00  0.00    +0.000 A 
ENDROOT
BRANCH   1   9
ATOM      7  O   UNL     1       8.248   6.585  18.948  0.00  0.00    +0.000 OA
ATOM      8  C   UNL     1       7.933   7.447  18.133  0.00  0.00    +0.000 C 
ATOM      9  N   UNL     1       7.224   7.227  16.965  0.00  0.00    +0.000 N 
ATOM     10  H   UNL     1       7.189   7.993  16.309  0.00  0.00    +0.000 HD
BRANCH   8  11
ATOM     11  C   UNL     1       8.370   8.820  18.317  0.00  0.00    +0.000 A 
ATOM     12  C   UNL     1       8.212   9.969  17.557  0.00  0.00    +0.000 A 
ATOM     13  C   UNL     1       8.873  11.031  18.221  0.00  0.00    +0.000 A 
ATOM     14  C   UNL     1       9.412  10.520  19.376  0.00  0.00    +0.000 A 
ATOM     15  N   UNL     1       9.087   9.192  19.437  0.00  0.00    +0.000 N 
ATOM     16  H   UNL     1       9.339   8.547  20.177  0.00  0.00    +0.000 HD
ENDBRANCH   8  11
ENDBRANCH   1   9
BRANCH   5  17
ATOM     17  C   UNL     1       3.326   4.220  16.624  0.00  0.00    +0.000 C 
BRANCH  17  18
ATOM     18  C   UNL     1       2.992   4.125  18.110  0.00  0.00    +0.000 A 
ATOM     19  N   UNL     1       3.236   2.985  18.688  0.00  0.00    +0.000 NA
ATOM     20  N   UNL     1       2.960   2.884  20.014  0.00  0.00    +0.000 N 
ATOM     21  C   UNL     1       2.443   3.870  20.806  0.00  0.00    +0.000 A 
ATOM     22  O   UNL     1       2.174   3.689  21.989  0.00  0.00    +0.000 OA
ATOM     23  C   UNL     1       2.236   5.186  20.151  0.00  0.00    +0.000 A 
ATOM     24  C   UNL     1       2.469   5.329  18.834  0.00  0.00    +0.000 A 
ATOM     25  C   UNL     1       2.250   6.635  18.121  0.00  0.00    +0.000 C 
ATOM     26  C   UNL     1       1.506   7.681  18.959  0.00  0.00    +0.000 C 
ATOM     27  C   UNL     1       1.997   7.686  20.400  0.00  0.00    +0.000 C 
ATOM     28  C   UNL     1       1.790   6.313  21.042  0.00  0.00    +0.000 C 
ATOM     29  H   UNL     1       3.113   1.978  20.443  0.00  0.00    +0.000 HD
ENDBRANCH  17  18
ENDBRANCH   5  17
TORSDOF 4
ENDMDL
