MODEL 1
REMARK VINA RESULT:      -7.3      0.000      0.000
REMARK  Name = 
REMARK  10 active torsions:
REMARK  status: ('A' for Active; 'I' for Inactive)
REMARK    1  A    between atoms: C_1  and  C_2
REMARK    2  A    between atoms: C_2  and  O_3
REMARK    3  A    between atoms: O_3  and  C_4
REMARK    4  A    between atoms: C_7  and  C_8
REMARK    5  A    between atoms: C_8  and  C_9
REMARK    6  A    between atoms: C_9  and  C_10
REMARK    7  A    between atoms: C_9  and  C_20
REMARK    8  A    between atoms: C_10  and  N_11
REMARK    9  A    between atoms: C_12  and  C_14
REMARK   10  A    between atoms: C_18  and  C_19
REMARK                            x       y       z     vdW  Elec       q    Type
REMARK                         _______ _______ _______ _____ _____    ______ ____
ROOT
ATOM      1  C   UNL     1       1.636   4.693  19.824  0.00  0.00    +0.000 C 
ENDROOT
BRANCH   1   2
ATOM      2  C   UNL     1       1.825   3.501  20.767  0.00  0.00    +0.000 C 
ATOM      3  N   UNL     1       1.722   2.244  20.252  0.00  0.00    +0.000 N 
ATOM      4  O   UNL     1       2.137   3.620  21.949  0.00  0.00    +0.000 OA
ATOM      5  H   UNL     1       1.533   2.017  19.286  0.00  0.00    +0.000 HD
ATOM      6  H   UNL     1       1.876   1.475  20.893  0.00  0.00    +0.000 HD
ENDBRANCH   1   2
BRANCH   1   7
ATOM      7  C   UNL     1       2.641   5.825  20.095  0.00  0.00    +0.000 C 
BRANCH   7  11
ATOM      8  C   UNL     1       0.990   9.668  19.043  0.00  0.00    +0.000 A 
ATOM      9  C   UNL     1       1.816   8.999  18.139  0.00  0.00    +0.000 A 
ATOM     10  C   UNL     1       2.413   7.783  18.490  0.00  0.00    +0.000 A 
ATOM     11  C   UNL     1       2.209   7.235  19.763  0.00  0.00    +0.000 A 
ATOM     12  C   UNL     1       1.461   7.967  20.696  0.00  0.00    +0.000 A 
ATOM     13  C   UNL     1       0.859   9.178  20.340  0.00  0.00    +0.000 A 
BRANCH   8  14
ATOM     14  O   UNL     1       0.349  10.771  18.551  0.00  0.00    +0.000 OA
BRANCH  14  16
ATOM     15  C   UNL     1      -1.690  10.100  17.493  0.00  0.00    +0.000 C 
ATOM     16  C   UNL     1      -1.073  10.776  18.706  0.00  0.00    +0.000 C 
ENDBRANCH  14  16
ENDBRANCH   8  14
ENDBRANCH   7  11
ENDBRANCH   1   7
BRANCH   1  17
ATOM     17  C   UNL     1       1.675   4.200  18.358  0.00  0.00    +0.000 C 
BRANCH  17  18
ATOM     18  N   UNL     1       2.955   4.436  17.712  0.00  0.00    +0.000 N 
ATOM     19  C   UNL     1       3.954   3.488  17.587  0.00  0.00    +0.000 C 
ATOM     20  O   UNL     1       3.815   2.328  17.949  0.00  0.00    +0.000 OA
ATOM     21  H   UNL     1       3.213   5.396  17.498  0.00  0.00    +0.000 HD
BRANCH  19  22
ATOM     22  C   UNL     1       5.172   4.003  16.976  0.00  0.00    +0.000 A 
ATOM     23  O   UNL     1       5.409   3.707  15.655  0.00  0.00    +0.000 OA
ATOM     24  C   UNL     1       6.582   4.290  15.308  0.00  0.00    +0.000 A 
ATOM     25  C   UNL     1       7.114   4.968  16.375  0.00  0.00    +0.000 A 
ATOM     26  C   UNL     1       6.223   4.769  17.470  0.00  0.00    +0.000 A 
ATOM     27  C   UNL     1       6.424   5.284  18.850  0.00  0.00    +0.000 C 
ENDBRANCH  19  22
ENDBRANCH  17  18
ENDBRANCH   1  17
TORSDOF 8
ENDMDL
MODEL 2
REMARK VINA RESULT:      -7.3      0.922      1.321
REMARK  Name = 
REMARK  10 active torsions:
REMARK  status: ('A' for Active; 'I' for Inactive)
REMARK    1  A    between atoms: C_1  and  C_2
REMARK    2  A    between atoms: C_2  and  O_3
REMARK    3  A    between atoms: O_3  and  C_4
REMARK    4  A    between atoms: C_7  and  C_8
REMARK    5  A    between atoms: C_8  and  C_9
REMARK    6  A    between atoms: C_9  and  C_10
REMARK    7  A    between atoms: C_9  and  C_20
REMARK    8  A    between atoms: C_10  and  N_11
REMARK    9  A    between atoms: C_12  and  C_14
REMARK   10  A    between atoms: C_18  and  C_19
REMARK                            x       y       z     vdW  Elec       q    Type
REMARK                         _______ _______ _______ _____ _____    ______ ____
ROOT
ATOM      1  C   UNL     1       1.521   5.031  19.606  0.00  0.00    +0.000 C 
ENDROOT
BRANCH   1   2
ATOM      2  C   UNL     1       1.488   3.962  20.702  0.00  0.00    +0.000 C 
ATOM      3  N   UNL     1       0.663   2.890  20.538  0.00  0.00    +0.000 N 
ATOM      4  O   UNL     1       2.222   3.983  21.687  0.00  0.00    +0.000 OA
ATOM      5  H   UNL     1       0.060   2.727  19.744  0.00  0.00    +0.000 HD
ATOM      6  H   UNL     1       0.679   2.186  21.266  0.00  0.00    +0.000 HD
ENDBRANCH   1   2
BRANCH   1   7
ATOM      7  C   UNL     1       2.496   6.176  19.929  0.00  0.00    +0.000 C 
BRANCH   7  11
ATOM      8  C   UNL     1       0.780  10.012  18.961  0.00  0.00    +0.000 A 
ATOM      9  C   UNL     1       1.573   9.353  18.022  0.00  0.00    +0.000 A 
ATOM     10  C   UNL     1       2.191   8.139  18.343  0.00  0.00    +0.000 A 
ATOM     11  C   UNL     1       2.042   7.585  19.620  0.00  0.00    +0.000 A 
ATOM     12  C   UNL     1       1.328   8.308  20.586  0.00  0.00    +0.000 A 
ATOM     13  C   UNL     1       0.704   9.517  20.260  0.00  0.00    +0.000 A 
BRANCH   8  14
ATOM     14  O   UNL     1       0.112  11.113  18.500  0.00  0.00    +0.000 OA
BRANCH  14  16
ATOM     15  C   UNL     1      -1.933  10.213  17.645  0.00  0.00    +0.000 C 
ATOM     16  C   UNL     1      -1.304  11.103  18.702  0.00  0.00    +0.000 C 
ENDBRANCH  14  16
ENDBRANCH   8  14
ENDBRANCH   7  11
ENDBRANCH   1   7
BRANCH   1  17
ATOM     17  C   UNL     1       1.820   4.361  18.243  0.00  0.00    +0.000 C 
BRANCH  17  18
ATOM     18  N   UNL     1       3.197   4.536  17.812  0.00  0.00    +0.000 N 
ATOM     19  C   UNL     1       4.214   3.630  18.057  0.00  0.00    +0.000 C 
ATOM     20  O   UNL     1       4.023   2.551  18.600  0.00  0.00    +0.000 OA
ATOM     21  H   UNL     1       3.479   5.450  17.472  0.00  0.00    +0.000 HD
BRANCH  19  22
ATOM     22  C   UNL     1       5.519   4.083  17.595  0.00  0.00    +0.000 A 
ATOM     23  O   UNL     1       6.482   4.350  18.539  0.00  0.00    +0.000 OA
ATOM     24  C   UNL     1       7.600   4.745  17.882  0.00  0.00    +0.000 A 
ATOM     25  C   UNL     1       7.389   4.735  16.527  0.00  0.00    +0.000 A 
ATOM     26  C   UNL     1       6.036   4.331  16.329  0.00  0.00    +0.000 A 
ATOM     27  C   UNL     1       5.353   4.226  15.013  0.00  0.00    +0.000 C 
ENDBRANCH  19  22
ENDBRANCH  17  18
ENDBRANCH   1  17
TORSDOF 8
ENDMDL
MODEL 3
REMARK VINA RESULT:      -7.3      4.227      7.306
REMARK  Name = 
REMARK  10 active torsions:
REMARK  status: ('A' for Active; 'I' for Inactive)
REMARK    1  A    between atoms: C_1  and  C_2
REMARK    2  A    between atoms: C_2  and  O_3
REMARK    3  A    between atoms: O_3  and  C_4
REMARK    4  A    between atoms: C_7  and  C_8
REMARK    5  A    between atoms: C_8  and  C_9
REMARK    6  A    between atoms: C_9  and  C_10
REMARK    7  A    between atoms: C_9  and  C_20
REMARK    8  A    between atoms: C_10  and  N_11
REMARK    9  A    between atoms: C_12  and  C_14
REMARK   10  A    between atoms: C_18  and  C_19
REMARK                            x       y       z     vdW  Elec       q    Type
REMARK                         _______ _______ _______ _____ _____    ______ ____
ROOT
ATOM      1  C   UNL     1       6.623   5.936  17.877  0.00  0.00    +0.000 C 
ENDROOT
BRANCH   1   2
ATOM      2  C   UNL     1       7.605   7.105  17.997  0.00  0.00    +0.000 C 
ATOM      3  N   UNL     1       8.460   7.128  19.058  0.00  0.00    +0.000 N 
ATOM      4  O   UNL     1       7.712   7.986  17.147  0.00  0.00    +0.000 OA
ATOM      5  H   UNL     1       8.512   6.431  19.787  0.00  0.00    +0.000 HD
ATOM      6  H   UNL     1       9.115   7.899  19.100  0.00  0.00    +0.000 HD
ENDBRANCH   1   2
BRANCH   1   7
ATOM      7  C   UNL     1       7.198   4.765  17.060  0.00  0.00    +0.000 C 
BRANCH   7  11
ATOM      8  C   UNL     1       5.989   3.881  13.016  0.00  0.00    +0.000 A 
ATOM      9  C   UNL     1       7.162   4.600  13.245  0.00  0.00    +0.000 A 
ATOM     10  C   UNL     1       7.535   4.951  14.548  0.00  0.00    +0.000 A 
ATOM     11  C   UNL     1       6.720   4.610  15.634  0.00  0.00    +0.000 A 
ATOM     12  C   UNL     1       5.494   3.979  15.381  0.00  0.00    +0.000 A 
ATOM     13  C   UNL     1       5.128   3.621  14.079  0.00  0.00    +0.000 A 
BRANCH   8  14
ATOM     14  O   UNL     1       5.791   3.469  11.727  0.00  0.00    +0.000 OA
BRANCH  14  16
ATOM     15  C   UNL     1       3.665   3.629  10.639  0.00  0.00    +0.000 C 
ATOM     16  C   UNL     1       4.574   2.756  11.489  0.00  0.00    +0.000 C 
ENDBRANCH  14  16
ENDBRANCH   8  14
ENDBRANCH   7  11
ENDBRANCH   1   7
BRANCH   1  17
ATOM     17  C   UNL     1       6.159   5.507  19.288  0.00  0.00    +0.000 C 
BRANCH  17  18
ATOM     18  N   UNL     1       4.796   5.002  19.311  0.00  0.00    +0.000 N 
ATOM     19  C   UNL     1       4.457   3.673  19.491  0.00  0.00    +0.000 C 
ATOM     20  O   UNL     1       5.285   2.805  19.726  0.00  0.00    +0.000 OA
ATOM     21  H   UNL     1       4.052   5.620  18.998  0.00  0.00    +0.000 HD
BRANCH  19  22
ATOM     22  C   UNL     1       3.026   3.419  19.385  0.00  0.00    +0.000 A 
ATOM     23  O   UNL     1       2.478   3.321  18.130  0.00  0.00    +0.000 OA
ATOM     24  C   UNL     1       1.153   3.079  18.279  0.00  0.00    +0.000 A 
ATOM     25  C   UNL     1       0.825   3.010  19.609  0.00  0.00    +0.000 A 
ATOM     26  C   UNL     1       2.026   3.253  20.337  0.00  0.00    +0.000 A 
ATOM     27  C   UNL     1       2.137   3.323  21.818  0.00  0.00    +0.000 C 
ENDBRANCH  19  22
ENDBRANCH  17  18
ENDBRANCH   1  17
TORSDOF 8
ENDMDL
MODEL 4
REMARK VINA RESULT:      -7.2      4.112      5.948
REMARK  Name = 
REMARK  10 active torsions:
REMARK  status: ('A' for Active; 'I' for Inactive)
REMARK    1  A    between atoms: C_1  and  C_2
REMARK    2  A    between atoms: C_2  and  O_3
REMARK    3  A    between atoms: O_3  and  C_4
REMARK    4  A    between atoms: C_7  and  C_8
REMARK    5  A    between atoms: C_8  and  C_9
REMARK    6  A    between atoms: C_9  and  C_10
REMARK    7  A    between atoms: C_9  and  C_20
REMARK    8  A    between atoms: C_10  and  N_11
REMARK    9  A    between atoms: C_12  and  C_14
REMARK   10  A    between atoms: C_18  and  C_19
REMARK                            x       y       z     vdW  Elec       q    Type
REMARK                         _______ _______ _______ _____ _____    ______ ____
ROOT
ATOM      1  C   UNL     1       7.155   5.890  18.422  0.00  0.00    +0.000 C 
ENDROOT
BRANCH   1   2
ATOM      2  C   UNL     1       7.020   7.079  17.466  0.00  0.00    +0.000 C 
ATOM      3  N   UNL     1       7.998   8.027  17.469  0.00  0.00    +0.000 N 
ATOM      4  O   UNL     1       6.112   7.184  16.645  0.00  0.00    +0.000 OA
ATOM      5  H   UNL     1       8.823   8.020  18.051  0.00  0.00    +0.000 HD
ATOM      6  H   UNL     1       7.896   8.790  16.810  0.00  0.00    +0.000 HD
ENDBRANCH   1   2
BRANCH   1   7
ATOM      7  C   UNL     1       5.895   5.675  19.278  0.00  0.00    +0.000 C 
BRANCH   7  11
ATOM      8  C   UNL     1       2.667   3.047  18.150  0.00  0.00    +0.000 A 
ATOM      9  C   UNL     1       3.744   2.545  18.880  0.00  0.00    +0.000 A 
ATOM     10  C   UNL     1       4.830   3.368  19.199  0.00  0.00    +0.000 A 
ATOM     11  C   UNL     1       4.861   4.699  18.763  0.00  0.00    +0.000 A 
ATOM     12  C   UNL     1       3.822   5.161  17.943  0.00  0.00    +0.000 A 
ATOM     13  C   UNL     1       2.734   4.339  17.634  0.00  0.00    +0.000 A 
BRANCH   8  14
ATOM     14  O   UNL     1       1.600   2.202  18.016  0.00  0.00    +0.000 OA
BRANCH  14  16
ATOM     15  C   UNL     1       0.946   3.120  20.126  0.00  0.00    +0.000 C 
ATOM     16  C   UNL     1       0.459   2.520  18.818  0.00  0.00    +0.000 C 
ENDBRANCH  14  16
ENDBRANCH   8  14
ENDBRANCH   7  11
ENDBRANCH   1   7
BRANCH   1  17
ATOM     17  C   UNL     1       7.552   4.628  17.619  0.00  0.00    +0.000 C 
BRANCH  17  18
ATOM     18  N   UNL     1       7.606   4.859  16.185  0.00  0.00    +0.000 N 
ATOM     19  C   UNL     1       6.768   4.255  15.264  0.00  0.00    +0.000 C 
ATOM     20  O   UNL     1       5.846   3.520  15.590  0.00  0.00    +0.000 OA
ATOM     21  H   UNL     1       8.413   5.348  15.809  0.00  0.00    +0.000 HD
BRANCH  19  22
ATOM     22  C   UNL     1       7.086   4.590  13.882  0.00  0.00    +0.000 A 
ATOM     23  O   UNL     1       8.014   5.576  13.653  0.00  0.00    +0.000 OA
ATOM     24  C   UNL     1       8.149   5.707  12.311  0.00  0.00    +0.000 A 
ATOM     25  C   UNL     1       7.330   4.822  11.657  0.00  0.00    +0.000 A 
ATOM     26  C   UNL     1       6.617   4.109  12.665  0.00  0.00    +0.000 A 
ATOM     27  C   UNL     1       5.576   3.076  12.416  0.00  0.00    +0.000 C 
ENDBRANCH  19  22
ENDBRANCH  17  18
ENDBRANCH   1  17
TORSDOF 8
ENDMDL
MODEL 5
REMARK VINA RESULT:      -7.0      3.281      5.910
REMARK  Name = 
REMARK  10 active torsions:
REMARK  status: ('A' for Active; 'I' for Inactive)
REMARK    1  A    between atoms: C_1  and  C_2
REMARK    2  A    between atoms: C_2  and  O_3
REMARK    3  A    between atoms: O_3  and  C_4
REMARK    4  A    between atoms: C_7  and  C_8
REMARK    5  A    between atoms: C_8  and  C_9
REMARK    6  A    between atoms: C_9  and  C_10
REMARK    7  A    between atoms: C_9  and  C_20
REMARK    8  A    between atoms: C_10  and  N_11
REMARK    9  A    between atoms: C_12  and  C_14
REMARK   10  A    between atoms: C_18  and  C_19
REMARK                            x       y       z     vdW  Elec       q    Type
REMARK                         _______ _______ _______ _____ _____    ______ ____
ROOT
ATOM      1  C   UNL     1       5.646   4.911  16.382  0.00  0.00    +0.000 C 
ENDROOT
BRANCH   1   2
ATOM      2  C   UNL     1       6.696   4.548  17.436  0.00  0.00    +0.000 C 
ATOM      3  N   UNL     1       6.276   3.998  18.609  0.00  0.00    +0.000 N 
ATOM      4  O   UNL     1       7.906   4.660  17.248  0.00  0.00    +0.000 OA
ATOM      5  H   UNL     1       5.317   3.799  18.855  0.00  0.00    +0.000 HD
ATOM      6  H   UNL     1       6.993   3.745  19.278  0.00  0.00    +0.000 HD
ENDBRANCH   1   2
BRANCH   1   7
ATOM      7  C   UNL     1       4.714   6.045  16.845  0.00  0.00    +0.000 C 
BRANCH   7  11
ATOM      8  C   UNL     1       1.680   4.728  19.613  0.00  0.00    +0.000 A 
ATOM      9  C   UNL     1       1.800   4.105  18.371  0.00  0.00    +0.000 A 
ATOM     10  C   UNL     1       2.736   4.562  17.436  0.00  0.00    +0.000 A 
ATOM     11  C   UNL     1       3.544   5.669  17.725  0.00  0.00    +0.000 A 
ATOM     12  C   UNL     1       3.342   6.349  18.935  0.00  0.00    +0.000 A 
ATOM     13  C   UNL     1       2.412   5.884  19.871  0.00  0.00    +0.000 A 
BRANCH   8  14
ATOM     14  O   UNL     1       0.838   4.117  20.501  0.00  0.00    +0.000 OA
BRANCH  14  16
ATOM     15  C   UNL     1       2.339   2.766  21.785  0.00  0.00    +0.000 C 
ATOM     16  C   UNL     1       1.163   2.762  20.823  0.00  0.00    +0.000 C 
ENDBRANCH  14  16
ENDBRANCH   8  14
ENDBRANCH   7  11
ENDBRANCH   1   7
BRANCH   1  17
ATOM     17  C   UNL     1       6.350   5.228  15.042  0.00  0.00    +0.000 C 
BRANCH  17  18
ATOM     18  N   UNL     1       6.227   4.157  14.067  0.00  0.00    +0.000 N 
ATOM     19  C   UNL     1       6.827   4.163  12.820  0.00  0.00    +0.000 C 
ATOM     20  O   UNL     1       7.586   5.049  12.455  0.00  0.00    +0.000 OA
ATOM     21  H   UNL     1       5.520   3.445  14.225  0.00  0.00    +0.000 HD
BRANCH  19  22
ATOM     22  C   UNL     1       6.475   3.010  12.001  0.00  0.00    +0.000 A 
ATOM     23  O   UNL     1       7.471   2.124  11.669  0.00  0.00    +0.000 OA
ATOM     24  C   UNL     1       6.914   1.143  10.919  0.00  0.00    +0.000 A 
ATOM     25  C   UNL     1       5.571   1.367  10.758  0.00  0.00    +0.000 A 
ATOM     26  C   UNL     1       5.278   2.588  11.433  0.00  0.00    +0.000 A 
ATOM     27  C   UNL     1       3.947   3.248  11.482  0.00  0.00    +0.000 C 
ENDBRANCH  19  22
ENDBRANCH  17  18
ENDBRANCH   1  17
TORSDOF 8
ENDMDL
MODEL 6
REMARK VINA RESULT:      -7.0      3.666      7.572
REMARK  Name = 
REMARK  10 active torsions:
REMARK  status: ('A' for Active; 'I' for Inactive)
REMARK    1  A    between atoms: C_1  and  C_2
REMARK    2  A    between atoms: C_2  and  O_3
REMARK    3  A    between atoms: O_3  and  C_4
REMARK    4  A    between atoms: C_7  and  C_8
REMARK    5  A    between atoms: C_8  and  C_9
REMARK    6  A    between atoms: C_9  and  C_10
REMARK    7  A    between atoms: C_9  and  C_20
REMARK    8  A    between atoms: C_10  and  N_11
REMARK    9  A    between atoms: C_12  and  C_14
REMARK   10  A    between atoms: C_18  and  C_19
REMARK                            x       y       z     vdW  Elec       q    Type
REMARK                         _______ _______ _______ _____ _____    ______ ____
ROOT
ATOM      1  C   UNL     1       6.622   5.790  17.853  0.00  0.00    +0.000 C 
ENDROOT
BRANCH   1   2
ATOM      2  C   UNL     1       7.583   6.971  18.015  0.00  0.00    +0.000 C 
ATOM      3  N   UNL     1       7.478   8.017  17.149  0.00  0.00    +0.000 N 
ATOM      4  O   UNL     1       8.396   7.057  18.933  0.00  0.00    +0.000 OA
ATOM      5  H   UNL     1       6.810   8.092  16.395  0.00  0.00    +0.000 HD
ATOM      6  H   UNL     1       8.110   8.795  17.295  0.00  0.00    +0.000 HD
ENDBRANCH   1   2
BRANCH   1   7
ATOM      7  C   UNL     1       7.217   4.659  16.996  0.00  0.00    +0.000 C 
BRANCH   7  11
ATOM      8  C   UNL     1       5.924   3.819  12.968  0.00  0.00    +0.000 A 
ATOM      9  C   UNL     1       7.112   4.519  13.182  0.00  0.00    +0.000 A 
ATOM     10  C   UNL     1       7.513   4.856  14.479  0.00  0.00    +0.000 A 
ATOM     11  C   UNL     1       6.712   4.520  15.578  0.00  0.00    +0.000 A 
ATOM     12  C   UNL     1       5.473   3.908  15.342  0.00  0.00    +0.000 A 
ATOM     13  C   UNL     1       5.079   3.564  14.045  0.00  0.00    +0.000 A 
BRANCH   8  14
ATOM     14  O   UNL     1       5.698   3.419  11.680  0.00  0.00    +0.000 OA
BRANCH  14  16
ATOM     15  C   UNL     1       6.997   1.507  11.060  0.00  0.00    +0.000 C 
ATOM     16  C   UNL     1       5.624   2.004  11.480  0.00  0.00    +0.000 C 
ENDBRANCH  14  16
ENDBRANCH   8  14
ENDBRANCH   7  11
ENDBRANCH   1   7
BRANCH   1  17
ATOM     17  C   UNL     1       6.164   5.303  19.248  0.00  0.00    +0.000 C 
BRANCH  17  18
ATOM     18  N   UNL     1       4.787   4.837  19.265  0.00  0.00    +0.000 N 
ATOM     19  C   UNL     1       4.406   3.536  19.542  0.00  0.00    +0.000 C 
ATOM     20  O   UNL     1       5.202   2.670  19.876  0.00  0.00    +0.000 OA
ATOM     21  H   UNL     1       4.072   5.445  18.878  0.00  0.00    +0.000 HD
BRANCH  19  22
ATOM     22  C   UNL     1       2.973   3.310  19.410  0.00  0.00    +0.000 A 
ATOM     23  O   UNL     1       2.554   2.248  18.645  0.00  0.00    +0.000 OA
ATOM     24  C   UNL     1       1.200   2.233  18.673  0.00  0.00    +0.000 A 
ATOM     25  C   UNL     1       0.724   3.261  19.445  0.00  0.00    +0.000 A 
ATOM     26  C   UNL     1       1.863   3.982  19.909  0.00  0.00    +0.000 A 
ATOM     27  C   UNL     1       1.823   5.212  20.744  0.00  0.00    +0.000 C 
ENDBRANCH  19  22
ENDBRANCH  17  18
ENDBRANCH   1  17
TORSDOF 8
ENDMDL
MODEL 7
REMARK VINA RESULT:      -7.0      2.100      4.894
REMARK  Name = 
REMARK  10 active torsions:
REMARK  status: ('A' for Active; 'I' for Inactive)
REMARK    1  A    between atoms: C_1  and  C_2
REMARK    2  A    between atoms: C_2  and  O_3
REMARK    3  A    between atoms: O_3  and  C_4
REMARK    4  A    between atoms: C_7  and  C_8
REMARK    5  A    between atoms: C_8  and  C_9
REMARK    6  A    between atoms: C_9  and  C_10
REMARK    7  A    between atoms: C_9  and  C_20
REMARK    8  A    between atoms: C_10  and  N_11
REMARK    9  A    between atoms: C_12  and  C_14
REMARK   10  A    between atoms: C_18  and  C_19
REMARK                            x       y       z     vdW  Elec       q    Type
REMARK                         _______ _______ _______ _____ _____    ______ ____
ROOT
ATOM      1  C   UNL     1       5.536   6.309  17.708  0.00  0.00    +0.000 C 
ENDROOT
BRANCH   1   2
ATOM      2  C   UNL     1       6.847   6.770  17.066  0.00  0.00    +0.000 C 
ATOM      3  N   UNL     1       7.480   5.925  16.204  0.00  0.00    +0.000 N 
ATOM      4  O   UNL     1       7.321   7.892  17.231  0.00  0.00    +0.000 OA
ATOM      5  H   UNL     1       7.158   5.005  15.940  0.00  0.00    +0.000 HD
ATOM      6  H   UNL     1       8.332   6.265  15.775  0.00  0.00    +0.000 HD
ENDBRANCH   1   2
BRANCH   1   7
ATOM      7  C   UNL     1       4.299   6.904  17.014  0.00  0.00    +0.000 C 
BRANCH   7  11
ATOM      8  C   UNL     1       1.433   8.674  19.708  0.00  0.00    +0.000 A 
ATOM      9  C   UNL     1       2.019   7.449  20.029  0.00  0.00    +0.000 A 
ATOM     10  C   UNL     1       2.901   6.829  19.136  0.00  0.00    +0.000 A 
ATOM     11  C   UNL     1       3.185   7.419  17.898  0.00  0.00    +0.000 A 
ATOM     12  C   UNL     1       2.511   8.597  17.545  0.00  0.00    +0.000 A 
ATOM     13  C   UNL     1       1.637   9.218  18.443  0.00  0.00    +0.000 A 
BRANCH   8  14
ATOM     14  O   UNL     1       0.701   9.256  20.706  0.00  0.00    +0.000 OA
BRANCH  14  16
ATOM     15  C   UNL     1       0.111   9.556  23.005  0.00  0.00    +0.000 C 
ATOM     16  C   UNL     1       1.073   8.889  22.037  0.00  0.00    +0.000 C 
ENDBRANCH  14  16
ENDBRANCH   8  14
ENDBRANCH   7  11
ENDBRANCH   1   7
BRANCH   1  17
ATOM     17  C   UNL     1       5.504   4.763  17.760  0.00  0.00    +0.000 C 
BRANCH  17  18
ATOM     18  N   UNL     1       4.593   4.246  18.768  0.00  0.00    +0.000 N 
ATOM     19  C   UNL     1       3.755   3.161  18.581  0.00  0.00    +0.000 C 
ATOM     20  O   UNL     1       3.763   2.486  17.561  0.00  0.00    +0.000 OA
ATOM     21  H   UNL     1       4.422   4.812  19.594  0.00  0.00    +0.000 HD
BRANCH  19  22
ATOM     22  C   UNL     1       2.880   2.900  19.716  0.00  0.00    +0.000 A 
ATOM     23  O   UNL     1       3.418   2.973  20.978  0.00  0.00    +0.000 OA
ATOM     24  C   UNL     1       2.428   2.702  21.862  0.00  0.00    +0.000 A 
ATOM     25  C   UNL     1       1.250   2.458  21.203  0.00  0.00    +0.000 A 
ATOM     26  C   UNL     1       1.535   2.559  19.810  0.00  0.00    +0.000 A 
ATOM     27  C   UNL     1       0.561   2.322  18.712  0.00  0.00    +0.000 C 
ENDBRANCH  19  22
ENDBRANCH  17  18
ENDBRANCH   1  17
TORSDOF 8
ENDMDL
MODEL 8
REMARK VINA RESULT:      -7.0      1.153      1.663
REMARK  Name = 
REMARK  10 active torsions:
REMARK  status: ('A' for Active; 'I' for Inactive)
REMARK    1  A    between atoms: C_1  and  C_2
REMARK    2  A    between atoms: C_2  and  O_3
REMARK    3  A    between atoms: O_3  and  C_4
REMARK    4  A    between atoms: C_7  and  C_8
REMARK    5  A    between atoms: C_8  and  C_9
REMARK    6  A    between atoms: C_9  and  C_10
REMARK    7  A    between atoms: C_9  and  C_20
REMARK    8  A    between atoms: C_10  and  N_11
REMARK    9  A    between atoms: C_12  and  C_14
REMARK   10  A    between atoms: C_18  and  C_19
REMARK                            x       y       z     vdW  Elec       q    Type
REMARK                         _______ _______ _______ _____ _____    ______ ____
ROOT
ATOM      1  C   UNL     1       1.695   4.809  19.711  0.00  0.00    +0.000 C 
ENDROOT
BRANCH   1   2
ATOM      2  C   UNL     1       1.869   3.566  20.589  0.00  0.00    +0.000 C 
ATOM      3  N   UNL     1       0.752   2.917  21.022  0.00  0.00    +0.000 N 
ATOM      4  O   UNL     1       2.965   3.082  20.862  0.00  0.00    +0.000 OA
ATOM      5  H   UNL     1      -0.200   3.179  20.813  0.00  0.00    +0.000 HD
ATOM      6  H   UNL     1       0.897   2.084  21.580  0.00  0.00    +0.000 HD
ENDBRANCH   1   2
BRANCH   1   7
ATOM      7  C   UNL     1       2.602   5.972  20.149  0.00  0.00    +0.000 C 
BRANCH   7  11
ATOM      8  C   UNL     1       0.931   9.783  19.018  0.00  0.00    +0.000 A 
ATOM      9  C   UNL     1       1.755   9.097  18.125  0.00  0.00    +0.000 A 
ATOM     10  C   UNL     1       2.358   7.891  18.501  0.00  0.00    +0.000 A 
ATOM     11  C   UNL     1       2.163   7.373  19.787  0.00  0.00    +0.000 A 
ATOM     12  C   UNL     1       1.417   8.123  20.707  0.00  0.00    +0.000 A 
ATOM     13  C   UNL     1       0.809   9.323  20.326  0.00  0.00    +0.000 A 
BRANCH   8  14
ATOM     14  O   UNL     1       0.283  10.873  18.504  0.00  0.00    +0.000 OA
BRANCH  14  16
ATOM     15  C   UNL     1       1.772  12.744  18.601  0.00  0.00    +0.000 C 
ATOM     16  C   UNL     1       0.522  12.108  19.186  0.00  0.00    +0.000 C 
ENDBRANCH  14  16
ENDBRANCH   8  14
ENDBRANCH   7  11
ENDBRANCH   1   7
BRANCH   1  17
ATOM     17  C   UNL     1       1.897   4.423  18.227  0.00  0.00    +0.000 C 
BRANCH  17  18
ATOM     18  N   UNL     1       3.265   4.608  17.771  0.00  0.00    +0.000 N 
ATOM     19  C   UNL     1       4.166   3.579  17.565  0.00  0.00    +0.000 C 
ATOM     20  O   UNL     1       3.861   2.400  17.678  0.00  0.00    +0.000 OA
ATOM     21  H   UNL     1       3.647   5.549  17.775  0.00  0.00    +0.000 HD
BRANCH  19  22
ATOM     22  C   UNL     1       5.498   4.038  17.192  0.00  0.00    +0.000 A 
ATOM     23  O   UNL     1       6.410   4.261  18.195  0.00  0.00    +0.000 OA
ATOM     24  C   UNL     1       7.564   4.670  17.615  0.00  0.00    +0.000 A 
ATOM     25  C   UNL     1       7.427   4.714  16.251  0.00  0.00    +0.000 A 
ATOM     26  C   UNL     1       6.084   4.330  15.965  0.00  0.00    +0.000 A 
ATOM     27  C   UNL     1       5.471   4.281  14.611  0.00  0.00    +0.000 C 
ENDBRANCH  19  22
ENDBRANCH  17  18
ENDBRANCH   1  17
TORSDOF 8
ENDMDL
MODEL 9
REMARK VINA RESULT:      -6.8      3.772      6.232
REMARK  Name = 
REMARK  10 active torsions:
REMARK  status: ('A' for Active; 'I' for Inactive)
REMARK    1  A    between atoms: C_1  and  C_2
REMARK    2  A    between atoms: C_2  and  O_3
REMARK    3  A    between atoms: O_3  and  C_4
REMARK    4  A    between atoms: C_7  and  C_8
REMARK    5  A    between atoms: C_8  and  C_9
REMARK    6  A    between atoms: C_9  and  C_10
REMARK    7  A    between atoms: C_9  and  C_20
REMARK    8  A    between atoms: C_10  and  N_11
REMARK    9  A    between atoms: C_12  and  C_14
REMARK   10  A    between atoms: C_18  and  C_19
REMARK                            x       y       z     vdW  Elec       q    Type
REMARK                         _______ _______ _______ _____ _____    ______ ____
ROOT
ATOM      1  C   UNL     1       6.416   4.589  16.648  0.00  0.00    +0.000 C 
ENDROOT
BRANCH   1   2
ATOM      2  C   UNL     1       7.351   5.170  17.712  0.00  0.00    +0.000 C 
ATOM      3  N   UNL     1       7.287   6.505  17.973  0.00  0.00    +0.000 N 
ATOM      4  O   UNL     1       8.105   4.480  18.396  0.00  0.00    +0.000 OA
ATOM      5  H   UNL     1       6.666   7.163  17.525  0.00  0.00    +0.000 HD
ATOM      6  H   UNL     1       7.899   6.858  18.699  0.00  0.00    +0.000 HD
ENDBRANCH   1   2
BRANCH   1   7
ATOM      7  C   UNL     1       5.118   5.401  16.496  0.00  0.00    +0.000 C 
BRANCH   7  11
ATOM      8  C   UNL     1       1.841   3.788  18.789  0.00  0.00    +0.000 A 
ATOM      9  C   UNL     1       2.478   2.991  17.839  0.00  0.00    +0.000 A 
ATOM     10  C   UNL     1       3.500   3.518  17.041  0.00  0.00    +0.000 A 
ATOM     11  C   UNL     1       3.876   4.861  17.168  0.00  0.00    +0.000 A 
ATOM     12  C   UNL     1       3.158   5.678  18.053  0.00  0.00    +0.000 A 
ATOM     13  C   UNL     1       2.143   5.146  18.855  0.00  0.00    +0.000 A 
BRANCH   8  14
ATOM     14  O   UNL     1       0.958   3.139  19.608  0.00  0.00    +0.000 OA
BRANCH  14  16
ATOM     15  C   UNL     1       2.324   2.635  21.507  0.00  0.00    +0.000 C 
ATOM     16  C   UNL     1       1.111   3.401  21.007  0.00  0.00    +0.000 C 
ENDBRANCH  14  16
ENDBRANCH   8  14
ENDBRANCH   7  11
ENDBRANCH   1   7
BRANCH   1  17
ATOM     17  C   UNL     1       7.185   4.440  15.314  0.00  0.00    +0.000 C 
BRANCH  17  18
ATOM     18  N   UNL     1       6.397   3.805  14.270  0.00  0.00    +0.000 N 
ATOM     19  C   UNL     1       6.614   3.974  12.914  0.00  0.00    +0.000 C 
ATOM     20  O   UNL     1       7.551   4.624  12.470  0.00  0.00    +0.000 OA
ATOM     21  H   UNL     1       5.526   3.355  14.535  0.00  0.00    +0.000 HD
BRANCH  19  22
ATOM     22  C   UNL     1       5.632   3.297  12.079  0.00  0.00    +0.000 A 
ATOM     23  O   UNL     1       4.384   3.859  11.962  0.00  0.00    +0.000 OA
ATOM     24  C   UNL     1       3.653   3.067  11.141  0.00  0.00    +0.000 A 
ATOM     25  C   UNL     1       4.400   1.999  10.714  0.00  0.00    +0.000 A 
ATOM     26  C   UNL     1       5.677   2.123  11.334  0.00  0.00    +0.000 A 
ATOM     27  C   UNL     1       6.799   1.157  11.197  0.00  0.00    +0.000 C 
ENDBRANCH  19  22
ENDBRANCH  17  18
ENDBRANCH   1  17
TORSDOF 8
ENDMDL
