MODEL 1
REMARK VINA RESULT:      -6.9      0.000      0.000
REMARK  Name = 
REMARK  4 active torsions:
REMARK  status: ('A' for Active; 'I' for Inactive)
REMARK    1  A    between atoms: C_1  and  C_2
REMARK    2  A    between atoms: C_2  and  C_3
REMARK    3  A    between atoms: C_2  and  O_4
REMARK    4  A    between atoms: O_4  and  C_5
REMARK                            x       y       z     vdW  Elec       q    Type
REMARK                         _______ _______ _______ _____ _____    ______ ____
ROOT
ATOM      1  C   UNL     1       4.867   4.072  17.976  0.00  0.00    +0.000 A 
ATOM      2  C   UNL     1       5.283   4.569  19.209  0.00  0.00    +0.000 A 
ATOM      3  C   UNL     1       6.380   5.419  19.251  0.00  0.00    +0.000 A 
ATOM      4  N   UNL     1       7.091   5.793  18.170  0.00  0.00    +0.000 NA
ATOM      5  C   UNL     1       6.694   5.286  16.990  0.00  0.00    +0.000 A 
ATOM      6  N   UNL     1       7.454   5.636  15.885  0.00  0.00    +0.000 N 
ATOM      7  C   UNL     1       7.220   5.167  14.615  0.00  0.00    +0.000 A 
ATOM      8  O   UNL     1       7.952   5.453  13.675  0.00  0.00    +0.000 OA
ATOM      9  C   UNL     1       5.985   4.245  14.432  0.00  0.00    +0.000 A 
ATOM     10  O   UNL     1       5.682   3.799  13.332  0.00  0.00    +0.000 OA
ATOM     11  N   UNL     1       5.259   3.951  15.565  0.00  0.00    +0.000 N 
ATOM     12  C   UNL     1       5.598   4.436  16.838  0.00  0.00    +0.000 A 
ATOM     13  H   UNL     1       8.249   6.238  16.038  0.00  0.00    +0.000 HD
ATOM     14  H   UNL     1       4.458   3.340  15.465  0.00  0.00    +0.000 HD
ENDROOT
BRANCH   1  15
ATOM     15  O   UNL     1       3.788   3.246  17.778  0.00  0.00    +0.000 OA
BRANCH  15  17
ATOM     16  C   UNL     1       1.636   4.299  17.724  0.00  0.00    +0.000 C 
ATOM     17  C   UNL     1       2.598   3.454  18.555  0.00  0.00    +0.000 C 
ATOM     18  C   UNL     1       1.960   2.109  18.894  0.00  0.00    +0.000 C 
ENDBRANCH  15  17
ENDBRANCH   1  15
TORSDOF 2
ENDMDL
MODEL 2
REMARK VINA RESULT:      -6.5      2.465      3.151
REMARK  Name = 
REMARK  4 active torsions:
REMARK  status: ('A' for Active; 'I' for Inactive)
REMARK    1  A    between atoms: C_1  and  C_2
REMARK    2  A    between atoms: C_2  and  C_3
REMARK    3  A    between atoms: C_2  and  O_4
REMARK    4  A    between atoms: O_4  and  C_5
REMARK                            x       y       z     vdW  Elec       q    Type
REMARK                         _______ _______ _______ _____ _____    ______ ____
ROOT
ATOM      1  C   UNL     1       3.421   5.205  19.265  0.00  0.00    +0.000 A 
ATOM      2  C   UNL     1       2.334   6.073  19.201  0.00  0.00    +0.000 A 
ATOM      3  C   UNL     1       2.417   7.188  18.378  0.00  0.00    +0.000 A 
ATOM      4  N   UNL     1       3.495   7.502  17.634  0.00  0.00    +0.000 NA
ATOM      5  C   UNL     1       4.546   6.668  17.724  0.00  0.00    +0.000 A 
ATOM      6  N   UNL     1       5.671   7.018  16.994  0.00  0.00    +0.000 N 
ATOM      7  C   UNL     1       6.847   6.307  17.012  0.00  0.00    +0.000 A 
ATOM      8  O   UNL     1       7.838   6.683  16.398  0.00  0.00    +0.000 OA
ATOM      9  C   UNL     1       6.860   5.008  17.860  0.00  0.00    +0.000 A 
ATOM     10  O   UNL     1       7.855   4.297  17.917  0.00  0.00    +0.000 OA
ATOM     11  N   UNL     1       5.706   4.706  18.547  0.00  0.00    +0.000 N 
ATOM     12  C   UNL     1       4.559   5.516  18.511  0.00  0.00    +0.000 A 
ATOM     13  H   UNL     1       5.629   7.867  16.451  0.00  0.00    +0.000 HD
ATOM     14  H   UNL     1       5.702   3.868  19.116  0.00  0.00    +0.000 HD
ENDROOT
BRANCH   1  15
ATOM     15  O   UNL     1       3.474   4.053  20.013  0.00  0.00    +0.000 OA
BRANCH  15  17
ATOM     16  C   UNL     1       2.355   2.096  19.199  0.00  0.00    +0.000 C 
ATOM     17  C   UNL     1       2.279   3.270  20.171  0.00  0.00    +0.000 C 
ATOM     18  C   UNL     1       2.183   2.759  21.607  0.00  0.00    +0.000 C 
ENDBRANCH  15  17
ENDBRANCH   1  15
TORSDOF 2
ENDMDL
MODEL 3
REMARK VINA RESULT:      -6.5      2.741      3.504
REMARK  Name = 
REMARK  4 active torsions:
REMARK  status: ('A' for Active; 'I' for Inactive)
REMARK    1  A    between atoms: C_1  and  C_2
REMARK    2  A    between atoms: C_2  and  C_3
REMARK    3  A    between atoms: C_2  and  O_4
REMARK    4  A    between atoms: O_4  and  C_5
REMARK                            x       y       z     vdW  Elec       q    Type
REMARK                         _______ _______ _______ _____ _____    ______ ____
ROOT
ATOM      1  C   UNL     1       3.000   5.120  19.006  0.00  0.00    +0.000 A 
ATOM      2  C   UNL     1       2.621   4.126  19.906  0.00  0.00    +0.000 A 
ATOM      3  C   UNL     1       3.534   3.128  20.221  0.00  0.00    +0.000 A 
ATOM      4  N   UNL     1       4.774   3.044  19.702  0.00  0.00    +0.000 NA
ATOM      5  C   UNL     1       5.117   3.996  18.817  0.00  0.00    +0.000 A 
ATOM      6  N   UNL     1       6.376   3.881  18.249  0.00  0.00    +0.000 N 
ATOM      7  C   UNL     1       6.865   4.736  17.291  0.00  0.00    +0.000 A 
ATOM      8  O   UNL     1       7.961   4.565  16.771  0.00  0.00    +0.000 OA
ATOM      9  C   UNL     1       5.953   5.925  16.891  0.00  0.00    +0.000 A 
ATOM     10  O   UNL     1       6.314   6.753  16.064  0.00  0.00    +0.000 OA
ATOM     11  N   UNL     1       4.722   5.994  17.504  0.00  0.00    +0.000 N 
ATOM     12  C   UNL     1       4.280   5.047  18.442  0.00  0.00    +0.000 A 
ATOM     13  H   UNL     1       6.946   3.097  18.532  0.00  0.00    +0.000 HD
ATOM     14  H   UNL     1       4.109   6.757  17.245  0.00  0.00    +0.000 HD
ENDROOT
BRANCH   1  15
ATOM     15  O   UNL     1       2.216   6.179  18.619  0.00  0.00    +0.000 OA
BRANCH  15  17
ATOM     16  C   UNL     1       2.119   8.527  18.147  0.00  0.00    +0.000 C 
ATOM     17  C   UNL     1       2.458   7.473  19.197  0.00  0.00    +0.000 C 
ATOM     18  C   UNL     1       1.580   7.659  20.433  0.00  0.00    +0.000 C 
ENDBRANCH  15  17
ENDBRANCH   1  15
TORSDOF 2
ENDMDL
MODEL 4
REMARK VINA RESULT:      -6.5      2.318      2.889
REMARK  Name = 
REMARK  4 active torsions:
REMARK  status: ('A' for Active; 'I' for Inactive)
REMARK    1  A    between atoms: C_1  and  C_2
REMARK    2  A    between atoms: C_2  and  C_3
REMARK    3  A    between atoms: C_2  and  O_4
REMARK    4  A    between atoms: O_4  and  C_5
REMARK                            x       y       z     vdW  Elec       q    Type
REMARK                         _______ _______ _______ _____ _____    ______ ____
ROOT
ATOM      1  C   UNL     1       3.766   4.499  19.201  0.00  0.00    +0.000 A 
ATOM      2  C   UNL     1       2.603   5.264  19.256  0.00  0.00    +0.000 A 
ATOM      3  C   UNL     1       2.548   6.448  18.533  0.00  0.00    +0.000 A 
ATOM      4  N   UNL     1       3.560   6.925  17.781  0.00  0.00    +0.000 NA
ATOM      5  C   UNL     1       4.684   6.189  17.757  0.00  0.00    +0.000 A 
ATOM      6  N   UNL     1       5.738   6.704  17.020  0.00  0.00    +0.000 N 
ATOM      7  C   UNL     1       6.974   6.108  16.930  0.00  0.00    +0.000 A 
ATOM      8  O   UNL     1       7.898   6.626  16.316  0.00  0.00    +0.000 OA
ATOM      9  C   UNL     1       7.142   4.748  17.657  0.00  0.00    +0.000 A 
ATOM     10  O   UNL     1       8.199   4.131  17.614  0.00  0.00    +0.000 OA
ATOM     11  N   UNL     1       6.052   4.281  18.357  0.00  0.00    +0.000 N 
ATOM     12  C   UNL     1       4.837   4.980  18.436  0.00  0.00    +0.000 A 
ATOM     13  H   UNL     1       5.596   7.589  16.557  0.00  0.00    +0.000 HD
ATOM     14  H   UNL     1       6.149   3.401  18.848  0.00  0.00    +0.000 HD
ENDROOT
BRANCH   1  15
ATOM     15  O   UNL     1       3.956   3.299  19.840  0.00  0.00    +0.000 OA
BRANCH  15  17
ATOM     16  C   UNL     1       1.782   2.305  20.012  0.00  0.00    +0.000 C 
ATOM     17  C   UNL     1       3.184   2.159  19.427  0.00  0.00    +0.000 C 
ATOM     18  C   UNL     1       3.116   2.106  17.903  0.00  0.00    +0.000 C 
ENDBRANCH  15  17
ENDBRANCH   1  15
TORSDOF 2
ENDMDL
MODEL 5
REMARK VINA RESULT:      -6.5      2.929      4.022
REMARK  Name = 
REMARK  4 active torsions:
REMARK  status: ('A' for Active; 'I' for Inactive)
REMARK    1  A    between atoms: C_1  and  C_2
REMARK    2  A    between atoms: C_2  and  C_3
REMARK    3  A    between atoms: C_2  and  O_4
REMARK    4  A    between atoms: O_4  and  C_5
REMARK                            x       y       z     vdW  Elec       q    Type
REMARK                         _______ _______ _______ _____ _____    ______ ____
ROOT
ATOM      1  C   UNL     1       3.226   6.296  17.943  0.00  0.00    +0.000 A 
ATOM      2  C   UNL     1       2.202   5.373  18.143  0.00  0.00    +0.000 A 
ATOM      3  C   UNL     1       2.506   4.019  18.095  0.00  0.00    +0.000 A 
ATOM      4  N   UNL     1       3.736   3.525  17.853  0.00  0.00    +0.000 NA
ATOM      5  C   UNL     1       4.709   4.428  17.638  0.00  0.00    +0.000 A 
ATOM      6  N   UNL     1       5.964   3.918  17.344  0.00  0.00    +0.000 N 
ATOM      7  C   UNL     1       7.056   4.697  17.048  0.00  0.00    +0.000 A 
ATOM      8  O   UNL     1       8.134   4.206  16.734  0.00  0.00    +0.000 OA
ATOM      9  C   UNL     1       6.854   6.234  17.119  0.00  0.00    +0.000 A 
ATOM     10  O   UNL     1       7.776   7.007  16.895  0.00  0.00    +0.000 OA
ATOM     11  N   UNL     1       5.588   6.676  17.435  0.00  0.00    +0.000 N 
ATOM     12  C   UNL     1       4.512   5.809  17.677  0.00  0.00    +0.000 A 
ATOM     13  H   UNL     1       6.063   2.915  17.308  0.00  0.00    +0.000 HD
ATOM     14  H   UNL     1       5.435   7.677  17.472  0.00  0.00    +0.000 HD
ENDROOT
BRANCH   1  15
ATOM     15  O   UNL     1       3.082   7.661  17.986  0.00  0.00    +0.000 OA
BRANCH  15  17
ATOM     16  C   UNL     1       1.826   8.218  19.951  0.00  0.00    +0.000 C 
ATOM     17  C   UNL     1       1.831   8.217  18.425  0.00  0.00    +0.000 C 
ATOM     18  C   UNL     1       1.684   9.642  17.896  0.00  0.00    +0.000 C 
ENDBRANCH  15  17
ENDBRANCH   1  15
TORSDOF 2
ENDMDL
MODEL 6
REMARK VINA RESULT:      -6.4      1.695      4.789
REMARK  Name = 
REMARK  4 active torsions:
REMARK  status: ('A' for Active; 'I' for Inactive)
REMARK    1  A    between atoms: C_1  and  C_2
REMARK    2  A    between atoms: C_2  and  C_3
REMARK    3  A    between atoms: C_2  and  O_4
REMARK    4  A    between atoms: O_4  and  C_5
REMARK                            x       y       z     vdW  Elec       q    Type
REMARK                         _______ _______ _______ _____ _____    ______ ____
ROOT
ATOM      1  C   UNL     1       6.192   5.258  16.494  0.00  0.00    +0.000 A 
ATOM      2  C   UNL     1       7.289   5.866  17.100  0.00  0.00    +0.000 A 
ATOM      3  C   UNL     1       7.449   5.738  18.473  0.00  0.00    +0.000 A 
ATOM      4  N   UNL     1       6.600   5.068  19.277  0.00  0.00    +0.000 NA
ATOM      5  C   UNL     1       5.534   4.507  18.682  0.00  0.00    +0.000 A 
ATOM      6  N   UNL     1       4.637   3.858  19.516  0.00  0.00    +0.000 N 
ATOM      7  C   UNL     1       3.471   3.275  19.082  0.00  0.00    +0.000 A 
ATOM      8  O   UNL     1       2.676   2.763  19.860  0.00  0.00    +0.000 OA
ATOM      9  C   UNL     1       3.205   3.309  17.553  0.00  0.00    +0.000 A 
ATOM     10  O   UNL     1       2.204   2.795  17.071  0.00  0.00    +0.000 OA
ATOM     11  N   UNL     1       4.142   3.953  16.777  0.00  0.00    +0.000 N 
ATOM     12  C   UNL     1       5.288   4.566  17.309  0.00  0.00    +0.000 A 
ATOM     13  H   UNL     1       4.840   3.852  20.504  0.00  0.00    +0.000 HD
ATOM     14  H   UNL     1       3.978   3.996  15.779  0.00  0.00    +0.000 HD
ENDROOT
BRANCH   1  15
ATOM     15  O   UNL     1       5.918   5.277  15.148  0.00  0.00    +0.000 OA
BRANCH  15  17
ATOM     16  C   UNL     1       5.674   3.729  13.335  0.00  0.00    +0.000 C 
ATOM     17  C   UNL     1       6.664   4.416  14.273  0.00  0.00    +0.000 C 
ATOM     18  C   UNL     1       7.668   5.239  13.469  0.00  0.00    +0.000 C 
ENDBRANCH  15  17
ENDBRANCH   1  15
TORSDOF 2
ENDMDL
MODEL 7
REMARK VINA RESULT:      -6.4      2.968      5.720
REMARK  Name = 
REMARK  4 active torsions:
REMARK  status: ('A' for Active; 'I' for Inactive)
REMARK    1  A    between atoms: C_1  and  C_2
REMARK    2  A    between atoms: C_2  and  C_3
REMARK    3  A    between atoms: C_2  and  O_4
REMARK    4  A    between atoms: O_4  and  C_5
REMARK                            x       y       z     vdW  Elec       q    Type
REMARK                         _______ _______ _______ _____ _____    ______ ____
ROOT
ATOM      1  C   UNL     1       4.521   5.182  17.767  0.00  0.00    +0.000 A 
ATOM      2  C   UNL     1       3.770   6.316  17.471  0.00  0.00    +0.000 A 
ATOM      3  C   UNL     1       2.705   6.648  18.299  0.00  0.00    +0.000 A 
ATOM      4  N   UNL     1       2.334   5.933  19.379  0.00  0.00    +0.000 NA
ATOM      5  C   UNL     1       3.053   4.827  19.639  0.00  0.00    +0.000 A 
ATOM      6  N   UNL     1       2.640   4.069  20.723  0.00  0.00    +0.000 N 
ATOM      7  C   UNL     1       3.229   2.885  21.097  0.00  0.00    +0.000 A 
ATOM      8  O   UNL     1       2.796   2.213  22.026  0.00  0.00    +0.000 OA
ATOM      9  C   UNL     1       4.465   2.433  20.275  0.00  0.00    +0.000 A 
ATOM     10  O   UNL     1       5.070   1.405  20.549  0.00  0.00    +0.000 OA
ATOM     11  N   UNL     1       4.836   3.240  19.222  0.00  0.00    +0.000 N 
ATOM     12  C   UNL     1       4.147   4.414  18.878  0.00  0.00    +0.000 A 
ATOM     13  H   UNL     1       1.835   4.390  21.238  0.00  0.00    +0.000 HD
ATOM     14  H   UNL     1       5.632   2.954  18.667  0.00  0.00    +0.000 HD
ENDROOT
BRANCH   1  15
ATOM     15  O   UNL     1       5.612   4.745  17.056  0.00  0.00    +0.000 OA
BRANCH  15  17
ATOM     16  C   UNL     1       7.331   6.413  17.133  0.00  0.00    +0.000 C 
ATOM     17  C   UNL     1       6.332   5.683  16.240  0.00  0.00    +0.000 C 
ATOM     18  C   UNL     1       7.066   4.940  15.125  0.00  0.00    +0.000 C 
ENDBRANCH  15  17
ENDBRANCH   1  15
TORSDOF 2
ENDMDL
MODEL 8
REMARK VINA RESULT:      -6.3      2.059      2.802
REMARK  Name = 
REMARK  4 active torsions:
REMARK  status: ('A' for Active; 'I' for Inactive)
REMARK    1  A    between atoms: C_1  and  C_2
REMARK    2  A    between atoms: C_2  and  C_3
REMARK    3  A    between atoms: C_2  and  O_4
REMARK    4  A    between atoms: O_4  and  C_5
REMARK                            x       y       z     vdW  Elec       q    Type
REMARK                         _______ _______ _______ _____ _____    ______ ____
ROOT
ATOM      1  C   UNL     1       3.398   4.076  17.717  0.00  0.00    +0.000 A 
ATOM      2  C   UNL     1       2.245   4.772  18.073  0.00  0.00    +0.000 A 
ATOM      3  C   UNL     1       2.288   6.159  18.114  0.00  0.00    +0.000 A 
ATOM      4  N   UNL     1       3.386   6.892  17.842  0.00  0.00    +0.000 NA
ATOM      5  C   UNL     1       4.497   6.206  17.524  0.00  0.00    +0.000 A 
ATOM      6  N   UNL     1       5.636   6.960  17.290  0.00  0.00    +0.000 N 
ATOM      7  C   UNL     1       6.867   6.418  17.004  0.00  0.00    +0.000 A 
ATOM      8  O   UNL     1       7.863   7.117  16.862  0.00  0.00    +0.000 OA
ATOM      9  C   UNL     1       6.934   4.873  16.881  0.00  0.00    +0.000 A 
ATOM     10  O   UNL     1       7.982   4.303  16.605  0.00  0.00    +0.000 OA
ATOM     11  N   UNL     1       5.764   4.183  17.107  0.00  0.00    +0.000 N 
ATOM     12  C   UNL     1       4.556   4.814  17.442  0.00  0.00    +0.000 A 
ATOM     13  H   UNL     1       5.559   7.962  17.376  0.00  0.00    +0.000 HD
ATOM     14  H   UNL     1       5.793   3.173  17.043  0.00  0.00    +0.000 HD
ENDROOT
BRANCH   1  15
ATOM     15  O   UNL     1       3.498   2.710  17.610  0.00  0.00    +0.000 OA
BRANCH  15  17
ATOM     16  C   UNL     1       4.188   2.469  19.893  0.00  0.00    +0.000 C 
ATOM     17  C   UNL     1       3.306   1.903  18.783  0.00  0.00    +0.000 C 
ATOM     18  C   UNL     1       1.839   1.943  19.204  0.00  0.00    +0.000 C 
ENDBRANCH  15  17
ENDBRANCH   1  15
TORSDOF 2
ENDMDL
MODEL 9
REMARK VINA RESULT:      -6.3      3.188      4.971
REMARK  Name = 
REMARK  4 active torsions:
REMARK  status: ('A' for Active; 'I' for Inactive)
REMARK    1  A    between atoms: C_1  and  C_2
REMARK    2  A    between atoms: C_2  and  C_3
REMARK    3  A    between atoms: C_2  and  O_4
REMARK    4  A    between atoms: O_4  and  C_5
REMARK                            x       y       z     vdW  Elec       q    Type
REMARK                         _______ _______ _______ _____ _____    ______ ____
ROOT
ATOM      1  C   UNL     1       3.550   6.294  17.921  0.00  0.00    +0.000 A 
ATOM      2  C   UNL     1       4.513   6.836  17.074  0.00  0.00    +0.000 A 
ATOM      3  C   UNL     1       5.702   6.143  16.884  0.00  0.00    +0.000 A 
ATOM      4  N   UNL     1       6.000   4.972  17.480  0.00  0.00    +0.000 NA
ATOM      5  C   UNL     1       5.071   4.473  18.314  0.00  0.00    +0.000 A 
ATOM      6  N   UNL     1       5.399   3.292  18.961  0.00  0.00    +0.000 N 
ATOM      7  C   UNL     1       4.589   2.674  19.882  0.00  0.00    +0.000 A 
ATOM      8  O   UNL     1       4.941   1.662  20.477  0.00  0.00    +0.000 OA
ATOM      9  C   UNL     1       3.206   3.329  20.142  0.00  0.00    +0.000 A 
ATOM     10  O   UNL     1       2.407   2.836  20.928  0.00  0.00    +0.000 OA
ATOM     11  N   UNL     1       2.934   4.490  19.455  0.00  0.00    +0.000 N 
ATOM     12  C   UNL     1       3.841   5.083  18.563  0.00  0.00    +0.000 A 
ATOM     13  H   UNL     1       6.304   2.890  18.768  0.00  0.00    +0.000 HD
ATOM     14  H   UNL     1       2.041   4.938  19.622  0.00  0.00    +0.000 HD
ENDROOT
BRANCH   1  15
ATOM     15  O   UNL     1       2.322   6.851  18.184  0.00  0.00    +0.000 OA
BRANCH  15  17
ATOM     16  C   UNL     1       1.404   9.050  17.934  0.00  0.00    +0.000 C 
ATOM     17  C   UNL     1       2.263   8.142  18.811  0.00  0.00    +0.000 C 
ATOM     18  C   UNL     1       1.645   8.015  20.201  0.00  0.00    +0.000 C 
ENDBRANCH  15  17
ENDBRANCH   1  15
TORSDOF 2
ENDMDL
