MODEL 1
REMARK VINA RESULT:      -8.8      0.000      0.000
REMARK  Name = 
REMARK  8 active torsions:
REMARK  status: ('A' for Active; 'I' for Inactive)
REMARK    1  A    between atoms: C_1  and  C_2
REMARK    2  A    between atoms: C_2  and  C_3
REMARK    3  A    between atoms: C_2  and  C_4
REMARK    4  A    between atoms: C_2  and  O_5
REMARK    5  A    between atoms: O_5  and  C_6
REMARK    6  A    between atoms: N_8  and  C_9
REMARK    7  A    between atoms: N_12  and  C_13
REMARK    8  A    between atoms: C_18  and  C_19
REMARK                            x       y       z     vdW  Elec       q    Type
REMARK                         _______ _______ _______ _____ _____    ______ ____
ROOT
ATOM      1  C   UNL     1       3.907   5.356  17.552  0.00  0.00    +0.000 A 
ATOM      2  N   UNL     1       3.741   4.074  17.118  0.00  0.00    +0.000 NA
ATOM      3  C   UNL     1       2.545   3.478  17.296  0.00  0.00    +0.000 A 
ATOM      4  C   UNL     1       1.491   4.125  17.885  0.00  0.00    +0.000 A 
ATOM      5  N   UNL     1       1.604   5.387  18.330  0.00  0.00    +0.000 NA
ATOM      6  C   UNL     1       2.815   6.021  18.171  0.00  0.00    +0.000 A 
ENDROOT
BRANCH   6   7
ATOM      7  C   UNL     1       2.747   7.533  18.632  0.00  0.00    +0.000 C 
ATOM      8  C   UNL     1       1.701   8.464  17.991  0.00  0.00    +0.000 C 
ATOM      9  N   UNL     1       1.218   8.774  19.290  0.00  0.00    +0.000 N 
ATOM     10  C   UNL     1       0.354   9.794  19.716  0.00  0.00    +0.000 A 
ATOM     11  C   UNL     1      -0.268  10.575  18.744  0.00  0.00    +0.000 A 
ATOM     12  C   UNL     1      -1.189  11.545  19.111  0.00  0.00    +0.000 A 
ATOM     13  C   UNL     1      -1.505  11.700  20.456  0.00  0.00    +0.000 A 
ATOM     14  C   UNL     1      -2.511  12.597  20.847  0.00  0.00    +0.000 A 
ATOM     15  C   UNL     1      -2.868  12.703  22.186  0.00  0.00    +0.000 A 
ATOM     16  C   UNL     1      -2.187  11.949  23.133  0.00  0.00    +0.000 A 
ATOM     17  C   UNL     1      -1.161  11.078  22.736  0.00  0.00    +0.000 A 
ATOM     18  C   UNL     1      -0.816  10.908  21.397  0.00  0.00    +0.000 A 
ATOM     19  N   UNL     1       0.108   9.986  21.033  0.00  0.00    +0.000 NA
ATOM     20  C   UNL     1       2.103   7.917  19.985  0.00  0.00    +0.000 C 
ENDBRANCH   6   7
BRANCH   1  24
ATOM     21  C   UNL     1       7.401   6.670  17.450  0.00  0.00    +0.000 C 
ATOM     22  C   UNL     1       7.244   5.843  16.181  0.00  0.00    +0.000 C 
ATOM     23  C   UNL     1       5.735   5.736  15.960  0.00  0.00    +0.000 C 
ATOM     24  N   UNL     1       5.134   5.928  17.282  0.00  0.00    +0.000 N 
ATOM     25  C   UNL     1       6.153   6.253  18.273  0.00  0.00    +0.000 C 
BRANCH  21  28
ATOM     26  C   UNL     1       8.285   8.874  18.029  0.00  0.00    +0.000 C 
ATOM     27  O   UNL     1       8.847   8.408  19.010  0.00  0.00    +0.000 OA
ATOM     28  N   UNL     1       7.495   8.114  17.213  0.00  0.00    +0.000 N 
ATOM     29  H   UNL     1       7.221   8.526  16.325  0.00  0.00    +0.000 HD
BRANCH  26  30
ATOM     30  O   UNL     1       8.377  10.169  17.613  0.00  0.00    +0.000 OA
BRANCH  30  32
ATOM     31  C   UNL     1      10.685  11.051  17.747  0.00  0.00    +0.000 C 
ATOM     32  C   UNL     1       9.268  11.068  18.344  0.00  0.00    +0.000 C 
ATOM     33  C   UNL     1       9.281  10.750  19.850  0.00  0.00    +0.000 C 
ATOM     34  C   UNL     1       8.714  12.498  18.195  0.00  0.00    +0.000 C 
ENDBRANCH  30  32
ENDBRANCH  26  30
ENDBRANCH  21  28
ENDBRANCH   1  24
TORSDOF 5
ENDMDL
MODEL 2
REMARK VINA RESULT:      -8.7      3.308      4.668
REMARK  Name = 
REMARK  8 active torsions:
REMARK  status: ('A' for Active; 'I' for Inactive)
REMARK    1  A    between atoms: C_1  and  C_2
REMARK    2  A    between atoms: C_2  and  C_3
REMARK    3  A    between atoms: C_2  and  C_4
REMARK    4  A    between atoms: C_2  and  O_5
REMARK    5  A    between atoms: O_5  and  C_6
REMARK    6  A    between atoms: N_8  and  C_9
REMARK    7  A    between atoms: N_12  and  C_13
REMARK    8  A    between atoms: C_18  and  C_19
REMARK                            x       y       z     vdW  Elec       q    Type
REMARK                         _______ _______ _______ _____ _____    ______ ____
ROOT
ATOM      1  C   UNL     1       3.009   3.929  19.036  0.00  0.00    +0.000 A 
ATOM      2  N   UNL     1       2.558   2.642  19.033  0.00  0.00    +0.000 NA
ATOM      3  C   UNL     1       1.570   2.299  19.883  0.00  0.00    +0.000 A 
ATOM      4  C   UNL     1       1.000   3.205  20.738  0.00  0.00    +0.000 A 
ATOM      5  N   UNL     1       1.410   4.483  20.780  0.00  0.00    +0.000 NA
ATOM      6  C   UNL     1       2.423   4.864  19.930  0.00  0.00    +0.000 A 
ENDROOT
BRANCH   6   7
ATOM      7  C   UNL     1       2.703   6.418  20.016  0.00  0.00    +0.000 C 
ATOM      8  C   UNL     1       2.053   7.353  18.978  0.00  0.00    +0.000 C 
ATOM      9  N   UNL     1       1.490   8.104  20.044  0.00  0.00    +0.000 N 
ATOM     10  C   UNL     1       0.884   9.368  20.040  0.00  0.00    +0.000 A 
ATOM     11  C   UNL     1       0.645   9.978  18.810  0.00  0.00    +0.000 A 
ATOM     12  C   UNL     1      -0.021  11.193  18.750  0.00  0.00    +0.000 A 
ATOM     13  C   UNL     1      -0.474  11.773  19.929  0.00  0.00    +0.000 A 
ATOM     14  C   UNL     1      -1.244  12.946  19.889  0.00  0.00    +0.000 A 
ATOM     15  C   UNL     1      -1.749  13.488  21.065  0.00  0.00    +0.000 A 
ATOM     16  C   UNL     1      -1.444  12.884  22.278  0.00  0.00    +0.000 A 
ATOM     17  C   UNL     1      -0.647  11.730  22.310  0.00  0.00    +0.000 A 
ATOM     18  C   UNL     1      -0.170  11.130  21.146  0.00  0.00    +0.000 A 
ATOM     19  N   UNL     1       0.511   9.960  21.200  0.00  0.00    +0.000 NA
ATOM     20  C   UNL     1       1.998   7.289  21.083  0.00  0.00    +0.000 C 
ENDBRANCH   6   7
BRANCH   1  24
ATOM     21  C   UNL     1       5.204   5.262  16.324  0.00  0.00    +0.000 C 
ATOM     22  C   UNL     1       6.093   5.176  17.557  0.00  0.00    +0.000 C 
ATOM     23  C   UNL     1       5.387   4.192  18.489  0.00  0.00    +0.000 C 
ATOM     24  N   UNL     1       3.976   4.229  18.098  0.00  0.00    +0.000 N 
ATOM     25  C   UNL     1       3.786   5.077  16.926  0.00  0.00    +0.000 C 
BRANCH  21  28
ATOM     26  C   UNL     1       6.649   4.479  14.515  0.00  0.00    +0.000 C 
ATOM     27  O   UNL     1       7.335   5.487  14.607  0.00  0.00    +0.000 OA
ATOM     28  N   UNL     1       5.533   4.286  15.281  0.00  0.00    +0.000 N 
ATOM     29  H   UNL     1       5.131   3.353  15.281  0.00  0.00    +0.000 HD
BRANCH  26  30
ATOM     30  O   UNL     1       6.898   3.432  13.679  0.00  0.00    +0.000 OA
BRANCH  30  32
ATOM     31  C   UNL     1       7.219   4.751  11.610  0.00  0.00    +0.000 C 
ATOM     32  C   UNL     1       6.510   3.560  12.276  0.00  0.00    +0.000 C 
ATOM     33  C   UNL     1       4.982   3.647  12.118  0.00  0.00    +0.000 C 
ATOM     34  C   UNL     1       6.962   2.280  11.546  0.00  0.00    +0.000 C 
ENDBRANCH  30  32
ENDBRANCH  26  30
ENDBRANCH  21  28
ENDBRANCH   1  24
TORSDOF 5
ENDMDL
MODEL 3
REMARK VINA RESULT:      -8.4      4.955     10.491
REMARK  Name = 
REMARK  8 active torsions:
REMARK  status: ('A' for Active; 'I' for Inactive)
REMARK    1  A    between atoms: C_1  and  C_2
REMARK    2  A    between atoms: C_2  and  C_3
REMARK    3  A    between atoms: C_2  and  C_4
REMARK    4  A    between atoms: C_2  and  O_5
REMARK    5  A    between atoms: O_5  and  C_6
REMARK    6  A    between atoms: N_8  and  C_9
REMARK    7  A    between atoms: N_12  and  C_13
REMARK    8  A    between atoms: C_18  and  C_19
REMARK                            x       y       z     vdW  Elec       q    Type
REMARK                         _______ _______ _______ _____ _____    ______ ____
ROOT
ATOM      1  C   UNL     1       0.880  13.094  19.687  0.00  0.00    +0.000 A 
ATOM      2  N   UNL     1       1.410  14.348  19.764  0.00  0.00    +0.000 NA
ATOM      3  C   UNL     1       2.549  14.613  19.093  0.00  0.00    +0.000 A 
ATOM      4  C   UNL     1       3.179  13.667  18.329  0.00  0.00    +0.000 A 
ATOM      5  N   UNL     1       2.698  12.418  18.223  0.00  0.00    +0.000 NA
ATOM      6  C   UNL     1       1.541  12.112  18.902  0.00  0.00    +0.000 A 
ENDROOT
BRANCH   6   7
ATOM      7  C   UNL     1       1.043  10.647  18.577  0.00  0.00    +0.000 C 
ATOM      8  C   UNL     1       1.983   9.687  17.822  0.00  0.00    +0.000 C 
ATOM      9  N   UNL     1       1.837   8.751  18.880  0.00  0.00    +0.000 N 
ATOM     10  C   UNL     1       2.183   7.394  18.944  0.00  0.00    +0.000 A 
ATOM     11  C   UNL     1       2.911   6.853  17.887  0.00  0.00    +0.000 A 
ATOM     12  C   UNL     1       3.343   5.536  17.938  0.00  0.00    +0.000 A 
ATOM     13  C   UNL     1       3.070   4.780  19.071  0.00  0.00    +0.000 A 
ATOM     14  C   UNL     1       3.588   3.481  19.197  0.00  0.00    +0.000 A 
ATOM     15  C   UNL     1       3.365   2.752  20.359  0.00  0.00    +0.000 A 
ATOM     16  C   UNL     1       2.588   3.303  21.370  0.00  0.00    +0.000 A 
ATOM     17  C   UNL     1       2.049   4.590  21.222  0.00  0.00    +0.000 A 
ATOM     18  C   UNL     1       2.297   5.368  20.093  0.00  0.00    +0.000 A 
ATOM     19  N   UNL     1       1.848   6.645  20.021  0.00  0.00    +0.000 NA
ATOM     20  C   UNL     1       1.001   9.564  19.682  0.00  0.00    +0.000 C 
ENDBRANCH   6   7
BRANCH   1  24
ATOM     21  C   UNL     1      -2.558  12.263  20.886  0.00  0.00    +0.000 C 
ATOM     22  C   UNL     1      -1.618  11.735  21.961  0.00  0.00    +0.000 C 
ATOM     23  C   UNL     1      -0.307  12.492  21.749  0.00  0.00    +0.000 C 
ATOM     24  N   UNL     1      -0.319  12.907  20.345  0.00  0.00    +0.000 N 
ATOM     25  C   UNL     1      -1.586  12.558  19.713  0.00  0.00    +0.000 C 
BRANCH  21  28
ATOM     26  C   UNL     1      -4.665  13.256  21.628  0.00  0.00    +0.000 C 
ATOM     27  O   UNL     1      -5.235  12.183  21.496  0.00  0.00    +0.000 OA
ATOM     28  N   UNL     1      -3.348  13.426  21.303  0.00  0.00    +0.000 N 
ATOM     29  H   UNL     1      -2.905  14.285  21.616  0.00  0.00    +0.000 HD
BRANCH  26  30
ATOM     30  O   UNL     1      -5.235  14.393  22.118  0.00  0.00    +0.000 OA
BRANCH  30  32
ATOM     31  C   UNL     1      -5.478  15.962  24.016  0.00  0.00    +0.000 C 
ATOM     32  C   UNL     1      -5.446  14.493  23.561  0.00  0.00    +0.000 C 
ATOM     33  C   UNL     1      -4.401  13.679  24.344  0.00  0.00    +0.000 C 
ATOM     34  C   UNL     1      -6.822  13.875  23.877  0.00  0.00    +0.000 C 
ENDBRANCH  30  32
ENDBRANCH  26  30
ENDBRANCH  21  28
ENDBRANCH   1  24
TORSDOF 5
ENDMDL
MODEL 4
REMARK VINA RESULT:      -8.3      4.958     10.476
REMARK  Name = 
REMARK  8 active torsions:
REMARK  status: ('A' for Active; 'I' for Inactive)
REMARK    1  A    between atoms: C_1  and  C_2
REMARK    2  A    between atoms: C_2  and  C_3
REMARK    3  A    between atoms: C_2  and  C_4
REMARK    4  A    between atoms: C_2  and  O_5
REMARK    5  A    between atoms: O_5  and  C_6
REMARK    6  A    between atoms: N_8  and  C_9
REMARK    7  A    between atoms: N_12  and  C_13
REMARK    8  A    between atoms: C_18  and  C_19
REMARK                            x       y       z     vdW  Elec       q    Type
REMARK                         _______ _______ _______ _____ _____    ______ ____
ROOT
ATOM      1  C   UNL     1       0.997  12.951  19.989  0.00  0.00    +0.000 A 
ATOM      2  N   UNL     1       1.497  14.217  20.065  0.00  0.00    +0.000 NA
ATOM      3  C   UNL     1       2.505  14.567  19.241  0.00  0.00    +0.000 A 
ATOM      4  C   UNL     1       3.031  13.696  18.324  0.00  0.00    +0.000 A 
ATOM      5  N   UNL     1       2.573  12.438  18.211  0.00  0.00    +0.000 NA
ATOM      6  C   UNL     1       1.550  12.046  19.044  0.00  0.00    +0.000 A 
ENDROOT
BRANCH   6   7
ATOM      7  C   UNL     1       1.047  10.586  18.703  0.00  0.00    +0.000 C 
ATOM      8  C   UNL     1       1.966   9.646  17.901  0.00  0.00    +0.000 C 
ATOM      9  N   UNL     1       1.853   8.688  18.944  0.00  0.00    +0.000 N 
ATOM     10  C   UNL     1       2.205   7.331  18.970  0.00  0.00    +0.000 A 
ATOM     11  C   UNL     1       2.903   6.813  17.880  0.00  0.00    +0.000 A 
ATOM     12  C   UNL     1       3.340   5.497  17.891  0.00  0.00    +0.000 A 
ATOM     13  C   UNL     1       3.102   4.717  19.017  0.00  0.00    +0.000 A 
ATOM     14  C   UNL     1       3.627   3.418  19.100  0.00  0.00    +0.000 A 
ATOM     15  C   UNL     1       3.441   2.664  20.253  0.00  0.00    +0.000 A 
ATOM     16  C   UNL     1       2.693   3.192  21.297  0.00  0.00    +0.000 A 
ATOM     17  C   UNL     1       2.145   4.480  21.192  0.00  0.00    +0.000 A 
ATOM     18  C   UNL     1       2.359   5.282  20.073  0.00  0.00    +0.000 A 
ATOM     19  N   UNL     1       1.904   6.558  20.041  0.00  0.00    +0.000 NA
ATOM     20  C   UNL     1       1.039   9.481  19.787  0.00  0.00    +0.000 C 
ENDBRANCH   6   7
BRANCH   1  24
ATOM     21  C   UNL     1      -2.251  12.113  21.631  0.00  0.00    +0.000 C 
ATOM     22  C   UNL     1      -1.227  11.177  22.260  0.00  0.00    +0.000 C 
ATOM     23  C   UNL     1       0.128  11.831  21.992  0.00  0.00    +0.000 C 
ATOM     24  N   UNL     1      -0.075  12.679  20.814  0.00  0.00    +0.000 N 
ATOM     25  C   UNL     1      -1.476  12.677  20.410  0.00  0.00    +0.000 C 
BRANCH  21  28
ATOM     26  C   UNL     1      -4.078  13.166  22.868  0.00  0.00    +0.000 C 
ATOM     27  O   UNL     1      -4.884  12.402  22.356  0.00  0.00    +0.000 OA
ATOM     28  N   UNL     1      -2.751  13.148  22.541  0.00  0.00    +0.000 N 
ATOM     29  H   UNL     1      -2.123  13.677  23.140  0.00  0.00    +0.000 HD
BRANCH  26  30
ATOM     30  O   UNL     1      -4.372  14.098  23.817  0.00  0.00    +0.000 OA
BRANCH  30  32
ATOM     31  C   UNL     1      -6.783  14.650  23.763  0.00  0.00    +0.000 C 
ATOM     32  C   UNL     1      -5.349  15.134  23.489  0.00  0.00    +0.000 C 
ATOM     33  C   UNL     1      -5.184  15.630  22.042  0.00  0.00    +0.000 C 
ATOM     34  C   UNL     1      -5.079  16.341  24.408  0.00  0.00    +0.000 C 
ENDBRANCH  30  32
ENDBRANCH  26  30
ENDBRANCH  21  28
ENDBRANCH   1  24
TORSDOF 5
ENDMDL
MODEL 5
REMARK VINA RESULT:      -8.3      3.125      7.611
REMARK  Name = 
REMARK  8 active torsions:
REMARK  status: ('A' for Active; 'I' for Inactive)
REMARK    1  A    between atoms: C_1  and  C_2
REMARK    2  A    between atoms: C_2  and  C_3
REMARK    3  A    between atoms: C_2  and  C_4
REMARK    4  A    between atoms: C_2  and  O_5
REMARK    5  A    between atoms: O_5  and  C_6
REMARK    6  A    between atoms: N_8  and  C_9
REMARK    7  A    between atoms: N_12  and  C_13
REMARK    8  A    between atoms: C_18  and  C_19
REMARK                            x       y       z     vdW  Elec       q    Type
REMARK                         _______ _______ _______ _____ _____    ______ ____
ROOT
ATOM      1  C   UNL     1       0.523  12.345  18.838  0.00  0.00    +0.000 A 
ATOM      2  N   UNL     1      -0.633  13.060  18.737  0.00  0.00    +0.000 NA
ATOM      3  C   UNL     1      -1.809  12.401  18.760  0.00  0.00    +0.000 A 
ATOM      4  C   UNL     1      -1.875  11.039  18.895  0.00  0.00    +0.000 A 
ATOM      5  N   UNL     1      -0.765  10.290  18.997  0.00  0.00    +0.000 NA
ATOM      6  C   UNL     1       0.451  10.932  18.968  0.00  0.00    +0.000 A 
ENDROOT
BRANCH   6   7
ATOM      7  C   UNL     1       1.647   9.929  19.221  0.00  0.00    +0.000 C 
ATOM      8  C   UNL     1       1.479   8.814  20.271  0.00  0.00    +0.000 C 
ATOM      9  N   UNL     1       1.809   7.859  19.273  0.00  0.00    +0.000 N 
ATOM     10  C   UNL     1       2.147   6.503  19.392  0.00  0.00    +0.000 A 
ATOM     11  C   UNL     1       2.029   5.905  20.645  0.00  0.00    +0.000 A 
ATOM     12  C   UNL     1       2.278   4.550  20.799  0.00  0.00    +0.000 A 
ATOM     13  C   UNL     1       2.612   3.795  19.682  0.00  0.00    +0.000 A 
ATOM     14  C   UNL     1       2.763   2.403  19.788  0.00  0.00    +0.000 A 
ATOM     15  C   UNL     1       3.036   1.643  18.657  0.00  0.00    +0.000 A 
ATOM     16  C   UNL     1       3.202   2.280  17.433  0.00  0.00    +0.000 A 
ATOM     17  C   UNL     1       3.081   3.675  17.342  0.00  0.00    +0.000 A 
ATOM     18  C   UNL     1       2.755   4.460  18.447  0.00  0.00    +0.000 A 
ATOM     19  N   UNL     1       2.544   5.792  18.310  0.00  0.00    +0.000 NA
ATOM     20  C   UNL     1       1.948   8.790  18.217  0.00  0.00    +0.000 C 
ENDBRANCH   6   7
BRANCH   1  24
ATOM     21  C   UNL     1       3.332  14.784  18.509  0.00  0.00    +0.000 C 
ATOM     22  C   UNL     1       3.122  14.610  20.007  0.00  0.00    +0.000 C 
ATOM     23  C   UNL     1       2.368  13.288  20.152  0.00  0.00    +0.000 C 
ATOM     24  N   UNL     1       1.687  13.086  18.871  0.00  0.00    +0.000 N 
ATOM     25  C   UNL     1       2.056  14.127  17.919  0.00  0.00    +0.000 C 
BRANCH  21  28
ATOM     26  C   UNL     1       5.712  14.968  17.986  0.00  0.00    +0.000 C 
ATOM     27  O   UNL     1       5.702  16.154  18.284  0.00  0.00    +0.000 OA
ATOM     28  N   UNL     1       4.581  14.202  18.009  0.00  0.00    +0.000 N 
ATOM     29  H   UNL     1       4.705  13.196  17.934  0.00  0.00    +0.000 HD
BRANCH  26  30
ATOM     30  O   UNL     1       6.818  14.260  17.621  0.00  0.00    +0.000 OA
BRANCH  30  32
ATOM     31  C   UNL     1       7.595  14.368  19.967  0.00  0.00    +0.000 C 
ATOM     32  C   UNL     1       7.996  14.324  18.483  0.00  0.00    +0.000 C 
ATOM     33  C   UNL     1       8.909  15.504  18.106  0.00  0.00    +0.000 C 
ATOM     34  C   UNL     1       8.813  13.037  18.257  0.00  0.00    +0.000 C 
ENDBRANCH  30  32
ENDBRANCH  26  30
ENDBRANCH  21  28
ENDBRANCH   1  24
TORSDOF 5
ENDMDL
MODEL 6
REMARK VINA RESULT:      -8.2      4.371     10.261
REMARK  Name = 
REMARK  8 active torsions:
REMARK  status: ('A' for Active; 'I' for Inactive)
REMARK    1  A    between atoms: C_1  and  C_2
REMARK    2  A    between atoms: C_2  and  C_3
REMARK    3  A    between atoms: C_2  and  C_4
REMARK    4  A    between atoms: C_2  and  O_5
REMARK    5  A    between atoms: O_5  and  C_6
REMARK    6  A    between atoms: N_8  and  C_9
REMARK    7  A    between atoms: N_12  and  C_13
REMARK    8  A    between atoms: C_18  and  C_19
REMARK                            x       y       z     vdW  Elec       q    Type
REMARK                         _______ _______ _______ _____ _____    ______ ____
ROOT
ATOM      1  C   UNL     1      -1.988  11.734  19.332  0.00  0.00    +0.000 A 
ATOM      2  N   UNL     1      -3.280  11.862  18.916  0.00  0.00    +0.000 NA
ATOM      3  C   UNL     1      -3.687  11.164  17.836  0.00  0.00    +0.000 A 
ATOM      4  C   UNL     1      -2.846  10.324  17.155  0.00  0.00    +0.000 A 
ATOM      5  N   UNL     1      -1.565  10.165  17.524  0.00  0.00    +0.000 NA
ATOM      6  C   UNL     1      -1.116  10.869  18.618  0.00  0.00    +0.000 A 
ENDROOT
BRANCH   6   7
ATOM      7  C   UNL     1       0.370  10.480  18.993  0.00  0.00    +0.000 C 
ATOM      8  C   UNL     1       0.637   9.130  19.687  0.00  0.00    +0.000 C 
ATOM      9  N   UNL     1       1.555   8.808  18.651  0.00  0.00    +0.000 N 
ATOM     10  C   UNL     1       2.515   7.789  18.576  0.00  0.00    +0.000 A 
ATOM     11  C   UNL     1       2.529   6.826  19.582  0.00  0.00    +0.000 A 
ATOM     12  C   UNL     1       3.408   5.756  19.513  0.00  0.00    +0.000 A 
ATOM     13  C   UNL     1       4.246   5.642  18.410  0.00  0.00    +0.000 A 
ATOM     14  C   UNL     1       5.067   4.513  18.260  0.00  0.00    +0.000 A 
ATOM     15  C   UNL     1       5.857   4.372  17.125  0.00  0.00    +0.000 A 
ATOM     16  C   UNL     1       5.858   5.380  16.168  0.00  0.00    +0.000 A 
ATOM     17  C   UNL     1       5.058   6.518  16.342  0.00  0.00    +0.000 A 
ATOM     18  C   UNL     1       4.214   6.665  17.442  0.00  0.00    +0.000 A 
ATOM     19  N   UNL     1       3.377   7.727  17.533  0.00  0.00    +0.000 NA
ATOM     20  C   UNL     1       1.358   9.994  17.905  0.00  0.00    +0.000 C 
ENDBRANCH   6   7
BRANCH   1  24
ATOM     21  C   UNL     1      -0.818  13.000  22.645  0.00  0.00    +0.000 C 
ATOM     22  C   UNL     1      -0.229  13.956  21.616  0.00  0.00    +0.000 C 
ATOM     23  C   UNL     1      -1.083  13.769  20.363  0.00  0.00    +0.000 C 
ATOM     24  N   UNL     1      -1.655  12.425  20.479  0.00  0.00    +0.000 N 
ATOM     25  C   UNL     1      -1.304  11.822  21.759  0.00  0.00    +0.000 C 
BRANCH  21  28
ATOM     26  C   UNL     1      -1.581  14.662  24.266  0.00  0.00    +0.000 C 
ATOM     27  O   UNL     1      -0.442  15.093  24.383  0.00  0.00    +0.000 OA
ATOM     28  N   UNL     1      -1.875  13.590  23.471  0.00  0.00    +0.000 N 
ATOM     29  H   UNL     1      -2.858  13.415  23.282  0.00  0.00    +0.000 HD
BRANCH  26  30
ATOM     30  O   UNL     1      -2.683  15.183  24.876  0.00  0.00    +0.000 OA
BRANCH  30  32
ATOM     31  C   UNL     1      -2.848  16.671  22.905  0.00  0.00    +0.000 C 
ATOM     32  C   UNL     1      -3.207  16.456  24.386  0.00  0.00    +0.000 C 
ATOM     33  C   UNL     1      -2.742  17.634  25.260  0.00  0.00    +0.000 C 
ATOM     34  C   UNL     1      -4.744  16.401  24.491  0.00  0.00    +0.000 C 
ENDBRANCH  30  32
ENDBRANCH  26  30
ENDBRANCH  21  28
ENDBRANCH   1  24
TORSDOF 5
ENDMDL
MODEL 7
REMARK VINA RESULT:      -8.1      3.361      7.914
REMARK  Name = 
REMARK  8 active torsions:
REMARK  status: ('A' for Active; 'I' for Inactive)
REMARK    1  A    between atoms: C_1  and  C_2
REMARK    2  A    between atoms: C_2  and  C_3
REMARK    3  A    between atoms: C_2  and  C_4
REMARK    4  A    between atoms: C_2  and  O_5
REMARK    5  A    between atoms: O_5  and  C_6
REMARK    6  A    between atoms: N_8  and  C_9
REMARK    7  A    between atoms: N_12  and  C_13
REMARK    8  A    between atoms: C_18  and  C_19
REMARK                            x       y       z     vdW  Elec       q    Type
REMARK                         _______ _______ _______ _____ _____    ______ ____
ROOT
ATOM      1  C   UNL     1       0.102  12.116  18.783  0.00  0.00    +0.000 A 
ATOM      2  N   UNL     1      -1.094  12.701  18.487  0.00  0.00    +0.000 NA
ATOM      3  C   UNL     1      -2.073  11.943  17.953  0.00  0.00    +0.000 A 
ATOM      4  C   UNL     1      -1.906  10.605  17.712  0.00  0.00    +0.000 A 
ATOM      5  N   UNL     1      -0.748   9.983  17.985  0.00  0.00    +0.000 NA
ATOM      6  C   UNL     1       0.275  10.730  18.523  0.00  0.00    +0.000 A 
ENDROOT
BRANCH   6   7
ATOM      7  C   UNL     1       1.520   9.830  18.898  0.00  0.00    +0.000 C 
ATOM      8  C   UNL     1       1.357   8.738  19.973  0.00  0.00    +0.000 C 
ATOM      9  N   UNL     1       1.831   7.781  19.036  0.00  0.00    +0.000 N 
ATOM     10  C   UNL     1       2.260   6.460  19.229  0.00  0.00    +0.000 A 
ATOM     11  C   UNL     1       2.093   5.893  20.491  0.00  0.00    +0.000 A 
ATOM     12  C   UNL     1       2.431   4.567  20.712  0.00  0.00    +0.000 A 
ATOM     13  C   UNL     1       2.903   3.806  19.649  0.00  0.00    +0.000 A 
ATOM     14  C   UNL     1       3.149   2.434  19.817  0.00  0.00    +0.000 A 
ATOM     15  C   UNL     1       3.562   1.663  18.737  0.00  0.00    +0.000 A 
ATOM     16  C   UNL     1       3.771   2.273  17.506  0.00  0.00    +0.000 A 
ATOM     17  C   UNL     1       3.553   3.650  17.356  0.00  0.00    +0.000 A 
ATOM     18  C   UNL     1       3.088   4.442  18.405  0.00  0.00    +0.000 A 
ATOM     19  N   UNL     1       2.788   5.748  18.205  0.00  0.00    +0.000 NA
ATOM     20  C   UNL     1       1.979   8.688  17.960  0.00  0.00    +0.000 C 
ENDBRANCH   6   7
BRANCH   1  24
ATOM     21  C   UNL     1       2.413  14.802  19.961  0.00  0.00    +0.000 C 
ATOM     22  C   UNL     1       1.685  14.320  21.209  0.00  0.00    +0.000 C 
ATOM     23  C   UNL     1       1.146  12.937  20.846  0.00  0.00    +0.000 C 
ATOM     24  N   UNL     1       1.038  12.932  19.385  0.00  0.00    +0.000 N 
ATOM     25  C   UNL     1       1.572  14.166  18.822  0.00  0.00    +0.000 C 
BRANCH  21  28
ATOM     26  C   UNL     1       4.777  15.403  20.122  0.00  0.00    +0.000 C 
ATOM     27  O   UNL     1       4.484  16.584  20.246  0.00  0.00    +0.000 OA
ATOM     28  N   UNL     1       3.833  14.436  19.920  0.00  0.00    +0.000 N 
ATOM     29  H   UNL     1       4.136  13.471  20.016  0.00  0.00    +0.000 HD
BRANCH  26  30
ATOM     30  O   UNL     1       6.041  14.898  20.184  0.00  0.00    +0.000 OA
BRANCH  30  32
ATOM     31  C   UNL     1       7.324  16.568  18.885  0.00  0.00    +0.000 C 
ATOM     32  C   UNL     1       6.920  15.091  19.032  0.00  0.00    +0.000 C 
ATOM     33  C   UNL     1       6.289  14.543  17.740  0.00  0.00    +0.000 C 
ATOM     34  C   UNL     1       8.205  14.278  19.282  0.00  0.00    +0.000 C 
ENDBRANCH  30  32
ENDBRANCH  26  30
ENDBRANCH  21  28
ENDBRANCH   1  24
TORSDOF 5
ENDMDL
MODEL 8
REMARK VINA RESULT:      -8.1      4.940     10.255
REMARK  Name = 
REMARK  8 active torsions:
REMARK  status: ('A' for Active; 'I' for Inactive)
REMARK    1  A    between atoms: C_1  and  C_2
REMARK    2  A    between atoms: C_2  and  C_3
REMARK    3  A    between atoms: C_2  and  C_4
REMARK    4  A    between atoms: C_2  and  O_5
REMARK    5  A    between atoms: O_5  and  C_6
REMARK    6  A    between atoms: N_8  and  C_9
REMARK    7  A    between atoms: N_12  and  C_13
REMARK    8  A    between atoms: C_18  and  C_19
REMARK                            x       y       z     vdW  Elec       q    Type
REMARK                         _______ _______ _______ _____ _____    ______ ____
ROOT
ATOM      1  C   UNL     1       0.925  13.166  19.776  0.00  0.00    +0.000 A 
ATOM      2  N   UNL     1       1.479  14.410  19.840  0.00  0.00    +0.000 NA
ATOM      3  C   UNL     1       2.607  14.655  19.143  0.00  0.00    +0.000 A 
ATOM      4  C   UNL     1       3.203  13.698  18.365  0.00  0.00    +0.000 A 
ATOM      5  N   UNL     1       2.697  12.457  18.271  0.00  0.00    +0.000 NA
ATOM      6  C   UNL     1       1.551  12.172  18.976  0.00  0.00    +0.000 A 
ENDROOT
BRANCH   6   7
ATOM      7  C   UNL     1       1.019  10.716  18.663  0.00  0.00    +0.000 C 
ATOM      8  C   UNL     1       1.915   9.748  17.867  0.00  0.00    +0.000 C 
ATOM      9  N   UNL     1       1.796   8.808  18.925  0.00  0.00    +0.000 N 
ATOM     10  C   UNL     1       2.126   7.445  18.968  0.00  0.00    +0.000 A 
ATOM     11  C   UNL     1       2.803   6.900  17.880  0.00  0.00    +0.000 A 
ATOM     12  C   UNL     1       3.218   5.577  17.906  0.00  0.00    +0.000 A 
ATOM     13  C   UNL     1       2.979   4.818  19.046  0.00  0.00    +0.000 A 
ATOM     14  C   UNL     1       3.483   3.512  19.144  0.00  0.00    +0.000 A 
ATOM     15  C   UNL     1       3.295   2.778  20.309  0.00  0.00    +0.000 A 
ATOM     16  C   UNL     1       2.567   3.335  21.353  0.00  0.00    +0.000 A 
ATOM     17  C   UNL     1       2.040   4.630  21.234  0.00  0.00    +0.000 A 
ATOM     18  C   UNL     1       2.256   5.411  20.100  0.00  0.00    +0.000 A 
ATOM     19  N   UNL     1       1.822   6.694  20.053  0.00  0.00    +0.000 NA
ATOM     20  C   UNL     1       1.004   9.627  19.763  0.00  0.00    +0.000 C 
ENDBRANCH   6   7
BRANCH   1  24
ATOM     21  C   UNL     1      -2.503  12.408  21.049  0.00  0.00    +0.000 C 
ATOM     22  C   UNL     1      -1.551  11.837  22.091  0.00  0.00    +0.000 C 
ATOM     23  C   UNL     1      -0.225  12.562  21.857  0.00  0.00    +0.000 C 
ATOM     24  N   UNL     1      -0.262  13.001  20.461  0.00  0.00    +0.000 N 
ATOM     25  C   UNL     1      -1.554  12.696  19.856  0.00  0.00    +0.000 C 
BRANCH  21  28
ATOM     26  C   UNL     1      -4.313  13.415  22.347  0.00  0.00    +0.000 C 
ATOM     27  O   UNL     1      -4.722  12.307  22.665  0.00  0.00    +0.000 OA
ATOM     28  N   UNL     1      -3.251  13.584  21.504  0.00  0.00    +0.000 N 
ATOM     29  H   UNL     1      -2.859  14.520  21.441  0.00  0.00    +0.000 HD
BRANCH  26  30
ATOM     30  O   UNL     1      -4.828  14.598  22.787  0.00  0.00    +0.000 OA
BRANCH  30  32
ATOM     31  C   UNL     1      -3.380  14.392  24.782  0.00  0.00    +0.000 C 
ATOM     32  C   UNL     1      -4.081  15.343  23.798  0.00  0.00    +0.000 C 
ATOM     33  C   UNL     1      -4.976  16.359  24.529  0.00  0.00    +0.000 C 
ATOM     34  C   UNL     1      -2.989  16.152  23.072  0.00  0.00    +0.000 C 
ENDBRANCH  30  32
ENDBRANCH  26  30
ENDBRANCH  21  28
ENDBRANCH   1  24
TORSDOF 5
ENDMDL
MODEL 9
REMARK VINA RESULT:      -8.1      4.551     10.528
REMARK  Name = 
REMARK  8 active torsions:
REMARK  status: ('A' for Active; 'I' for Inactive)
REMARK    1  A    between atoms: C_1  and  C_2
REMARK    2  A    between atoms: C_2  and  C_3
REMARK    3  A    between atoms: C_2  and  C_4
REMARK    4  A    between atoms: C_2  and  O_5
REMARK    5  A    between atoms: O_5  and  C_6
REMARK    6  A    between atoms: N_8  and  C_9
REMARK    7  A    between atoms: N_12  and  C_13
REMARK    8  A    between atoms: C_18  and  C_19
REMARK                            x       y       z     vdW  Elec       q    Type
REMARK                         _______ _______ _______ _____ _____    ______ ____
ROOT
ATOM      1  C   UNL     1      -1.892  11.664  19.269  0.00  0.00    +0.000 A 
ATOM      2  N   UNL     1      -3.167  11.816  18.811  0.00  0.00    +0.000 NA
ATOM      3  C   UNL     1      -3.537  11.162  17.692  0.00  0.00    +0.000 A 
ATOM      4  C   UNL     1      -2.677  10.342  17.011  0.00  0.00    +0.000 A 
ATOM      5  N   UNL     1      -1.410  10.161  17.421  0.00  0.00    +0.000 NA
ATOM      6  C   UNL     1      -0.999  10.821  18.556  0.00  0.00    +0.000 A 
ENDROOT
BRANCH   6   7
ATOM      7  C   UNL     1       0.470  10.407  18.971  0.00  0.00    +0.000 C 
ATOM      8  C   UNL     1       0.703   9.035  19.630  0.00  0.00    +0.000 C 
ATOM      9  N   UNL     1       1.654   8.738  18.618  0.00  0.00    +0.000 N 
ATOM     10  C   UNL     1       2.609   7.713  18.544  0.00  0.00    +0.000 A 
ATOM     11  C   UNL     1       2.581   6.719  19.520  0.00  0.00    +0.000 A 
ATOM     12  C   UNL     1       3.454   5.644  19.448  0.00  0.00    +0.000 A 
ATOM     13  C   UNL     1       4.329   5.557  18.372  0.00  0.00    +0.000 A 
ATOM     14  C   UNL     1       5.147   4.427  18.215  0.00  0.00    +0.000 A 
ATOM     15  C   UNL     1       5.975   4.316  17.104  0.00  0.00    +0.000 A 
ATOM     16  C   UNL     1       6.017   5.352  16.180  0.00  0.00    +0.000 A 
ATOM     17  C   UNL     1       5.220   6.492  16.362  0.00  0.00    +0.000 A 
ATOM     18  C   UNL     1       4.339   6.611  17.436  0.00  0.00    +0.000 A 
ATOM     19  N   UNL     1       3.507   7.676  17.531  0.00  0.00    +0.000 NA
ATOM     20  C   UNL     1       1.492   9.948  17.903  0.00  0.00    +0.000 C 
ENDBRANCH   6   7
BRANCH   1  24
ATOM     21  C   UNL     1      -1.069  12.772  22.739  0.00  0.00    +0.000 C 
ATOM     22  C   UNL     1      -0.028  13.435  21.847  0.00  0.00    +0.000 C 
ATOM     23  C   UNL     1      -0.635  13.414  20.444  0.00  0.00    +0.000 C 
ATOM     24  N   UNL     1      -1.598  12.310  20.453  0.00  0.00    +0.000 N 
ATOM     25  C   UNL     1      -1.704  11.726  21.785  0.00  0.00    +0.000 C 
BRANCH  21  28
ATOM     26  C   UNL     1      -3.207  13.219  23.836  0.00  0.00    +0.000 C 
ATOM     27  O   UNL     1      -3.516  12.039  23.749  0.00  0.00    +0.000 OA
ATOM     28  N   UNL     1      -2.038  13.705  23.320  0.00  0.00    +0.000 N 
ATOM     29  H   UNL     1      -1.770  14.646  23.596  0.00  0.00    +0.000 HD
BRANCH  26  30
ATOM     30  O   UNL     1      -3.948  14.181  24.454  0.00  0.00    +0.000 OA
BRANCH  30  32
ATOM     31  C   UNL     1      -6.349  14.009  23.880  0.00  0.00    +0.000 C 
ATOM     32  C   UNL     1      -5.041  14.799  23.705  0.00  0.00    +0.000 C 
ATOM     33  C   UNL     1      -4.679  14.979  22.220  0.00  0.00    +0.000 C 
ATOM     34  C   UNL     1      -5.266  16.210  24.284  0.00  0.00    +0.000 C 
ENDBRANCH  30  32
ENDBRANCH  26  30
ENDBRANCH  21  28
ENDBRANCH   1  24
TORSDOF 5
ENDMDL
