MODEL 1
REMARK VINA RESULT:      -9.2      0.000      0.000
REMARK  Name = 
REMARK  7 active torsions:
REMARK  status: ('A' for Active; 'I' for Inactive)
REMARK    1  A    between atoms: C_1  and  O_2
REMARK    2  A    between atoms: O_2  and  C_3
REMARK    3  A    between atoms: C_6  and  C_7
REMARK    4  A    between atoms: C_8  and  C_9
REMARK    5  A    between atoms: C_8  and  C_25
REMARK    6  A    between atoms: C_17  and  C_18
REMARK    7  A    between atoms: N_20  and  O_21
REMARK                            x       y       z     vdW  Elec       q    Type
REMARK                         _______ _______ _______ _____ _____    ______ ____
ROOT
ATOM      1  C   UNL     1       1.700   8.003  19.622  0.00  0.00    +0.000 C 
ATOM      2  O   UNL     1       1.506   7.694  20.807  0.00  0.00    +0.000 OA
ATOM      3  N   UNL     1       1.199   9.227  19.161  0.00  0.00    +0.000 N 
ATOM      4  C   UNL     1       0.985  10.131  20.296  0.00  0.00    +0.000 C 
ATOM      5  C   UNL     1       0.757  11.545  19.830  0.00  0.00    +0.000 C 
ATOM      6  C   UNL     1      -0.618  11.482  19.239  0.00  0.00    +0.000 A 
ATOM      7  C   UNL     1      -1.614  12.281  19.794  0.00  0.00    +0.000 A 
ATOM      8  C   UNL     1      -2.912  12.149  19.356  0.00  0.00    +0.000 A 
ATOM      9  C   UNL     1      -3.238  11.290  18.296  0.00  0.00    +0.000 A 
ATOM     10  C   UNL     1      -2.222  10.438  17.756  0.00  0.00    +0.000 A 
ATOM     11  C   UNL     1      -0.896  10.472  18.286  0.00  0.00    +0.000 A 
ATOM     12  C   UNL     1       0.289   9.484  17.967  0.00  0.00    +0.000 C 
ENDROOT
BRANCH   9  13
ATOM     13  C   UNL     1      -4.675  11.433  17.892  0.00  0.00    +0.000 C 
ATOM     14  O   UNL     1      -5.532  10.656  18.318  0.00  0.00    +0.000 OA
ATOM     15  N   UNL     1      -5.071  12.421  17.028  0.00  0.00    +0.000 N 
ATOM     16  H   UNL     1      -4.491  13.068  16.518  0.00  0.00    +0.000 HD
BRANCH  15  17
ATOM     17  O   UNL     1      -6.450  12.361  16.689  0.00  0.00    +0.000 OA
ATOM     18  H   UNL     1      -6.681  11.437  16.937  0.00  0.00    +0.000 HD
ENDBRANCH  15  17
ENDBRANCH   9  13
BRANCH   1  20
ATOM     19  C   UNL     1       3.791   7.512  18.237  0.00  0.00    +0.000 C 
ATOM     20  C   UNL     1       2.660   7.100  18.851  0.00  0.00    +0.000 C 
BRANCH  19  24
ATOM     21  C   UNL     1       6.574   5.211  15.858  0.00  0.00    +0.000 A 
ATOM     22  C   UNL     1       5.531   5.926  15.284  0.00  0.00    +0.000 A 
ATOM     23  C   UNL     1       4.623   6.650  16.064  0.00  0.00    +0.000 A 
ATOM     24  C   UNL     1       4.733   6.663  17.458  0.00  0.00    +0.000 A 
ATOM     25  C   UNL     1       5.756   5.902  18.044  0.00  0.00    +0.000 A 
ATOM     26  C   UNL     1       6.675   5.182  17.248  0.00  0.00    +0.000 A 
BRANCH  21  28
ATOM     27  C   UNL     1       6.774   4.091  13.774  0.00  0.00    +0.000 C 
ATOM     28  O   UNL     1       7.382   4.546  14.977  0.00  0.00    +0.000 OA
ENDBRANCH  21  28
ENDBRANCH  19  24
BRANCH  20  29
ATOM     29  C   UNL     1       2.376   5.634  18.999  0.00  0.00    +0.000 A 
ATOM     30  C   UNL     1       1.778   4.898  17.956  0.00  0.00    +0.000 A 
ATOM     31  C   UNL     1       1.678   3.501  18.028  0.00  0.00    +0.000 A 
ATOM     32  C   UNL     1       2.175   2.825  19.139  0.00  0.00    +0.000 A 
ATOM     33  C   UNL     1       2.760   3.544  20.179  0.00  0.00    +0.000 A 
ATOM     34  C   UNL     1       2.862   4.938  20.112  0.00  0.00    +0.000 A 
ENDBRANCH  20  29
ENDBRANCH   1  20
TORSDOF 6
ENDMDL
MODEL 2
REMARK VINA RESULT:      -9.2      0.594      1.078
REMARK  Name = 
REMARK  7 active torsions:
REMARK  status: ('A' for Active; 'I' for Inactive)
REMARK    1  A    between atoms: C_1  and  O_2
REMARK    2  A    between atoms: O_2  and  C_3
REMARK    3  A    between atoms: C_6  and  C_7
REMARK    4  A    between atoms: C_8  and  C_9
REMARK    5  A    between atoms: C_8  and  C_25
REMARK    6  A    between atoms: C_17  and  C_18
REMARK    7  A    between atoms: N_20  and  O_21
REMARK                            x       y       z     vdW  Elec       q    Type
REMARK                         _______ _______ _______ _____ _____    ______ ____
ROOT
ATOM      1  C   UNL     1       1.746   7.837  19.567  0.00  0.00    +0.000 C 
ATOM      2  O   UNL     1       1.480   7.455  20.717  0.00  0.00    +0.000 OA
ATOM      3  N   UNL     1       1.271   9.087  19.153  0.00  0.00    +0.000 N 
ATOM      4  C   UNL     1       0.984   9.920  20.325  0.00  0.00    +0.000 C 
ATOM      5  C   UNL     1       0.782  11.360  19.934  0.00  0.00    +0.000 C 
ATOM      6  C   UNL     1      -0.554  11.334  19.257  0.00  0.00    +0.000 A 
ATOM      7  C   UNL     1      -1.584  12.099  19.797  0.00  0.00    +0.000 A 
ATOM      8  C   UNL     1      -2.852  11.996  19.272  0.00  0.00    +0.000 A 
ATOM      9  C   UNL     1      -3.111  11.204  18.143  0.00  0.00    +0.000 A 
ATOM     10  C   UNL     1      -2.061  10.385  17.615  0.00  0.00    +0.000 A 
ATOM     11  C   UNL     1      -0.770  10.385  18.227  0.00  0.00    +0.000 A 
ATOM     12  C   UNL     1       0.435   9.418  17.922  0.00  0.00    +0.000 C 
ENDROOT
BRANCH   9  13
ATOM     13  C   UNL     1      -4.520  11.373  17.661  0.00  0.00    +0.000 C 
ATOM     14  O   UNL     1      -4.761  11.965  16.606  0.00  0.00    +0.000 OA
ATOM     15  N   UNL     1      -5.577  10.887  18.385  0.00  0.00    +0.000 N 
ATOM     16  H   UNL     1      -5.561  10.473  19.304  0.00  0.00    +0.000 HD
BRANCH  15  17
ATOM     17  O   UNL     1      -6.845  11.205  17.826  0.00  0.00    +0.000 OA
ATOM     18  H   UNL     1      -7.123  10.340  17.448  0.00  0.00    +0.000 HD
ENDBRANCH  15  17
ENDBRANCH   9  13
BRANCH   1  20
ATOM     19  C   UNL     1       3.860   7.451  18.184  0.00  0.00    +0.000 C 
ATOM     20  C   UNL     1       2.754   6.982  18.803  0.00  0.00    +0.000 C 
BRANCH  19  24
ATOM     21  C   UNL     1       6.750   5.280  15.810  0.00  0.00    +0.000 A 
ATOM     22  C   UNL     1       5.606   5.834  15.251  0.00  0.00    +0.000 A 
ATOM     23  C   UNL     1       4.667   6.516  16.032  0.00  0.00    +0.000 A 
ATOM     24  C   UNL     1       4.848   6.649  17.412  0.00  0.00    +0.000 A 
ATOM     25  C   UNL     1       5.978   6.047  17.987  0.00  0.00    +0.000 A 
ATOM     26  C   UNL     1       6.927   5.370  17.190  0.00  0.00    +0.000 A 
BRANCH  21  28
ATOM     27  C   UNL     1       7.062   4.401  13.627  0.00  0.00    +0.000 C 
ATOM     28  O   UNL     1       7.578   4.639  14.931  0.00  0.00    +0.000 OA
ENDBRANCH  21  28
ENDBRANCH  19  24
BRANCH  20  29
ATOM     29  C   UNL     1       2.552   5.503  18.963  0.00  0.00    +0.000 A 
ATOM     30  C   UNL     1       2.999   4.826  20.115  0.00  0.00    +0.000 A 
ATOM     31  C   UNL     1       2.654   3.486  20.342  0.00  0.00    +0.000 A 
ATOM     32  C   UNL     1       1.856   2.810  19.422  0.00  0.00    +0.000 A 
ATOM     33  C   UNL     1       1.417   3.468  18.275  0.00  0.00    +0.000 A 
ATOM     34  C   UNL     1       1.760   4.804  18.045  0.00  0.00    +0.000 A 
ENDBRANCH  20  29
ENDBRANCH   1  20
TORSDOF 6
ENDMDL
MODEL 3
REMARK VINA RESULT:      -8.9      1.190      1.345
REMARK  Name = 
REMARK  7 active torsions:
REMARK  status: ('A' for Active; 'I' for Inactive)
REMARK    1  A    between atoms: C_1  and  O_2
REMARK    2  A    between atoms: O_2  and  C_3
REMARK    3  A    between atoms: C_6  and  C_7
REMARK    4  A    between atoms: C_8  and  C_9
REMARK    5  A    between atoms: C_8  and  C_25
REMARK    6  A    between atoms: C_17  and  C_18
REMARK    7  A    between atoms: N_20  and  O_21
REMARK                            x       y       z     vdW  Elec       q    Type
REMARK                         _______ _______ _______ _____ _____    ______ ____
ROOT
ATOM      1  C   UNL     1       1.997   6.851  19.745  0.00  0.00    +0.000 C 
ATOM      2  O   UNL     1       1.471   6.125  20.602  0.00  0.00    +0.000 OA
ATOM      3  N   UNL     1       1.743   8.227  19.789  0.00  0.00    +0.000 N 
ATOM      4  C   UNL     1       1.315   8.607  21.138  0.00  0.00    +0.000 C 
ATOM      5  C   UNL     1       1.340  10.102  21.317  0.00  0.00    +0.000 C 
ATOM      6  C   UNL     1       0.170  10.553  20.499  0.00  0.00    +0.000 A 
ATOM      7  C   UNL     1      -0.865  11.229  21.140  0.00  0.00    +0.000 A 
ATOM      8  C   UNL     1      -2.008  11.541  20.439  0.00  0.00    +0.000 A 
ATOM      9  C   UNL     1      -2.115  11.276  19.066  0.00  0.00    +0.000 A 
ATOM     10  C   UNL     1      -1.069  10.542  18.418  0.00  0.00    +0.000 A 
ATOM     11  C   UNL     1       0.067  10.100  19.161  0.00  0.00    +0.000 A 
ATOM     12  C   UNL     1       1.206   9.123  18.679  0.00  0.00    +0.000 C 
ENDROOT
BRANCH   9  13
ATOM     13  C   UNL     1      -3.376  11.845  18.490  0.00  0.00    +0.000 C 
ATOM     14  O   UNL     1      -4.259  12.296  19.224  0.00  0.00    +0.000 OA
ATOM     15  N   UNL     1      -3.587  11.867  17.137  0.00  0.00    +0.000 N 
ATOM     16  H   UNL     1      -3.019  11.455  16.413  0.00  0.00    +0.000 HD
BRANCH  15  17
ATOM     17  O   UNL     1      -4.866  12.366  16.767  0.00  0.00    +0.000 OA
ATOM     18  H   UNL     1      -5.436  11.572  16.884  0.00  0.00    +0.000 HD
ENDBRANCH  15  17
ENDBRANCH   9  13
BRANCH   1  20
ATOM     19  C   UNL     1       4.076   6.812  18.258  0.00  0.00    +0.000 C 
ATOM     20  C   UNL     1       3.046   6.178  18.862  0.00  0.00    +0.000 C 
BRANCH  19  24
ATOM     21  C   UNL     1       7.019   5.163  15.552  0.00  0.00    +0.000 A 
ATOM     22  C   UNL     1       5.728   5.464  15.140  0.00  0.00    +0.000 A 
ATOM     23  C   UNL     1       4.777   5.977  16.029  0.00  0.00    +0.000 A 
ATOM     24  C   UNL     1       5.098   6.191  17.372  0.00  0.00    +0.000 A 
ATOM     25  C   UNL     1       6.387   5.841  17.803  0.00  0.00    +0.000 A 
ATOM     26  C   UNL     1       7.345   5.334  16.897  0.00  0.00    +0.000 A 
BRANCH  21  28
ATOM     27  C   UNL     1       7.418   4.842  13.234  0.00  0.00    +0.000 C 
ATOM     28  O   UNL     1       7.842   4.665  14.580  0.00  0.00    +0.000 OA
ENDBRANCH  21  28
ENDBRANCH  19  24
BRANCH  20  29
ATOM     29  C   UNL     1       2.989   4.678  18.874  0.00  0.00    +0.000 A 
ATOM     30  C   UNL     1       2.193   3.971  17.950  0.00  0.00    +0.000 A 
ATOM     31  C   UNL     1       2.278   2.575  17.848  0.00  0.00    +0.000 A 
ATOM     32  C   UNL     1       3.161   1.872  18.664  0.00  0.00    +0.000 A 
ATOM     33  C   UNL     1       3.945   2.561  19.587  0.00  0.00    +0.000 A 
ATOM     34  C   UNL     1       3.862   3.954  19.692  0.00  0.00    +0.000 A 
ENDBRANCH  20  29
ENDBRANCH   1  20
TORSDOF 6
ENDMDL
MODEL 4
REMARK VINA RESULT:      -8.6      0.427      1.246
REMARK  Name = 
REMARK  7 active torsions:
REMARK  status: ('A' for Active; 'I' for Inactive)
REMARK    1  A    between atoms: C_1  and  O_2
REMARK    2  A    between atoms: O_2  and  C_3
REMARK    3  A    between atoms: C_6  and  C_7
REMARK    4  A    between atoms: C_8  and  C_9
REMARK    5  A    between atoms: C_8  and  C_25
REMARK    6  A    between atoms: C_17  and  C_18
REMARK    7  A    between atoms: N_20  and  O_21
REMARK                            x       y       z     vdW  Elec       q    Type
REMARK                         _______ _______ _______ _____ _____    ______ ____
ROOT
ATOM      1  C   UNL     1       1.813   7.845  19.500  0.00  0.00    +0.000 C 
ATOM      2  O   UNL     1       1.572   7.354  20.613  0.00  0.00    +0.000 OA
ATOM      3  N   UNL     1       1.323   9.125  19.215  0.00  0.00    +0.000 N 
ATOM      4  C   UNL     1       1.055   9.841  20.466  0.00  0.00    +0.000 C 
ATOM      5  C   UNL     1       0.837  11.310  20.217  0.00  0.00    +0.000 C 
ATOM      6  C   UNL     1      -0.512  11.339  19.567  0.00  0.00    +0.000 A 
ATOM      7  C   UNL     1      -1.535  12.042  20.197  0.00  0.00    +0.000 A 
ATOM      8  C   UNL     1      -2.813  11.979  19.690  0.00  0.00    +0.000 A 
ATOM      9  C   UNL     1      -3.090  11.296  18.496  0.00  0.00    +0.000 A 
ATOM     10  C   UNL     1      -2.046  10.538  17.873  0.00  0.00    +0.000 A 
ATOM     11  C   UNL     1      -0.744  10.490  18.457  0.00  0.00    +0.000 A 
ATOM     12  C   UNL     1       0.461   9.565  18.038  0.00  0.00    +0.000 C 
ENDROOT
BRANCH   9  13
ATOM     13  C   UNL     1      -4.509  11.499  18.060  0.00  0.00    +0.000 C 
ATOM     14  O   UNL     1      -5.441  10.970  18.671  0.00  0.00    +0.000 OA
ATOM     15  N   UNL     1      -4.808  12.265  16.964  0.00  0.00    +0.000 N 
ATOM     16  H   UNL     1      -4.169  12.681  16.304  0.00  0.00    +0.000 HD
BRANCH  15  17
ATOM     17  O   UNL     1      -6.193  12.285  16.643  0.00  0.00    +0.000 OA
ATOM     18  H   UNL     1      -6.361  11.344  16.409  0.00  0.00    +0.000 HD
ENDBRANCH  15  17
ENDBRANCH   9  13
BRANCH   1  20
ATOM     19  C   UNL     1       3.865   7.619  17.993  0.00  0.00    +0.000 C 
ATOM     20  C   UNL     1       2.810   7.073  18.638  0.00  0.00    +0.000 C 
BRANCH  19  24
ATOM     21  C   UNL     1       6.712   5.386  15.624  0.00  0.00    +0.000 A 
ATOM     22  C   UNL     1       6.990   5.788  16.923  0.00  0.00    +0.000 A 
ATOM     23  C   UNL     1       6.071   6.528  17.674  0.00  0.00    +0.000 A 
ATOM     24  C   UNL     1       4.839   6.900  17.127  0.00  0.00    +0.000 A 
ATOM     25  C   UNL     1       4.575   6.540  15.797  0.00  0.00    +0.000 A 
ATOM     26  C   UNL     1       5.504   5.782  15.050  0.00  0.00    +0.000 A 
BRANCH  21  28
ATOM     27  C   UNL     1       7.722   4.708  13.586  0.00  0.00    +0.000 C 
ATOM     28  O   UNL     1       7.702   4.673  15.007  0.00  0.00    +0.000 OA
ENDBRANCH  21  28
ENDBRANCH  19  24
BRANCH  20  29
ATOM     29  C   UNL     1       2.671   5.581  18.724  0.00  0.00    +0.000 A 
ATOM     30  C   UNL     1       3.358   4.839  19.705  0.00  0.00    +0.000 A 
ATOM     31  C   UNL     1       3.090   3.476  19.895  0.00  0.00    +0.000 A 
ATOM     32  C   UNL     1       2.131   2.841  19.110  0.00  0.00    +0.000 A 
ATOM     33  C   UNL     1       1.453   3.564  18.131  0.00  0.00    +0.000 A 
ATOM     34  C   UNL     1       1.718   4.924  17.938  0.00  0.00    +0.000 A 
ENDBRANCH  20  29
ENDBRANCH   1  20
TORSDOF 6
ENDMDL
MODEL 5
REMARK VINA RESULT:      -8.4      1.581      1.952
REMARK  Name = 
REMARK  7 active torsions:
REMARK  status: ('A' for Active; 'I' for Inactive)
REMARK    1  A    between atoms: C_1  and  O_2
REMARK    2  A    between atoms: O_2  and  C_3
REMARK    3  A    between atoms: C_6  and  C_7
REMARK    4  A    between atoms: C_8  and  C_9
REMARK    5  A    between atoms: C_8  and  C_25
REMARK    6  A    between atoms: C_17  and  C_18
REMARK    7  A    between atoms: N_20  and  O_21
REMARK                            x       y       z     vdW  Elec       q    Type
REMARK                         _______ _______ _______ _____ _____    ______ ____
ROOT
ATOM      1  C   UNL     1       1.885   6.729  20.058  0.00  0.00    +0.000 C 
ATOM      2  O   UNL     1       1.286   5.907  20.769  0.00  0.00    +0.000 OA
ATOM      3  N   UNL     1       1.752   8.091  20.357  0.00  0.00    +0.000 N 
ATOM      4  C   UNL     1       1.342   8.252  21.755  0.00  0.00    +0.000 C 
ATOM      5  C   UNL     1       1.498   9.680  22.207  0.00  0.00    +0.000 C 
ATOM      6  C   UNL     1       0.382  10.377  21.490  0.00  0.00    +0.000 A 
ATOM      7  C   UNL     1      -0.597  11.013  22.249  0.00  0.00    +0.000 A 
ATOM      8  C   UNL     1      -1.698  11.549  21.622  0.00  0.00    +0.000 A 
ATOM      9  C   UNL     1      -1.811  11.551  20.224  0.00  0.00    +0.000 A 
ATOM     10  C   UNL     1      -0.826  10.860  19.447  0.00  0.00    +0.000 A 
ATOM     11  C   UNL     1       0.257  10.188  20.091  0.00  0.00    +0.000 A 
ATOM     12  C   UNL     1       1.311   9.219  19.434  0.00  0.00    +0.000 C 
ENDROOT
BRANCH   9  13
ATOM     13  C   UNL     1      -3.010  12.328  19.767  0.00  0.00    +0.000 C 
ATOM     14  O   UNL     1      -3.682  11.946  18.807  0.00  0.00    +0.000 OA
ATOM     15  N   UNL     1      -3.381  13.488  20.396  0.00  0.00    +0.000 N 
ATOM     16  H   UNL     1      -2.890  13.984  21.123  0.00  0.00    +0.000 HD
BRANCH  15  17
ATOM     17  O   UNL     1      -4.488  14.137  19.785  0.00  0.00    +0.000 OA
ATOM     18  H   UNL     1      -4.383  13.876  18.842  0.00  0.00    +0.000 HD
ENDBRANCH  15  17
ENDBRANCH   9  13
BRANCH   1  20
ATOM     19  C   UNL     1       3.904   6.816  18.493  0.00  0.00    +0.000 C 
ATOM     20  C   UNL     1       2.882   6.140  19.062  0.00  0.00    +0.000 C 
BRANCH  19  24
ATOM     21  C   UNL     1       6.742   5.445  15.532  0.00  0.00    +0.000 A 
ATOM     22  C   UNL     1       5.580   6.118  15.181  0.00  0.00    +0.000 A 
ATOM     23  C   UNL     1       4.657   6.538  16.145  0.00  0.00    +0.000 A 
ATOM     24  C   UNL     1       4.875   6.279  17.501  0.00  0.00    +0.000 A 
ATOM     25  C   UNL     1       6.024   5.555  17.856  0.00  0.00    +0.000 A 
ATOM     26  C   UNL     1       6.956   5.144  16.877  0.00  0.00    +0.000 A 
BRANCH  21  28
ATOM     27  C   UNL     1       6.978   4.247  13.497  0.00  0.00    +0.000 C 
ATOM     28  O   UNL     1       7.551   5.090  14.489  0.00  0.00    +0.000 OA
ENDBRANCH  21  28
ENDBRANCH  19  24
BRANCH  20  29
ATOM     29  C   UNL     1       2.786   4.650  18.906  0.00  0.00    +0.000 A 
ATOM     30  C   UNL     1       2.101   4.073  17.818  0.00  0.00    +0.000 A 
ATOM     31  C   UNL     1       2.165   2.693  17.578  0.00  0.00    +0.000 A 
ATOM     32  C   UNL     1       2.914   1.875  18.420  0.00  0.00    +0.000 A 
ATOM     33  C   UNL     1       3.588   2.435  19.504  0.00  0.00    +0.000 A 
ATOM     34  C   UNL     1       3.526   3.812  19.747  0.00  0.00    +0.000 A 
ENDBRANCH  20  29
ENDBRANCH   1  20
TORSDOF 6
ENDMDL
MODEL 6
REMARK VINA RESULT:      -8.3      2.946     10.205
REMARK  Name = 
REMARK  7 active torsions:
REMARK  status: ('A' for Active; 'I' for Inactive)
REMARK    1  A    between atoms: C_1  and  O_2
REMARK    2  A    between atoms: O_2  and  C_3
REMARK    3  A    between atoms: C_6  and  C_7
REMARK    4  A    between atoms: C_8  and  C_9
REMARK    5  A    between atoms: C_8  and  C_25
REMARK    6  A    between atoms: C_17  and  C_18
REMARK    7  A    between atoms: N_20  and  O_21
REMARK                            x       y       z     vdW  Elec       q    Type
REMARK                         _______ _______ _______ _____ _____    ______ ____
ROOT
ATOM      1  C   UNL     1       1.067   9.637  21.694  0.00  0.00    +0.000 C 
ATOM      2  O   UNL     1       1.778   9.530  22.706  0.00  0.00    +0.000 OA
ATOM      3  N   UNL     1       1.092   8.605  20.749  0.00  0.00    +0.000 N 
ATOM      4  C   UNL     1       1.564   7.369  21.380  0.00  0.00    +0.000 C 
ATOM      5  C   UNL     1       1.306   6.175  20.500  0.00  0.00    +0.000 C 
ATOM      6  C   UNL     1       2.311   6.348  19.403  0.00  0.00    +0.000 A 
ATOM      7  C   UNL     1       3.269   5.355  19.220  0.00  0.00    +0.000 A 
ATOM      8  C   UNL     1       4.280   5.549  18.306  0.00  0.00    +0.000 A 
ATOM      9  C   UNL     1       4.312   6.687  17.486  0.00  0.00    +0.000 A 
ATOM     10  C   UNL     1       3.352   7.726  17.705  0.00  0.00    +0.000 A 
ATOM     11  C   UNL     1       2.372   7.597  18.736  0.00  0.00    +0.000 A 
ATOM     12  C   UNL     1       1.375   8.701  19.255  0.00  0.00    +0.000 C 
ENDROOT
BRANCH   9  13
ATOM     13  C   UNL     1       5.407   6.602  16.466  0.00  0.00    +0.000 C 
ATOM     14  O   UNL     1       5.192   6.874  15.283  0.00  0.00    +0.000 OA
ATOM     15  N   UNL     1       6.671   6.205  16.818  0.00  0.00    +0.000 N 
ATOM     16  H   UNL     1       6.986   5.857  17.709  0.00  0.00    +0.000 HD
BRANCH  15  17
ATOM     17  O   UNL     1       7.563   6.102  15.715  0.00  0.00    +0.000 OA
ATOM     18  H   UNL     1       8.289   6.710  15.984  0.00  0.00    +0.000 HD
ENDBRANCH  15  17
ENDBRANCH   9  13
BRANCH   1  20
ATOM     19  C   UNL     1      -0.656  11.187  22.773  0.00  0.00    +0.000 C 
ATOM     20  C   UNL     1       0.073  10.797  21.704  0.00  0.00    +0.000 C 
BRANCH  19  24
ATOM     21  C   UNL     1      -3.413  14.518  22.763  0.00  0.00    +0.000 A 
ATOM     22  C   UNL     1      -2.098  14.653  23.187  0.00  0.00    +0.000 A 
ATOM     23  C   UNL     1      -1.220  13.564  23.207  0.00  0.00    +0.000 A 
ATOM     24  C   UNL     1      -1.649  12.295  22.809  0.00  0.00    +0.000 A 
ATOM     25  C   UNL     1      -2.991  12.145  22.427  0.00  0.00    +0.000 A 
ATOM     26  C   UNL     1      -3.868  13.252  22.399  0.00  0.00    +0.000 A 
BRANCH  21  28
ATOM     27  C   UNL     1      -4.908  15.898  23.986  0.00  0.00    +0.000 C 
ATOM     28  O   UNL     1      -4.160  15.663  22.800  0.00  0.00    +0.000 OA
ENDBRANCH  21  28
ENDBRANCH  19  24
BRANCH  20  29
ATOM     29  C   UNL     1       0.108  11.646  20.467  0.00  0.00    +0.000 A 
ATOM     30  C   UNL     1      -0.903  11.554  19.490  0.00  0.00    +0.000 A 
ATOM     31  C   UNL     1      -0.963  12.468  18.429  0.00  0.00    +0.000 A 
ATOM     32  C   UNL     1      -0.018  13.486  18.334  0.00  0.00    +0.000 A 
ATOM     33  C   UNL     1       0.991  13.580  19.291  0.00  0.00    +0.000 A 
ATOM     34  C   UNL     1       1.055  12.669  20.351  0.00  0.00    +0.000 A 
ENDBRANCH  20  29
ENDBRANCH   1  20
TORSDOF 6
ENDMDL
MODEL 7
REMARK VINA RESULT:      -8.3      1.482      1.922
REMARK  Name = 
REMARK  7 active torsions:
REMARK  status: ('A' for Active; 'I' for Inactive)
REMARK    1  A    between atoms: C_1  and  O_2
REMARK    2  A    between atoms: O_2  and  C_3
REMARK    3  A    between atoms: C_6  and  C_7
REMARK    4  A    between atoms: C_8  and  C_9
REMARK    5  A    between atoms: C_8  and  C_25
REMARK    6  A    between atoms: C_17  and  C_18
REMARK    7  A    between atoms: N_20  and  O_21
REMARK                            x       y       z     vdW  Elec       q    Type
REMARK                         _______ _______ _______ _____ _____    ______ ____
ROOT
ATOM      1  C   UNL     1       1.907   6.753  19.907  0.00  0.00    +0.000 C 
ATOM      2  O   UNL     1       1.329   5.939  20.644  0.00  0.00    +0.000 OA
ATOM      3  N   UNL     1       1.755   8.119  20.174  0.00  0.00    +0.000 N 
ATOM      4  C   UNL     1       1.357   8.308  21.572  0.00  0.00    +0.000 C 
ATOM      5  C   UNL     1       1.494   9.749  21.988  0.00  0.00    +0.000 C 
ATOM      6  C   UNL     1       0.360  10.410  21.266  0.00  0.00    +0.000 A 
ATOM      7  C   UNL     1      -0.621  11.048  22.020  0.00  0.00    +0.000 A 
ATOM      8  C   UNL     1      -1.738  11.552  21.393  0.00  0.00    +0.000 A 
ATOM      9  C   UNL     1      -1.866  11.518  19.996  0.00  0.00    +0.000 A 
ATOM     10  C   UNL     1      -0.878  10.823  19.226  0.00  0.00    +0.000 A 
ATOM     11  C   UNL     1       0.223  10.185  19.874  0.00  0.00    +0.000 A 
ATOM     12  C   UNL     1       1.286   9.217  19.229  0.00  0.00    +0.000 C 
ENDROOT
BRANCH   9  13
ATOM     13  C   UNL     1      -3.081  12.263  19.534  0.00  0.00    +0.000 C 
ATOM     14  O   UNL     1      -3.592  13.138  20.238  0.00  0.00    +0.000 OA
ATOM     15  N   UNL     1      -3.665  11.983  18.327  0.00  0.00    +0.000 N 
ATOM     16  H   UNL     1      -3.436  11.241  17.684  0.00  0.00    +0.000 HD
BRANCH  15  17
ATOM     17  O   UNL     1      -4.853  12.725  18.082  0.00  0.00    +0.000 OA
ATOM     18  H   UNL     1      -4.555  13.368  17.400  0.00  0.00    +0.000 HD
ENDBRANCH  15  17
ENDBRANCH   9  13
BRANCH   1  20
ATOM     19  C   UNL     1       3.853   6.851  18.253  0.00  0.00    +0.000 C 
ATOM     20  C   UNL     1       2.902   6.155  18.915  0.00  0.00    +0.000 C 
BRANCH  19  24
ATOM     21  C   UNL     1       6.776   5.191  15.532  0.00  0.00    +0.000 A 
ATOM     22  C   UNL     1       7.132   6.065  16.551  0.00  0.00    +0.000 A 
ATOM     23  C   UNL     1       6.175   6.614  17.412  0.00  0.00    +0.000 A 
ATOM     24  C   UNL     1       4.820   6.305  17.263  0.00  0.00    +0.000 A 
ATOM     25  C   UNL     1       4.451   5.461  16.204  0.00  0.00    +0.000 A 
ATOM     26  C   UNL     1       5.424   4.903  15.345  0.00  0.00    +0.000 A 
BRANCH  21  28
ATOM     27  C   UNL     1       7.803   5.115  13.394  0.00  0.00    +0.000 C 
ATOM     28  O   UNL     1       7.811   4.736  14.764  0.00  0.00    +0.000 OA
ENDBRANCH  21  28
ENDBRANCH  19  24
BRANCH  20  29
ATOM     29  C   UNL     1       2.903   4.655  18.873  0.00  0.00    +0.000 A 
ATOM     30  C   UNL     1       2.041   3.949  18.010  0.00  0.00    +0.000 A 
ATOM     31  C   UNL     1       2.167   2.562  17.844  0.00  0.00    +0.000 A 
ATOM     32  C   UNL     1       3.156   1.867  18.535  0.00  0.00    +0.000 A 
ATOM     33  C   UNL     1       4.008   2.555  19.397  0.00  0.00    +0.000 A 
ATOM     34  C   UNL     1       3.885   3.939  19.566  0.00  0.00    +0.000 A 
ENDBRANCH  20  29
ENDBRANCH   1  20
TORSDOF 6
ENDMDL
MODEL 8
REMARK VINA RESULT:      -8.2      3.543     10.301
REMARK  Name = 
REMARK  7 active torsions:
REMARK  status: ('A' for Active; 'I' for Inactive)
REMARK    1  A    between atoms: C_1  and  O_2
REMARK    2  A    between atoms: O_2  and  C_3
REMARK    3  A    between atoms: C_6  and  C_7
REMARK    4  A    between atoms: C_8  and  C_9
REMARK    5  A    between atoms: C_8  and  C_25
REMARK    6  A    between atoms: C_17  and  C_18
REMARK    7  A    between atoms: N_20  and  O_21
REMARK                            x       y       z     vdW  Elec       q    Type
REMARK                         _______ _______ _______ _____ _____    ______ ____
ROOT
ATOM      1  C   UNL     1      -0.316  10.581  19.123  0.00  0.00    +0.000 C 
ATOM      2  O   UNL     1      -1.044  10.420  18.132  0.00  0.00    +0.000 OA
ATOM      3  N   UNL     1       0.820   9.774  19.256  0.00  0.00    +0.000 N 
ATOM      4  C   UNL     1       1.204   9.244  17.944  0.00  0.00    +0.000 C 
ATOM      5  C   UNL     1       2.585   8.643  17.983  0.00  0.00    +0.000 C 
ATOM      6  C   UNL     1       2.374   7.380  18.761  0.00  0.00    +0.000 A 
ATOM      7  C   UNL     1       2.659   6.166  18.142  0.00  0.00    +0.000 A 
ATOM      8  C   UNL     1       2.354   4.989  18.786  0.00  0.00    +0.000 A 
ATOM      9  C   UNL     1       1.848   4.985  20.094  0.00  0.00    +0.000 A 
ATOM     10  C   UNL     1       1.515   6.233  20.713  0.00  0.00    +0.000 A 
ATOM     11  C   UNL     1       1.707   7.460  20.008  0.00  0.00    +0.000 A 
ATOM     12  C   UNL     1       1.221   8.897  20.435  0.00  0.00    +0.000 C 
ENDROOT
BRANCH   9  13
ATOM     13  C   UNL     1       1.746   3.593  20.642  0.00  0.00    +0.000 C 
ATOM     14  O   UNL     1       1.353   2.662  19.936  0.00  0.00    +0.000 OA
ATOM     15  N   UNL     1       2.072   3.322  21.945  0.00  0.00    +0.000 N 
ATOM     16  H   UNL     1       2.313   3.976  22.674  0.00  0.00    +0.000 HD
BRANCH  15  17
ATOM     17  O   UNL     1       1.840   1.971  22.322  0.00  0.00    +0.000 OA
ATOM     18  H   UNL     1       2.577   1.504  21.865  0.00  0.00    +0.000 HD
ENDBRANCH  15  17
ENDBRANCH   9  13
BRANCH   1  20
ATOM     19  C   UNL     1      -1.550  11.842  20.973  0.00  0.00    +0.000 C 
ATOM     20  C   UNL     1      -0.631  11.804  19.983  0.00  0.00    +0.000 C 
BRANCH  19  24
ATOM     21  C   UNL     1      -2.360  15.309  23.427  0.00  0.00    +0.000 A 
ATOM     22  C   UNL     1      -1.524  14.286  23.853  0.00  0.00    +0.000 A 
ATOM     23  C   UNL     1      -1.285  13.158  23.060  0.00  0.00    +0.000 A 
ATOM     24  C   UNL     1      -1.898  13.022  21.811  0.00  0.00    +0.000 A 
ATOM     25  C   UNL     1      -2.783  14.030  21.399  0.00  0.00    +0.000 A 
ATOM     26  C   UNL     1      -3.010  15.171  22.201  0.00  0.00    +0.000 A 
BRANCH  21  28
ATOM     27  C   UNL     1      -3.762  16.454  24.963  0.00  0.00    +0.000 C 
ATOM     28  O   UNL     1      -2.506  16.348  24.304  0.00  0.00    +0.000 OA
ENDBRANCH  21  28
ENDBRANCH  19  24
BRANCH  20  29
ATOM     29  C   UNL     1       0.324  12.947  19.800  0.00  0.00    +0.000 A 
ATOM     30  C   UNL     1       0.001  14.043  18.975  0.00  0.00    +0.000 A 
ATOM     31  C   UNL     1       0.814  15.185  18.945  0.00  0.00    +0.000 A 
ATOM     32  C   UNL     1       1.955  15.246  19.741  0.00  0.00    +0.000 A 
ATOM     33  C   UNL     1       2.288  14.164  20.553  0.00  0.00    +0.000 A 
ATOM     34  C   UNL     1       1.480  13.022  20.585  0.00  0.00    +0.000 A 
ENDBRANCH  20  29
ENDBRANCH   1  20
TORSDOF 6
ENDMDL
MODEL 9
REMARK VINA RESULT:      -8.1      2.994     10.232
REMARK  Name = 
REMARK  7 active torsions:
REMARK  status: ('A' for Active; 'I' for Inactive)
REMARK    1  A    between atoms: C_1  and  O_2
REMARK    2  A    between atoms: O_2  and  C_3
REMARK    3  A    between atoms: C_6  and  C_7
REMARK    4  A    between atoms: C_8  and  C_9
REMARK    5  A    between atoms: C_8  and  C_25
REMARK    6  A    between atoms: C_17  and  C_18
REMARK    7  A    between atoms: N_20  and  O_21
REMARK                            x       y       z     vdW  Elec       q    Type
REMARK                         _______ _______ _______ _____ _____    ______ ____
ROOT
ATOM      1  C   UNL     1       1.150   9.744  21.676  0.00  0.00    +0.000 C 
ATOM      2  O   UNL     1       1.850   9.600  22.690  0.00  0.00    +0.000 OA
ATOM      3  N   UNL     1       1.133   8.718  20.724  0.00  0.00    +0.000 N 
ATOM      4  C   UNL     1       1.548   7.458  21.350  0.00  0.00    +0.000 C 
ATOM      5  C   UNL     1       1.241   6.282  20.461  0.00  0.00    +0.000 C 
ATOM      6  C   UNL     1       2.258   6.418  19.369  0.00  0.00    +0.000 A 
ATOM      7  C   UNL     1       3.172   5.384  19.185  0.00  0.00    +0.000 A 
ATOM      8  C   UNL     1       4.195   5.538  18.276  0.00  0.00    +0.000 A 
ATOM      9  C   UNL     1       4.281   6.679  17.464  0.00  0.00    +0.000 A 
ATOM     10  C   UNL     1       3.367   7.758  17.684  0.00  0.00    +0.000 A 
ATOM     11  C   UNL     1       2.377   7.666  18.711  0.00  0.00    +0.000 A 
ATOM     12  C   UNL     1       1.428   8.810  19.232  0.00  0.00    +0.000 C 
ENDROOT
BRANCH   9  13
ATOM     13  C   UNL     1       5.376   6.551  16.448  0.00  0.00    +0.000 C 
ATOM     14  O   UNL     1       5.181   6.848  15.267  0.00  0.00    +0.000 OA
ATOM     15  N   UNL     1       6.617   6.089  16.801  0.00  0.00    +0.000 N 
ATOM     16  H   UNL     1       6.910   5.715  17.690  0.00  0.00    +0.000 HD
BRANCH  15  17
ATOM     17  O   UNL     1       7.509   5.954  15.702  0.00  0.00    +0.000 OA
ATOM     18  H   UNL     1       6.887   5.914  14.940  0.00  0.00    +0.000 HD
ENDBRANCH  15  17
ENDBRANCH   9  13
BRANCH   1  20
ATOM     19  C   UNL     1      -0.698  11.215  22.655  0.00  0.00    +0.000 C 
ATOM     20  C   UNL     1       0.208  10.947  21.689  0.00  0.00    +0.000 C 
BRANCH  19  24
ATOM     21  C   UNL     1      -3.594  14.422  22.821  0.00  0.00    +0.000 A 
ATOM     22  C   UNL     1      -3.861  13.222  22.175  0.00  0.00    +0.000 A 
ATOM     23  C   UNL     1      -2.909  12.199  22.109  0.00  0.00    +0.000 A 
ATOM     24  C   UNL     1      -1.646  12.362  22.684  0.00  0.00    +0.000 A 
ATOM     25  C   UNL     1      -1.355  13.592  23.294  0.00  0.00    +0.000 A 
ATOM     26  C   UNL     1      -2.326  14.616  23.367  0.00  0.00    +0.000 A 
BRANCH  21  28
ATOM     27  C   UNL     1      -5.152  15.708  24.066  0.00  0.00    +0.000 C 
ATOM     28  O   UNL     1      -4.613  15.334  22.805  0.00  0.00    +0.000 OA
ENDBRANCH  21  28
ENDBRANCH  19  24
BRANCH  20  29
ATOM     29  C   UNL     1       0.504  11.970  20.631  0.00  0.00    +0.000 A 
ATOM     30  C   UNL     1       1.686  12.736  20.667  0.00  0.00    +0.000 A 
ATOM     31  C   UNL     1       2.043  13.559  19.589  0.00  0.00    +0.000 A 
ATOM     32  C   UNL     1       1.225  13.623  18.463  0.00  0.00    +0.000 A 
ATOM     33  C   UNL     1       0.049  12.877  18.422  0.00  0.00    +0.000 A 
ATOM     34  C   UNL     1      -0.311  12.055  19.496  0.00  0.00    +0.000 A 
ENDBRANCH  20  29
ENDBRANCH   1  20
TORSDOF 6
ENDMDL
