MODEL 1
REMARK VINA RESULT:      -6.4      0.000      0.000
REMARK  Name = 
REMARK  11 active torsions:
REMARK  status: ('A' for Active; 'I' for Inactive)
REMARK    1  A    between atoms: C_1  and  O_2
REMARK    2  A    between atoms: O_2  and  C_3
REMARK    3  A    between atoms: C_3  and  C_4
REMARK    4  A    between atoms: C_4  and  N_5
REMARK    5  A    between atoms: N_5  and  C_6
REMARK    6  A    between atoms: N_5  and  S_10
REMARK    7  A    between atoms: C_6  and  C_7
REMARK    8  A    between atoms: C_7  and  O_8
REMARK    9  A    between atoms: O_8  and  C_9
REMARK   10  A    between atoms: S_10  and  C_13
REMARK   11  A    between atoms: C_18  and  N_19
REMARK                            x       y       z     vdW  Elec       q    Type
REMARK                         _______ _______ _______ _____ _____    ______ ____
ROOT
ATOM      1  S   UNL     1       6.283   4.728  17.750  0.00  0.00    +0.000 S 
ATOM      2  O   UNL     1       6.625   4.250  16.429  0.00  0.00    +0.000 OA
ATOM      3  O   UNL     1       7.184   4.554  18.868  0.00  0.00    +0.000 OA
ENDROOT
BRANCH   1   4
ATOM      4  C   UNL     1       4.760   3.898  18.124  0.00  0.00    +0.000 A 
ATOM      5  C   UNL     1       3.976   3.368  17.093  0.00  0.00    +0.000 A 
ATOM      6  C   UNL     1       2.711   2.853  17.388  0.00  0.00    +0.000 A 
ATOM      7  C   UNL     1       2.225   2.871  18.702  0.00  0.00    +0.000 A 
ATOM      8 CL   UNL     1       0.624   2.281  18.969  0.00  0.00    +0.000 Cl
ATOM      9  C   UNL     1       3.029   3.399  19.710  0.00  0.00    +0.000 A 
ATOM     10  C   UNL     1       4.300   3.922  19.439  0.00  0.00    +0.000 A 
BRANCH   9  11
ATOM     11  N   UNL     1       2.559   3.463  21.075  0.00  0.00    +0.000 N 
ATOM     12  O   UNL     1       2.889   2.540  21.828  0.00  0.00    +0.000 OA
ATOM     13  O   UNL     1       1.909   4.464  21.398  0.00  0.00    +0.000 OA
ENDBRANCH   9  11
ENDBRANCH   1   4
BRANCH   1  14
ATOM     14  N   UNL     1       5.832   6.401  17.697  0.00  0.00    +0.000 NA
BRANCH  14  15
ATOM     15  C   UNL     1       6.965   7.246  17.134  0.00  0.00    +0.000 C 
BRANCH  15  16
ATOM     16  C   UNL     1       7.993   7.783  18.136  0.00  0.00    +0.000 C 
BRANCH  16  18
ATOM     17  C   UNL     1       8.909   9.784  18.957  0.00  0.00    +0.000 C 
ATOM     18  O   UNL     1       8.415   9.106  17.805  0.00  0.00    +0.000 OA
ENDBRANCH  16  18
ENDBRANCH  15  16
ENDBRANCH  14  15
BRANCH  14  19
ATOM     19  C   UNL     1       4.516   6.653  16.992  0.00  0.00    +0.000 C 
BRANCH  19  20
ATOM     20  C   UNL     1       3.473   7.340  17.884  0.00  0.00    +0.000 C 
BRANCH  20  21
ATOM     21  O   UNL     1       2.782   8.390  17.197  0.00  0.00    +0.000 OA
ATOM     22  C   UNL     1       1.914   9.065  18.113  0.00  0.00    +0.000 C 
ENDBRANCH  20  21
ENDBRANCH  19  20
ENDBRANCH  14  19
ENDBRANCH   1  14
TORSDOF 9
ENDMDL
MODEL 2
REMARK VINA RESULT:      -6.2      3.390      5.417
REMARK  Name = 
REMARK  11 active torsions:
REMARK  status: ('A' for Active; 'I' for Inactive)
REMARK    1  A    between atoms: C_1  and  O_2
REMARK    2  A    between atoms: O_2  and  C_3
REMARK    3  A    between atoms: C_3  and  C_4
REMARK    4  A    between atoms: C_4  and  N_5
REMARK    5  A    between atoms: N_5  and  C_6
REMARK    6  A    between atoms: N_5  and  S_10
REMARK    7  A    between atoms: C_6  and  C_7
REMARK    8  A    between atoms: C_7  and  O_8
REMARK    9  A    between atoms: O_8  and  C_9
REMARK   10  A    between atoms: S_10  and  C_13
REMARK   11  A    between atoms: C_18  and  N_19
REMARK                            x       y       z     vdW  Elec       q    Type
REMARK                         _______ _______ _______ _____ _____    ______ ____
ROOT
ATOM      1  S   UNL     1       3.820   5.868  18.705  0.00  0.00    +0.000 S 
ATOM      2  O   UNL     1       3.802   5.240  20.008  0.00  0.00    +0.000 OA
ATOM      3  O   UNL     1       5.045   6.391  18.142  0.00  0.00    +0.000 OA
ENDROOT
BRANCH   1   4
ATOM      4  C   UNL     1       2.659   7.201  18.858  0.00  0.00    +0.000 A 
ATOM      5  C   UNL     1       2.444   8.074  17.785  0.00  0.00    +0.000 A 
ATOM      6  C   UNL     1       1.643   9.203  17.969  0.00  0.00    +0.000 A 
ATOM      7  C   UNL     1       1.063   9.469  19.217  0.00  0.00    +0.000 A 
ATOM      8 CL   UNL     1       0.148  10.923  19.380  0.00  0.00    +0.000 Cl
ATOM      9  C   UNL     1       1.289   8.580  20.266  0.00  0.00    +0.000 A 
ATOM     10  C   UNL     1       2.088   7.441  20.107  0.00  0.00    +0.000 A 
BRANCH   9  11
ATOM     11  N   UNL     1       0.734   8.826  21.577  0.00  0.00    +0.000 N 
ATOM     12  O   UNL     1       1.445   9.437  22.384  0.00  0.00    +0.000 OA
ATOM     13  O   UNL     1      -0.429   8.454  21.773  0.00  0.00    +0.000 OA
ENDBRANCH   9  11
ENDBRANCH   1   4
BRANCH   1  14
ATOM     14  N   UNL     1       3.097   4.833  17.518  0.00  0.00    +0.000 NA
BRANCH  14  15
ATOM     15  C   UNL     1       4.077   3.756  17.075  0.00  0.00    +0.000 C 
BRANCH  15  16
ATOM     16  C   UNL     1       4.928   4.060  15.837  0.00  0.00    +0.000 C 
BRANCH  16  18
ATOM     17  C   UNL     1       7.069   4.756  15.170  0.00  0.00    +0.000 C 
ATOM     18  O   UNL     1       6.324   4.011  16.128  0.00  0.00    +0.000 OA
ENDBRANCH  16  18
ENDBRANCH  15  16
ENDBRANCH  14  15
BRANCH  14  19
ATOM     19  C   UNL     1       1.761   4.262  17.942  0.00  0.00    +0.000 C 
BRANCH  19  20
ATOM     20  C   UNL     1       1.801   2.748  18.191  0.00  0.00    +0.000 C 
BRANCH  20  21
ATOM     21  O   UNL     1       1.556   2.419  19.564  0.00  0.00    +0.000 OA
ATOM     22  C   UNL     1       0.864   3.501  20.194  0.00  0.00    +0.000 C 
ENDBRANCH  20  21
ENDBRANCH  19  20
ENDBRANCH  14  19
ENDBRANCH   1  14
TORSDOF 9
ENDMDL
MODEL 3
REMARK VINA RESULT:      -6.1      3.369      5.462
REMARK  Name = 
REMARK  11 active torsions:
REMARK  status: ('A' for Active; 'I' for Inactive)
REMARK    1  A    between atoms: C_1  and  O_2
REMARK    2  A    between atoms: O_2  and  C_3
REMARK    3  A    between atoms: C_3  and  C_4
REMARK    4  A    between atoms: C_4  and  N_5
REMARK    5  A    between atoms: N_5  and  C_6
REMARK    6  A    between atoms: N_5  and  S_10
REMARK    7  A    between atoms: C_6  and  C_7
REMARK    8  A    between atoms: C_7  and  O_8
REMARK    9  A    between atoms: O_8  and  C_9
REMARK   10  A    between atoms: S_10  and  C_13
REMARK   11  A    between atoms: C_18  and  N_19
REMARK                            x       y       z     vdW  Elec       q    Type
REMARK                         _______ _______ _______ _____ _____    ______ ____
ROOT
ATOM      1  S   UNL     1       3.460   5.542  19.220  0.00  0.00    +0.000 S 
ATOM      2  O   UNL     1       2.741   4.660  20.113  0.00  0.00    +0.000 OA
ATOM      3  O   UNL     1       4.839   5.900  19.469  0.00  0.00    +0.000 OA
ENDROOT
BRANCH   1   4
ATOM      4  C   UNL     1       2.488   7.026  19.211  0.00  0.00    +0.000 A 
ATOM      5  C   UNL     1       2.456   7.840  18.072  0.00  0.00    +0.000 A 
ATOM      6  C   UNL     1       1.811   9.077  18.131  0.00  0.00    +0.000 A 
ATOM      7  C   UNL     1       1.205   9.508  19.319  0.00  0.00    +0.000 A 
ATOM      8 CL   UNL     1       0.492  11.080  19.328  0.00  0.00    +0.000 Cl
ATOM      9  C   UNL     1       1.247   8.675  20.435  0.00  0.00    +0.000 A 
ATOM     10  C   UNL     1       1.888   7.430  20.402  0.00  0.00    +0.000 A 
BRANCH   9  11
ATOM     11  N   UNL     1       0.659   9.088  21.689  0.00  0.00    +0.000 N 
ATOM     12  O   UNL     1      -0.509   8.744  21.904  0.00  0.00    +0.000 OA
ATOM     13  O   UNL     1       1.388   9.708  22.473  0.00  0.00    +0.000 OA
ENDBRANCH   9  11
ENDBRANCH   1   4
BRANCH   1  14
ATOM     14  N   UNL     1       3.354   4.975  17.586  0.00  0.00    +0.000 NA
BRANCH  14  15
ATOM     15  C   UNL     1       4.731   4.935  16.939  0.00  0.00    +0.000 C 
BRANCH  15  16
ATOM     16  C   UNL     1       5.110   6.117  16.040  0.00  0.00    +0.000 C 
BRANCH  16  18
ATOM     17  C   UNL     1       6.661   4.470  15.410  0.00  0.00    +0.000 C 
ATOM     18  O   UNL     1       6.198   5.797  15.174  0.00  0.00    +0.000 OA
ENDBRANCH  16  18
ENDBRANCH  15  16
ENDBRANCH  14  15
BRANCH  14  19
ATOM     19  C   UNL     1       2.608   3.665  17.444  0.00  0.00    +0.000 C 
BRANCH  19  20
ATOM     20  C   UNL     1       3.498   2.435  17.669  0.00  0.00    +0.000 C 
BRANCH  20  21
ATOM     21  O   UNL     1       3.002   1.593  18.716  0.00  0.00    +0.000 OA
ATOM     22  C   UNL     1       1.597   1.813  18.876  0.00  0.00    +0.000 C 
ENDBRANCH  20  21
ENDBRANCH  19  20
ENDBRANCH  14  19
ENDBRANCH   1  14
TORSDOF 9
ENDMDL
MODEL 4
REMARK VINA RESULT:      -6.1      1.657      2.171
REMARK  Name = 
REMARK  11 active torsions:
REMARK  status: ('A' for Active; 'I' for Inactive)
REMARK    1  A    between atoms: C_1  and  O_2
REMARK    2  A    between atoms: O_2  and  C_3
REMARK    3  A    between atoms: C_3  and  C_4
REMARK    4  A    between atoms: C_4  and  N_5
REMARK    5  A    between atoms: N_5  and  C_6
REMARK    6  A    between atoms: N_5  and  S_10
REMARK    7  A    between atoms: C_6  and  C_7
REMARK    8  A    between atoms: C_7  and  O_8
REMARK    9  A    between atoms: O_8  and  C_9
REMARK   10  A    between atoms: S_10  and  C_13
REMARK   11  A    between atoms: C_18  and  N_19
REMARK                            x       y       z     vdW  Elec       q    Type
REMARK                         _______ _______ _______ _____ _____    ______ ____
ROOT
ATOM      1  S   UNL     1       6.497   5.077  18.665  0.00  0.00    +0.000 S 
ATOM      2  O   UNL     1       7.333   4.251  17.823  0.00  0.00    +0.000 OA
ATOM      3  O   UNL     1       6.915   5.456  19.997  0.00  0.00    +0.000 OA
ENDROOT
BRANCH   1   4
ATOM      4  C   UNL     1       4.982   4.161  18.793  0.00  0.00    +0.000 A 
ATOM      5  C   UNL     1       4.601   3.285  17.771  0.00  0.00    +0.000 A 
ATOM      6  C   UNL     1       3.339   2.688  17.814  0.00  0.00    +0.000 A 
ATOM      7  C   UNL     1       2.456   2.966  18.866  0.00  0.00    +0.000 A 
ATOM      8 CL   UNL     1       0.889   2.244  18.807  0.00  0.00    +0.000 Cl
ATOM      9  C   UNL     1       2.864   3.838  19.874  0.00  0.00    +0.000 A 
ATOM     10  C   UNL     1       4.124   4.449  19.852  0.00  0.00    +0.000 A 
BRANCH   9  11
ATOM     11  N   UNL     1       1.978   4.175  20.964  0.00  0.00    +0.000 N 
ATOM     12  O   UNL     1       2.003   3.441  21.958  0.00  0.00    +0.000 OA
ATOM     13  O   UNL     1       1.302   5.204  20.840  0.00  0.00    +0.000 OA
ENDBRANCH   9  11
ENDBRANCH   1   4
BRANCH   1  14
ATOM     14  N   UNL     1       6.029   6.522  17.831  0.00  0.00    +0.000 NA
BRANCH  14  15
ATOM     15  C   UNL     1       7.243   7.211  17.225  0.00  0.00    +0.000 C 
BRANCH  15  16
ATOM     16  C   UNL     1       8.141   8.003  18.181  0.00  0.00    +0.000 C 
BRANCH  16  18
ATOM     17  C   UNL     1       9.037  10.111  18.700  0.00  0.00    +0.000 C 
ATOM     18  O   UNL     1       8.046   9.409  17.954  0.00  0.00    +0.000 OA
ENDBRANCH  16  18
ENDBRANCH  15  16
ENDBRANCH  14  15
BRANCH  14  19
ATOM     19  C   UNL     1       4.919   6.310  16.824  0.00  0.00    +0.000 C 
BRANCH  19  20
ATOM     20  C   UNL     1       5.423   6.227  15.376  0.00  0.00    +0.000 C 
BRANCH  20  21
ATOM     21  O   UNL     1       6.197   5.045  15.141  0.00  0.00    +0.000 OA
ATOM     22  C   UNL     1       5.541   4.236  14.161  0.00  0.00    +0.000 C 
ENDBRANCH  20  21
ENDBRANCH  19  20
ENDBRANCH  14  19
ENDBRANCH   1  14
TORSDOF 9
ENDMDL
MODEL 5
REMARK VINA RESULT:      -6.0      3.141      5.167
REMARK  Name = 
REMARK  11 active torsions:
REMARK  status: ('A' for Active; 'I' for Inactive)
REMARK    1  A    between atoms: C_1  and  O_2
REMARK    2  A    between atoms: O_2  and  C_3
REMARK    3  A    between atoms: C_3  and  C_4
REMARK    4  A    between atoms: C_4  and  N_5
REMARK    5  A    between atoms: N_5  and  C_6
REMARK    6  A    between atoms: N_5  and  S_10
REMARK    7  A    between atoms: C_6  and  C_7
REMARK    8  A    between atoms: C_7  and  O_8
REMARK    9  A    between atoms: O_8  and  C_9
REMARK   10  A    between atoms: S_10  and  C_13
REMARK   11  A    between atoms: C_18  and  N_19
REMARK                            x       y       z     vdW  Elec       q    Type
REMARK                         _______ _______ _______ _____ _____    ______ ____
ROOT
ATOM      1  S   UNL     1       3.839   5.203  19.421  0.00  0.00    +0.000 S 
ATOM      2  O   UNL     1       3.177   4.411  20.434  0.00  0.00    +0.000 OA
ATOM      3  O   UNL     1       5.204   5.647  19.590  0.00  0.00    +0.000 OA
ENDROOT
BRANCH   1   4
ATOM      4  C   UNL     1       2.801   6.632  19.251  0.00  0.00    +0.000 A 
ATOM      5  C   UNL     1       2.791   7.356  18.053  0.00  0.00    +0.000 A 
ATOM      6  C   UNL     1       2.087   8.561  17.985  0.00  0.00    +0.000 A 
ATOM      7  C   UNL     1       1.401   9.048  19.106  0.00  0.00    +0.000 A 
ATOM      8 CL   UNL     1       0.617  10.579  18.959  0.00  0.00    +0.000 Cl
ATOM      9  C   UNL     1       1.423   8.304  20.283  0.00  0.00    +0.000 A 
ATOM     10  C   UNL     1       2.121   7.093  20.377  0.00  0.00    +0.000 A 
BRANCH   9  11
ATOM     11  N   UNL     1       0.752   8.779  21.472  0.00  0.00    +0.000 N 
ATOM     12  O   UNL     1       1.397   9.515  22.227  0.00  0.00    +0.000 OA
ATOM     13  O   UNL     1      -0.433   8.455  21.614  0.00  0.00    +0.000 OA
ENDBRANCH   9  11
ENDBRANCH   1   4
BRANCH   1  14
ATOM     14  N   UNL     1       3.726   4.432  17.873  0.00  0.00    +0.000 NA
BRANCH  14  15
ATOM     15  C   UNL     1       4.740   5.020  16.904  0.00  0.00    +0.000 C 
BRANCH  15  16
ATOM     16  C   UNL     1       5.637   4.030  16.152  0.00  0.00    +0.000 C 
BRANCH  16  18
ATOM     17  C   UNL     1       7.131   5.768  16.665  0.00  0.00    +0.000 C 
ATOM     18  O   UNL     1       6.944   4.560  15.933  0.00  0.00    +0.000 OA
ENDBRANCH  16  18
ENDBRANCH  15  16
ENDBRANCH  14  15
BRANCH  14  19
ATOM     19  C   UNL     1       3.798   2.921  17.941  0.00  0.00    +0.000 C 
BRANCH  19  20
ATOM     20  C   UNL     1       2.455   2.237  17.651  0.00  0.00    +0.000 C 
BRANCH  20  21
ATOM     21  O   UNL     1       1.779   1.843  18.851  0.00  0.00    +0.000 OA
ATOM     22  C   UNL     1       0.586   2.618  18.999  0.00  0.00    +0.000 C 
ENDBRANCH  20  21
ENDBRANCH  19  20
ENDBRANCH  14  19
ENDBRANCH   1  14
TORSDOF 9
ENDMDL
MODEL 6
REMARK VINA RESULT:      -6.0      0.872      1.095
REMARK  Name = 
REMARK  11 active torsions:
REMARK  status: ('A' for Active; 'I' for Inactive)
REMARK    1  A    between atoms: C_1  and  O_2
REMARK    2  A    between atoms: O_2  and  C_3
REMARK    3  A    between atoms: C_3  and  C_4
REMARK    4  A    between atoms: C_4  and  N_5
REMARK    5  A    between atoms: N_5  and  C_6
REMARK    6  A    between atoms: N_5  and  S_10
REMARK    7  A    between atoms: C_6  and  C_7
REMARK    8  A    between atoms: C_7  and  O_8
REMARK    9  A    between atoms: O_8  and  C_9
REMARK   10  A    between atoms: S_10  and  C_13
REMARK   11  A    between atoms: C_18  and  N_19
REMARK                            x       y       z     vdW  Elec       q    Type
REMARK                         _______ _______ _______ _____ _____    ______ ____
ROOT
ATOM      1  S   UNL     1       6.420   4.567  17.556  0.00  0.00    +0.000 S 
ATOM      2  O   UNL     1       6.555   4.243  16.153  0.00  0.00    +0.000 OA
ATOM      3  O   UNL     1       7.398   4.128  18.526  0.00  0.00    +0.000 OA
ENDROOT
BRANCH   1   4
ATOM      4  C   UNL     1       4.843   3.885  18.002  0.00  0.00    +0.000 A 
ATOM      5  C   UNL     1       3.931   3.512  17.008  0.00  0.00    +0.000 A 
ATOM      6  C   UNL     1       2.641   3.119  17.373  0.00  0.00    +0.000 A 
ATOM      7  C   UNL     1       2.257   3.103  18.720  0.00  0.00    +0.000 A 
ATOM      8 CL   UNL     1       0.624   2.674  19.081  0.00  0.00    +0.000 Cl
ATOM      9  C   UNL     1       3.187   3.473  19.689  0.00  0.00    +0.000 A 
ATOM     10  C   UNL     1       4.486   3.871  19.349  0.00  0.00    +0.000 A 
BRANCH   9  11
ATOM     11  N   UNL     1       2.829   3.497  21.089  0.00  0.00    +0.000 N 
ATOM     12  O   UNL     1       2.292   4.526  21.515  0.00  0.00    +0.000 OA
ATOM     13  O   UNL     1       3.038   2.466  21.740  0.00  0.00    +0.000 OA
ENDBRANCH   9  11
ENDBRANCH   1   4
BRANCH   1  14
ATOM     14  N   UNL     1       6.199   6.273  17.770  0.00  0.00    +0.000 NA
BRANCH  14  15
ATOM     15  C   UNL     1       7.525   6.953  18.076  0.00  0.00    +0.000 C 
BRANCH  15  16
ATOM     16  C   UNL     1       7.678   8.409  17.623  0.00  0.00    +0.000 C 
BRANCH  16  18
ATOM     17  C   UNL     1       8.667  10.496  18.053  0.00  0.00    +0.000 C 
ATOM     18  O   UNL     1       8.566   9.137  18.471  0.00  0.00    +0.000 OA
ENDBRANCH  16  18
ENDBRANCH  15  16
ENDBRANCH  14  15
BRANCH  14  19
ATOM     19  C   UNL     1       5.457   6.937  16.630  0.00  0.00    +0.000 C 
BRANCH  19  20
ATOM     20  C   UNL     1       4.139   7.593  17.065  0.00  0.00    +0.000 C 
BRANCH  20  21
ATOM     21  O   UNL     1       3.709   7.138  18.353  0.00  0.00    +0.000 OA
ATOM     22  C   UNL     1       2.330   6.763  18.288  0.00  0.00    +0.000 C 
ENDBRANCH  20  21
ENDBRANCH  19  20
ENDBRANCH  14  19
ENDBRANCH   1  14
TORSDOF 9
ENDMDL
MODEL 7
REMARK VINA RESULT:      -5.9      3.121      6.112
REMARK  Name = 
REMARK  11 active torsions:
REMARK  status: ('A' for Active; 'I' for Inactive)
REMARK    1  A    between atoms: C_1  and  O_2
REMARK    2  A    between atoms: O_2  and  C_3
REMARK    3  A    between atoms: C_3  and  C_4
REMARK    4  A    between atoms: C_4  and  N_5
REMARK    5  A    between atoms: N_5  and  C_6
REMARK    6  A    between atoms: N_5  and  S_10
REMARK    7  A    between atoms: C_6  and  C_7
REMARK    8  A    between atoms: C_7  and  O_8
REMARK    9  A    between atoms: O_8  and  C_9
REMARK   10  A    between atoms: S_10  and  C_13
REMARK   11  A    between atoms: C_18  and  N_19
REMARK                            x       y       z     vdW  Elec       q    Type
REMARK                         _______ _______ _______ _____ _____    ______ ____
ROOT
ATOM      1  S   UNL     1       3.021   2.880  18.044  0.00  0.00    +0.000 S 
ATOM      2  O   UNL     1       3.574   1.566  18.286  0.00  0.00    +0.000 OA
ATOM      3  O   UNL     1       2.123   3.123  16.937  0.00  0.00    +0.000 OA
ENDROOT
BRANCH   1   4
ATOM      4  C   UNL     1       4.449   3.914  17.844  0.00  0.00    +0.000 A 
ATOM      5  C   UNL     1       5.219   4.274  18.956  0.00  0.00    +0.000 A 
ATOM      6  C   UNL     1       6.247   5.208  18.806  0.00  0.00    +0.000 A 
ATOM      7  C   UNL     1       6.505   5.787  17.556  0.00  0.00    +0.000 A 
ATOM      8 CL   UNL     1       7.745   6.985  17.472  0.00  0.00    +0.000 Cl
ATOM      9  C   UNL     1       5.727   5.406  16.465  0.00  0.00    +0.000 A 
ATOM     10  C   UNL     1       4.690   4.473  16.590  0.00  0.00    +0.000 A 
BRANCH   9  11
ATOM     11  N   UNL     1       5.938   5.996  15.163  0.00  0.00    +0.000 N 
ATOM     12  O   UNL     1       5.220   6.954  14.856  0.00  0.00    +0.000 OA
ATOM     13  O   UNL     1       6.858   5.531  14.479  0.00  0.00    +0.000 OA
ENDBRANCH   9  11
ENDBRANCH   1   4
BRANCH   1  14
ATOM     14  N   UNL     1       2.267   3.499  19.476  0.00  0.00    +0.000 NA
BRANCH  14  15
ATOM     15  C   UNL     1       1.699   4.888  19.227  0.00  0.00    +0.000 C 
BRANCH  15  16
ATOM     16  C   UNL     1       2.059   5.977  20.244  0.00  0.00    +0.000 C 
BRANCH  16  18
ATOM     17  C   UNL     1       2.668   7.127  18.288  0.00  0.00    +0.000 C 
ATOM     18  O   UNL     1       2.192   7.257  19.625  0.00  0.00    +0.000 OA
ENDBRANCH  16  18
ENDBRANCH  15  16
ENDBRANCH  14  15
BRANCH  14  19
ATOM     19  C   UNL     1       1.249   2.556  20.083  0.00  0.00    +0.000 C 
BRANCH  19  20
ATOM     20  C   UNL     1       1.222   2.602  21.617  0.00  0.00    +0.000 C 
BRANCH  20  21
ATOM     21  O   UNL     1       2.518   2.847  22.174  0.00  0.00    +0.000 OA
ATOM     22  C   UNL     1       3.451   1.906  21.635  0.00  0.00    +0.000 C 
ENDBRANCH  20  21
ENDBRANCH  19  20
ENDBRANCH  14  19
ENDBRANCH   1  14
TORSDOF 9
ENDMDL
MODEL 8
REMARK VINA RESULT:      -5.9      2.763      4.581
REMARK  Name = 
REMARK  11 active torsions:
REMARK  status: ('A' for Active; 'I' for Inactive)
REMARK    1  A    between atoms: C_1  and  O_2
REMARK    2  A    between atoms: O_2  and  C_3
REMARK    3  A    between atoms: C_3  and  C_4
REMARK    4  A    between atoms: C_4  and  N_5
REMARK    5  A    between atoms: N_5  and  C_6
REMARK    6  A    between atoms: N_5  and  S_10
REMARK    7  A    between atoms: C_6  and  C_7
REMARK    8  A    between atoms: C_7  and  O_8
REMARK    9  A    between atoms: O_8  and  C_9
REMARK   10  A    between atoms: S_10  and  C_13
REMARK   11  A    between atoms: C_18  and  N_19
REMARK                            x       y       z     vdW  Elec       q    Type
REMARK                         _______ _______ _______ _____ _____    ______ ____
ROOT
ATOM      1  S   UNL     1       5.426   6.442  16.389  0.00  0.00    +0.000 S 
ATOM      2  O   UNL     1       6.151   7.390  17.204  0.00  0.00    +0.000 OA
ATOM      3  O   UNL     1       4.907   6.811  15.090  0.00  0.00    +0.000 OA
ENDROOT
BRANCH   1   4
ATOM      4  C   UNL     1       4.065   5.948  17.415  0.00  0.00    +0.000 A 
ATOM      5  C   UNL     1       3.459   6.873  18.273  0.00  0.00    +0.000 A 
ATOM      6  C   UNL     1       2.492   6.435  19.182  0.00  0.00    +0.000 A 
ATOM      7  C   UNL     1       2.134   5.082  19.243  0.00  0.00    +0.000 A 
ATOM      8 CL   UNL     1       0.985   4.613  20.442  0.00  0.00    +0.000 Cl
ATOM      9  C   UNL     1       2.750   4.184  18.373  0.00  0.00    +0.000 A 
ATOM     10  C   UNL     1       3.722   4.598  17.453  0.00  0.00    +0.000 A 
BRANCH   9  11
ATOM     11  N   UNL     1       2.432   2.775  18.417  0.00  0.00    +0.000 N 
ATOM     12  O   UNL     1       3.183   2.049  19.079  0.00  0.00    +0.000 OA
ATOM     13  O   UNL     1       1.404   2.413  17.833  0.00  0.00    +0.000 OA
ENDBRANCH   9  11
ENDBRANCH   1   4
BRANCH   1  14
ATOM     14  N   UNL     1       6.338   4.981  16.193  0.00  0.00    +0.000 NA
BRANCH  14  15
ATOM     15  C   UNL     1       6.854   4.856  14.767  0.00  0.00    +0.000 C 
BRANCH  15  16
ATOM     16  C   UNL     1       6.312   3.689  13.933  0.00  0.00    +0.000 C 
BRANCH  16  18
ATOM     17  C   UNL     1       5.030   3.348  11.995  0.00  0.00    +0.000 C 
ATOM     18  O   UNL     1       5.120   4.047  13.233  0.00  0.00    +0.000 OA
ENDBRANCH  16  18
ENDBRANCH  15  16
ENDBRANCH  14  15
BRANCH  14  19
ATOM     19  C   UNL     1       7.433   4.806  17.223  0.00  0.00    +0.000 C 
BRANCH  19  20
ATOM     20  C   UNL     1       6.928   4.225  18.551  0.00  0.00    +0.000 C 
BRANCH  20  21
ATOM     21  O   UNL     1       6.807   5.226  19.568  0.00  0.00    +0.000 OA
ATOM     22  C   UNL     1       8.090   5.809  19.814  0.00  0.00    +0.000 C 
ENDBRANCH  20  21
ENDBRANCH  19  20
ENDBRANCH  14  19
ENDBRANCH   1  14
TORSDOF 9
ENDMDL
MODEL 9
REMARK VINA RESULT:      -5.8      2.961      4.693
REMARK  Name = 
REMARK  11 active torsions:
REMARK  status: ('A' for Active; 'I' for Inactive)
REMARK    1  A    between atoms: C_1  and  O_2
REMARK    2  A    between atoms: O_2  and  C_3
REMARK    3  A    between atoms: C_3  and  C_4
REMARK    4  A    between atoms: C_4  and  N_5
REMARK    5  A    between atoms: N_5  and  C_6
REMARK    6  A    between atoms: N_5  and  S_10
REMARK    7  A    between atoms: C_6  and  C_7
REMARK    8  A    between atoms: C_7  and  O_8
REMARK    9  A    between atoms: O_8  and  C_9
REMARK   10  A    between atoms: S_10  and  C_13
REMARK   11  A    between atoms: C_18  and  N_19
REMARK                            x       y       z     vdW  Elec       q    Type
REMARK                         _______ _______ _______ _____ _____    ______ ____
ROOT
ATOM      1  S   UNL     1       5.292   6.533  16.159  0.00  0.00    +0.000 S 
ATOM      2  O   UNL     1       6.189   7.354  16.943  0.00  0.00    +0.000 OA
ATOM      3  O   UNL     1       4.676   7.036  14.951  0.00  0.00    +0.000 OA
ENDROOT
BRANCH   1   4
ATOM      4  C   UNL     1       4.007   6.094  17.302  0.00  0.00    +0.000 A 
ATOM      5  C   UNL     1       3.498   7.049  18.190  0.00  0.00    +0.000 A 
ATOM      6  C   UNL     1       2.597   6.653  19.181  0.00  0.00    +0.000 A 
ATOM      7  C   UNL     1       2.209   5.311  19.295  0.00  0.00    +0.000 A 
ATOM      8 CL   UNL     1       1.150   4.893  20.592  0.00  0.00    +0.000 Cl
ATOM      9  C   UNL     1       2.727   4.383  18.394  0.00  0.00    +0.000 A 
ATOM     10  C   UNL     1       3.632   4.755  17.392  0.00  0.00    +0.000 A 
BRANCH   9  11
ATOM     11  N   UNL     1       2.376   2.984  18.489  0.00  0.00    +0.000 N 
ATOM     12  O   UNL     1       1.253   2.657  18.090  0.00  0.00    +0.000 OA
ATOM     13  O   UNL     1       3.247   2.215  18.912  0.00  0.00    +0.000 OA
ENDBRANCH   9  11
ENDBRANCH   1   4
BRANCH   1  14
ATOM     14  N   UNL     1       6.032   5.013  15.777  0.00  0.00    +0.000 NA
BRANCH  14  15
ATOM     15  C   UNL     1       5.815   4.663  14.312  0.00  0.00    +0.000 C 
BRANCH  15  16
ATOM     16  C   UNL     1       7.039   4.178  13.527  0.00  0.00    +0.000 C 
BRANCH  16  18
ATOM     17  C   UNL     1       5.716   2.957  12.019  0.00  0.00    +0.000 C 
ATOM     18  O   UNL     1       6.731   3.949  12.152  0.00  0.00    +0.000 OA
ENDBRANCH  16  18
ENDBRANCH  15  16
ENDBRANCH  14  15
BRANCH  14  19
ATOM     19  C   UNL     1       7.488   4.927  16.184  0.00  0.00    +0.000 C 
BRANCH  19  20
ATOM     20  C   UNL     1       7.689   4.359  17.597  0.00  0.00    +0.000 C 
BRANCH  20  21
ATOM     21  O   UNL     1       7.975   5.383  18.555  0.00  0.00    +0.000 OA
ATOM     22  C   UNL     1       6.917   5.442  19.517  0.00  0.00    +0.000 C 
ENDBRANCH  20  21
ENDBRANCH  19  20
ENDBRANCH  14  19
ENDBRANCH   1  14
TORSDOF 9
ENDMDL
