MODEL 1
REMARK VINA RESULT:      -7.0      0.000      0.000
REMARK  Name = 
REMARK  7 active torsions:
REMARK  status: ('A' for Active; 'I' for Inactive)
REMARK    1  A    between atoms: C_1  and  N_2
REMARK    2  A    between atoms: N_2  and  C_3
REMARK    3  A    between atoms: N_2  and  S_11
REMARK    4  A    between atoms: C_3  and  C_4
REMARK    5  A    between atoms: C_4  and  N_5
REMARK    6  A    between atoms: S_11  and  C_14
REMARK    7  A    between atoms: C_14  and  C_15
REMARK                            x       y       z     vdW  Elec       q    Type
REMARK                         _______ _______ _______ _____ _____    ______ ____
ROOT
ATOM      1  C   UNL     1       4.430   6.538  17.450  0.00  0.00    +0.000 C 
ATOM      2  N   UNL     1       5.755   6.034  17.913  0.00  0.00    +0.000 NA
ENDROOT
BRANCH   2   3
ATOM      3  S   UNL     1       6.805   5.608  16.629  0.00  0.00    +0.000 S 
ATOM      4  O   UNL     1       7.652   6.743  16.352  0.00  0.00    +0.000 OA
ATOM      5  O   UNL     1       7.373   4.320  16.978  0.00  0.00    +0.000 OA
BRANCH   3   6
ATOM      6  C   UNL     1       5.713   5.410  15.211  0.00  0.00    +0.000 C 
BRANCH   6   7
ATOM      7  C   UNL     1       6.271   4.408  14.203  0.00  0.00    +0.000 C 
ATOM      8  C   UNL     1       5.191   3.813  13.301  0.00  0.00    +0.000 C 
ATOM      9  C   UNL     1       5.984   3.148  12.182  0.00  0.00    +0.000 C 
ATOM     10  C   UNL     1       7.269   3.961  12.042  0.00  0.00    +0.000 C 
ATOM     11  C   UNL     1       7.260   4.974  13.184  0.00  0.00    +0.000 C 
ENDBRANCH   6   7
ENDBRANCH   3   6
ENDBRANCH   2   3
BRANCH   2  12
ATOM     12  C   UNL     1       5.537   4.915  18.924  0.00  0.00    +0.000 C 
BRANCH  12  13
ATOM     13  C   UNL     1       4.481   3.872  18.523  0.00  0.00    +0.000 C 
BRANCH  13  14
ATOM     14  N   UNL     1       3.571   3.563  19.614  0.00  0.00    +0.000 N 
ATOM     15  C   UNL     1       2.299   4.223  19.792  0.00  0.00    +0.000 C 
ATOM     16  C   UNL     1       1.943   3.883  21.227  0.00  0.00    +0.000 C 
ATOM     17  C   UNL     1       2.599   2.526  21.458  0.00  0.00    +0.000 C 
ATOM     18  C   UNL     1       3.804   2.586  20.560  0.00  0.00    +0.000 C 
ATOM     19  O   UNL     1       4.793   1.877  20.648  0.00  0.00    +0.000 OA
ENDBRANCH  13  14
ENDBRANCH  12  13
ENDBRANCH   2  12
TORSDOF 6
ENDMDL
MODEL 2
REMARK VINA RESULT:      -6.9      1.629      1.876
REMARK  Name = 
REMARK  7 active torsions:
REMARK  status: ('A' for Active; 'I' for Inactive)
REMARK    1  A    between atoms: C_1  and  N_2
REMARK    2  A    between atoms: N_2  and  C_3
REMARK    3  A    between atoms: N_2  and  S_11
REMARK    4  A    between atoms: C_3  and  C_4
REMARK    5  A    between atoms: C_4  and  N_5
REMARK    6  A    between atoms: S_11  and  C_14
REMARK    7  A    between atoms: C_14  and  C_15
REMARK                            x       y       z     vdW  Elec       q    Type
REMARK                         _______ _______ _______ _____ _____    ______ ____
ROOT
ATOM      1  C   UNL     1       5.409   5.728  18.925  0.00  0.00    +0.000 C 
ATOM      2  N   UNL     1       5.877   4.660  17.997  0.00  0.00    +0.000 NA
ENDROOT
BRANCH   2   3
ATOM      3  S   UNL     1       6.995   5.221  16.827  0.00  0.00    +0.000 S 
ATOM      4  O   UNL     1       7.412   6.548  17.210  0.00  0.00    +0.000 OA
ATOM      5  O   UNL     1       7.964   4.157  16.646  0.00  0.00    +0.000 OA
BRANCH   3   6
ATOM      6  C   UNL     1       6.016   5.393  15.325  0.00  0.00    +0.000 C 
BRANCH   6   7
ATOM      7  C   UNL     1       6.466   4.417  14.241  0.00  0.00    +0.000 C 
ATOM      8  C   UNL     1       5.301   3.858  13.427  0.00  0.00    +0.000 C 
ATOM      9  C   UNL     1       5.979   3.221  12.220  0.00  0.00    +0.000 C 
ATOM     10  C   UNL     1       7.254   4.028  11.983  0.00  0.00    +0.000 C 
ATOM     11  C   UNL     1       7.362   5.005  13.151  0.00  0.00    +0.000 C 
ENDBRANCH   6   7
ENDBRANCH   3   6
ENDBRANCH   2   3
BRANCH   2  12
ATOM     12  C   UNL     1       4.667   3.953  17.400  0.00  0.00    +0.000 C 
BRANCH  12  13
ATOM     13  C   UNL     1       3.329   4.689  17.580  0.00  0.00    +0.000 C 
BRANCH  13  14
ATOM     14  N   UNL     1       2.395   3.939  18.404  0.00  0.00    +0.000 N 
ATOM     15  C   UNL     1       2.014   2.575  18.122  0.00  0.00    +0.000 C 
ATOM     16  C   UNL     1       0.765   2.396  18.963  0.00  0.00    +0.000 C 
ATOM     17  C   UNL     1       0.981   3.328  20.150  0.00  0.00    +0.000 C 
ATOM     18  C   UNL     1       1.812   4.431  19.553  0.00  0.00    +0.000 C 
ATOM     19  O   UNL     1       1.957   5.548  20.024  0.00  0.00    +0.000 OA
ENDBRANCH  13  14
ENDBRANCH  12  13
ENDBRANCH   2  12
TORSDOF 6
ENDMDL
MODEL 3
REMARK VINA RESULT:      -6.8      1.841      2.354
REMARK  Name = 
REMARK  7 active torsions:
REMARK  status: ('A' for Active; 'I' for Inactive)
REMARK    1  A    between atoms: C_1  and  N_2
REMARK    2  A    between atoms: N_2  and  C_3
REMARK    3  A    between atoms: N_2  and  S_11
REMARK    4  A    between atoms: C_3  and  C_4
REMARK    5  A    between atoms: C_4  and  N_5
REMARK    6  A    between atoms: S_11  and  C_14
REMARK    7  A    between atoms: C_14  and  C_15
REMARK                            x       y       z     vdW  Elec       q    Type
REMARK                         _______ _______ _______ _____ _____    ______ ____
ROOT
ATOM      1  C   UNL     1       4.677   3.868  17.134  0.00  0.00    +0.000 C 
ATOM      2  N   UNL     1       4.438   5.340  17.136  0.00  0.00    +0.000 NA
ENDROOT
BRANCH   2   3
ATOM      3  S   UNL     1       5.716   6.235  16.427  0.00  0.00    +0.000 S 
ATOM      4  O   UNL     1       5.162   7.028  15.355  0.00  0.00    +0.000 OA
ATOM      5  O   UNL     1       6.433   6.857  17.523  0.00  0.00    +0.000 OA
BRANCH   3   6
ATOM      6  C   UNL     1       6.764   4.984  15.666  0.00  0.00    +0.000 C 
BRANCH   6   7
ATOM      7  C   UNL     1       6.511   4.871  14.165  0.00  0.00    +0.000 C 
ATOM      8  C   UNL     1       7.767   5.117  13.332  0.00  0.00    +0.000 C 
ATOM      9  C   UNL     1       7.383   4.613  11.946  0.00  0.00    +0.000 C 
ATOM     10  C   UNL     1       6.366   3.497  12.175  0.00  0.00    +0.000 C 
ATOM     11  C   UNL     1       6.067   3.493  13.671  0.00  0.00    +0.000 C 
ENDBRANCH   6   7
ENDBRANCH   3   6
ENDBRANCH   2   3
BRANCH   2  12
ATOM     12  C   UNL     1       4.087   5.786  18.549  0.00  0.00    +0.000 C 
BRANCH  12  13
ATOM     13  C   UNL     1       2.587   5.996  18.811  0.00  0.00    +0.000 C 
BRANCH  13  14
ATOM     14  N   UNL     1       1.981   4.858  19.483  0.00  0.00    +0.000 N 
ATOM     15  C   UNL     1       1.956   4.711  20.919  0.00  0.00    +0.000 C 
ATOM     16  C   UNL     1       1.625   3.242  21.099  0.00  0.00    +0.000 C 
ATOM     17  C   UNL     1       0.785   2.899  19.874  0.00  0.00    +0.000 C 
ATOM     18  C   UNL     1       1.336   3.829  18.828  0.00  0.00    +0.000 C 
ATOM     19  O   UNL     1       1.207   3.699  17.621  0.00  0.00    +0.000 OA
ENDBRANCH  13  14
ENDBRANCH  12  13
ENDBRANCH   2  12
TORSDOF 6
ENDMDL
MODEL 4
REMARK VINA RESULT:      -6.7      0.985      1.074
REMARK  Name = 
REMARK  7 active torsions:
REMARK  status: ('A' for Active; 'I' for Inactive)
REMARK    1  A    between atoms: C_1  and  N_2
REMARK    2  A    between atoms: N_2  and  C_3
REMARK    3  A    between atoms: N_2  and  S_11
REMARK    4  A    between atoms: C_3  and  C_4
REMARK    5  A    between atoms: C_4  and  N_5
REMARK    6  A    between atoms: S_11  and  C_14
REMARK    7  A    between atoms: C_14  and  C_15
REMARK                            x       y       z     vdW  Elec       q    Type
REMARK                         _______ _______ _______ _____ _____    ______ ____
ROOT
ATOM      1  C   UNL     1       4.353   6.664  17.316  0.00  0.00    +0.000 C 
ATOM      2  N   UNL     1       5.594   6.016  17.830  0.00  0.00    +0.000 NA
ENDROOT
BRANCH   2   3
ATOM      3  S   UNL     1       6.717   5.627  16.596  0.00  0.00    +0.000 S 
ATOM      4  O   UNL     1       7.558   6.780  16.381  0.00  0.00    +0.000 OA
ATOM      5  O   UNL     1       7.286   4.343  16.954  0.00  0.00    +0.000 OA
BRANCH   3   6
ATOM      6  C   UNL     1       5.704   5.436  15.119  0.00  0.00    +0.000 C 
BRANCH   6   7
ATOM      7  C   UNL     1       6.314   4.437  14.140  0.00  0.00    +0.000 C 
ATOM      8  C   UNL     1       5.266   3.754  13.262  0.00  0.00    +0.000 C 
ATOM      9  C   UNL     1       6.093   3.101  12.160  0.00  0.00    +0.000 C 
ATOM     10  C   UNL     1       7.328   3.982  11.988  0.00  0.00    +0.000 C 
ATOM     11  C   UNL     1       7.266   5.026  13.099  0.00  0.00    +0.000 C 
ENDBRANCH   6   7
ENDBRANCH   3   6
ENDBRANCH   2   3
BRANCH   2  12
ATOM     12  C   UNL     1       5.211   4.830  18.707  0.00  0.00    +0.000 C 
BRANCH  12  13
ATOM     13  C   UNL     1       3.910   5.006  19.507  0.00  0.00    +0.000 C 
BRANCH  13  14
ATOM     14  N   UNL     1       2.963   3.932  19.261  0.00  0.00    +0.000 N 
ATOM     15  C   UNL     1       1.869   4.043  18.325  0.00  0.00    +0.000 C 
ATOM     16  C   UNL     1       0.967   2.891  18.725  0.00  0.00    +0.000 C 
ATOM     17  C   UNL     1       1.928   1.846  19.282  0.00  0.00    +0.000 C 
ATOM     18  C   UNL     1       3.033   2.689  19.857  0.00  0.00    +0.000 C 
ATOM     19  O   UNL     1       3.852   2.321  20.684  0.00  0.00    +0.000 OA
ENDBRANCH  13  14
ENDBRANCH  12  13
ENDBRANCH   2  12
TORSDOF 6
ENDMDL
MODEL 5
REMARK VINA RESULT:      -6.5      1.706      2.099
REMARK  Name = 
REMARK  7 active torsions:
REMARK  status: ('A' for Active; 'I' for Inactive)
REMARK    1  A    between atoms: C_1  and  N_2
REMARK    2  A    between atoms: N_2  and  C_3
REMARK    3  A    between atoms: N_2  and  S_11
REMARK    4  A    between atoms: C_3  and  C_4
REMARK    5  A    between atoms: C_4  and  N_5
REMARK    6  A    between atoms: S_11  and  C_14
REMARK    7  A    between atoms: C_14  and  C_15
REMARK                            x       y       z     vdW  Elec       q    Type
REMARK                         _______ _______ _______ _____ _____    ______ ____
ROOT
ATOM      1  C   UNL     1       5.208   3.972  19.113  0.00  0.00    +0.000 C 
ATOM      2  N   UNL     1       4.700   4.810  17.990  0.00  0.00    +0.000 NA
ENDROOT
BRANCH   2   3
ATOM      3  S   UNL     1       5.879   5.118  16.785  0.00  0.00    +0.000 S 
ATOM      4  O   UNL     1       5.885   6.538  16.522  0.00  0.00    +0.000 OA
ATOM      5  O   UNL     1       7.084   4.432  17.210  0.00  0.00    +0.000 OA
BRANCH   3   6
ATOM      6  C   UNL     1       5.227   4.315  15.312  0.00  0.00    +0.000 C 
BRANCH   6   7
ATOM      7  C   UNL     1       6.322   4.046  14.283  0.00  0.00    +0.000 C 
ATOM      8  C   UNL     1       5.770   3.561  12.943  0.00  0.00    +0.000 C 
ATOM      9  C   UNL     1       6.955   3.701  11.994  0.00  0.00    +0.000 C 
ATOM     10  C   UNL     1       7.785   4.864  12.534  0.00  0.00    +0.000 C 
ATOM     11  C   UNL     1       7.150   5.261  13.863  0.00  0.00    +0.000 C 
ENDBRANCH   6   7
ENDBRANCH   3   6
ENDBRANCH   2   3
BRANCH   2  12
ATOM     12  C   UNL     1       4.061   6.071  18.558  0.00  0.00    +0.000 C 
BRANCH  12  13
ATOM     13  C   UNL     1       2.525   6.107  18.497  0.00  0.00    +0.000 C 
BRANCH  13  14
ATOM     14  N   UNL     1       1.920   4.996  19.214  0.00  0.00    +0.000 N 
ATOM     15  C   UNL     1       1.717   4.997  20.643  0.00  0.00    +0.000 C 
ATOM     16  C   UNL     1       1.472   3.531  20.947  0.00  0.00    +0.000 C 
ATOM     17  C   UNL     1       0.827   2.993  19.675  0.00  0.00    +0.000 C 
ATOM     18  C   UNL     1       1.442   3.853  18.606  0.00  0.00    +0.000 C 
ATOM     19  O   UNL     1       1.483   3.589  17.415  0.00  0.00    +0.000 OA
ENDBRANCH  13  14
ENDBRANCH  12  13
ENDBRANCH   2  12
TORSDOF 6
ENDMDL
MODEL 6
REMARK VINA RESULT:      -6.4      1.782      2.320
REMARK  Name = 
REMARK  7 active torsions:
REMARK  status: ('A' for Active; 'I' for Inactive)
REMARK    1  A    between atoms: C_1  and  N_2
REMARK    2  A    between atoms: N_2  and  C_3
REMARK    3  A    between atoms: N_2  and  S_11
REMARK    4  A    between atoms: C_3  and  C_4
REMARK    5  A    between atoms: C_4  and  N_5
REMARK    6  A    between atoms: S_11  and  C_14
REMARK    7  A    between atoms: C_14  and  C_15
REMARK                            x       y       z     vdW  Elec       q    Type
REMARK                         _______ _______ _______ _____ _____    ______ ____
ROOT
ATOM      1  C   UNL     1       6.178   5.280  19.035  0.00  0.00    +0.000 C 
ATOM      2  N   UNL     1       5.272   5.532  17.877  0.00  0.00    +0.000 NA
ENDROOT
BRANCH   2   3
ATOM      3  S   UNL     1       6.056   6.290  16.556  0.00  0.00    +0.000 S 
ATOM      4  O   UNL     1       5.039   6.746  15.639  0.00  0.00    +0.000 OA
ATOM      5  O   UNL     1       7.016   7.214  17.127  0.00  0.00    +0.000 OA
BRANCH   3   6
ATOM      6  C   UNL     1       6.938   4.951  15.736  0.00  0.00    +0.000 C 
BRANCH   6   7
ATOM      7  C   UNL     1       6.587   4.867  14.253  0.00  0.00    +0.000 C 
ATOM      8  C   UNL     1       7.791   5.120  13.345  0.00  0.00    +0.000 C 
ATOM      9  C   UNL     1       7.314   4.646  11.977  0.00  0.00    +0.000 C 
ATOM     10  C   UNL     1       6.303   3.534  12.250  0.00  0.00    +0.000 C 
ATOM     11  C   UNL     1       6.101   3.503  13.763  0.00  0.00    +0.000 C 
ENDBRANCH   6   7
ENDBRANCH   3   6
ENDBRANCH   2   3
BRANCH   2  12
ATOM     12  C   UNL     1       4.035   6.275  18.365  0.00  0.00    +0.000 C 
BRANCH  12  13
ATOM     13  C   UNL     1       2.699   5.565  18.092  0.00  0.00    +0.000 C 
BRANCH  13  14
ATOM     14  N   UNL     1       2.360   4.611  19.135  0.00  0.00    +0.000 N 
ATOM     15  C   UNL     1       2.565   3.188  19.000  0.00  0.00    +0.000 C 
ATOM     16  C   UNL     1       1.703   2.619  20.111  0.00  0.00    +0.000 C 
ATOM     17  C   UNL     1       1.714   3.705  21.180  0.00  0.00    +0.000 C 
ATOM     18  C   UNL     1       1.852   4.964  20.368  0.00  0.00    +0.000 C 
ATOM     19  O   UNL     1       1.583   6.091  20.751  0.00  0.00    +0.000 OA
ENDBRANCH  13  14
ENDBRANCH  12  13
ENDBRANCH   2  12
TORSDOF 6
ENDMDL
MODEL 7
REMARK VINA RESULT:      -6.4      3.008      6.376
REMARK  Name = 
REMARK  7 active torsions:
REMARK  status: ('A' for Active; 'I' for Inactive)
REMARK    1  A    between atoms: C_1  and  N_2
REMARK    2  A    between atoms: N_2  and  C_3
REMARK    3  A    between atoms: N_2  and  S_11
REMARK    4  A    between atoms: C_3  and  C_4
REMARK    5  A    between atoms: C_4  and  N_5
REMARK    6  A    between atoms: S_11  and  C_14
REMARK    7  A    between atoms: C_14  and  C_15
REMARK                            x       y       z     vdW  Elec       q    Type
REMARK                         _______ _______ _______ _____ _____    ______ ____
ROOT
ATOM      1  C   UNL     1       3.437   2.088  18.375  0.00  0.00    +0.000 C 
ATOM      2  N   UNL     1       3.729   3.547  18.277  0.00  0.00    +0.000 NA
ENDROOT
BRANCH   2   3
ATOM      3  S   UNL     1       2.565   4.526  19.067  0.00  0.00    +0.000 S 
ATOM      4  O   UNL     1       1.399   4.602  18.219  0.00  0.00    +0.000 OA
ATOM      5  O   UNL     1       2.470   4.028  20.426  0.00  0.00    +0.000 OA
BRANCH   3   6
ATOM      6  C   UNL     1       3.307   6.166  19.087  0.00  0.00    +0.000 C 
BRANCH   6   7
ATOM      7  C   UNL     1       2.298   7.248  18.709  0.00  0.00    +0.000 C 
ATOM      8  C   UNL     1       1.908   8.134  19.891  0.00  0.00    +0.000 C 
ATOM      9  C   UNL     1       1.207   9.318  19.236  0.00  0.00    +0.000 C 
ATOM     10  C   UNL     1       1.846   9.470  17.857  0.00  0.00    +0.000 C 
ATOM     11  C   UNL     1       2.783   8.277  17.687  0.00  0.00    +0.000 C 
ENDBRANCH   6   7
ENDBRANCH   3   6
ENDBRANCH   2   3
BRANCH   2  12
ATOM     12  C   UNL     1       3.948   3.915  16.815  0.00  0.00    +0.000 C 
BRANCH  12  13
ATOM     13  C   UNL     1       5.415   3.903  16.354  0.00  0.00    +0.000 C 
BRANCH  13  14
ATOM     14  N   UNL     1       6.194   4.964  16.970  0.00  0.00    +0.000 N 
ATOM     15  C   UNL     1       7.173   4.726  18.004  0.00  0.00    +0.000 C 
ATOM     16  C   UNL     1       7.385   6.109  18.590  0.00  0.00    +0.000 C 
ATOM     17  C   UNL     1       7.126   7.050  17.419  0.00  0.00    +0.000 C 
ATOM     18  C   UNL     1       6.111   6.293  16.608  0.00  0.00    +0.000 C 
ATOM     19  O   UNL     1       5.370   6.775  15.765  0.00  0.00    +0.000 OA
ENDBRANCH  13  14
ENDBRANCH  12  13
ENDBRANCH   2  12
TORSDOF 6
ENDMDL
MODEL 8
REMARK VINA RESULT:      -6.4      1.551      1.776
REMARK  Name = 
REMARK  7 active torsions:
REMARK  status: ('A' for Active; 'I' for Inactive)
REMARK    1  A    between atoms: C_1  and  N_2
REMARK    2  A    between atoms: N_2  and  C_3
REMARK    3  A    between atoms: N_2  and  S_11
REMARK    4  A    between atoms: C_3  and  C_4
REMARK    5  A    between atoms: C_4  and  N_5
REMARK    6  A    between atoms: S_11  and  C_14
REMARK    7  A    between atoms: C_14  and  C_15
REMARK                            x       y       z     vdW  Elec       q    Type
REMARK                         _______ _______ _______ _____ _____    ______ ____
ROOT
ATOM      1  C   UNL     1       4.547   6.949  16.962  0.00  0.00    +0.000 C 
ATOM      2  N   UNL     1       5.462   6.188  17.860  0.00  0.00    +0.000 NA
ENDROOT
BRANCH   2   3
ATOM      3  S   UNL     1       6.598   5.225  17.013  0.00  0.00    +0.000 S 
ATOM      4  O   UNL     1       7.523   6.112  16.347  0.00  0.00    +0.000 OA
ATOM      5  O   UNL     1       7.067   4.226  17.954  0.00  0.00    +0.000 OA
BRANCH   3   6
ATOM      6  C   UNL     1       5.626   4.420  15.729  0.00  0.00    +0.000 C 
BRANCH   6   7
ATOM      7  C   UNL     1       6.478   4.070  14.511  0.00  0.00    +0.000 C 
ATOM      8  C   UNL     1       5.650   3.538  13.343  0.00  0.00    +0.000 C 
ATOM      9  C   UNL     1       6.613   3.598  12.163  0.00  0.00    +0.000 C 
ATOM     10  C   UNL     1       7.559   4.761  12.456  0.00  0.00    +0.000 C 
ATOM     11  C   UNL     1       7.222   5.240  13.865  0.00  0.00    +0.000 C 
ENDBRANCH   6   7
ENDBRANCH   3   6
ENDBRANCH   2   3
BRANCH   2  12
ATOM     12  C   UNL     1       4.632   5.409  18.873  0.00  0.00    +0.000 C 
BRANCH  12  13
ATOM     13  C   UNL     1       3.155   5.827  18.963  0.00  0.00    +0.000 C 
BRANCH  13  14
ATOM     14  N   UNL     1       2.327   4.795  19.566  0.00  0.00    +0.000 N 
ATOM     15  C   UNL     1       2.264   4.566  20.990  0.00  0.00    +0.000 C 
ATOM     16  C   UNL     1       1.641   3.186  21.080  0.00  0.00    +0.000 C 
ATOM     17  C   UNL     1       0.756   3.099  19.841  0.00  0.00    +0.000 C 
ATOM     18  C   UNL     1       1.490   3.962  18.852  0.00  0.00    +0.000 C 
ATOM     19  O   UNL     1       1.345   3.938  17.640  0.00  0.00    +0.000 OA
ENDBRANCH  13  14
ENDBRANCH  12  13
ENDBRANCH   2  12
TORSDOF 6
ENDMDL
MODEL 9
REMARK VINA RESULT:      -6.3      1.827      7.040
REMARK  Name = 
REMARK  7 active torsions:
REMARK  status: ('A' for Active; 'I' for Inactive)
REMARK    1  A    between atoms: C_1  and  N_2
REMARK    2  A    between atoms: N_2  and  C_3
REMARK    3  A    between atoms: N_2  and  S_11
REMARK    4  A    between atoms: C_3  and  C_4
REMARK    5  A    between atoms: C_4  and  N_5
REMARK    6  A    between atoms: S_11  and  C_14
REMARK    7  A    between atoms: C_14  and  C_15
REMARK                            x       y       z     vdW  Elec       q    Type
REMARK                         _______ _______ _______ _____ _____    ______ ____
ROOT
ATOM      1  C   UNL     1       4.467   6.970  17.388  0.00  0.00    +0.000 C 
ATOM      2  N   UNL     1       4.923   5.624  16.937  0.00  0.00    +0.000 NA
ENDROOT
BRANCH   2   3
ATOM      3  S   UNL     1       5.129   4.511  18.223  0.00  0.00    +0.000 S 
ATOM      4  O   UNL     1       4.721   3.208  17.753  0.00  0.00    +0.000 OA
ATOM      5  O   UNL     1       6.464   4.733  18.743  0.00  0.00    +0.000 OA
BRANCH   3   6
ATOM      6  C   UNL     1       3.920   5.027  19.453  0.00  0.00    +0.000 C 
BRANCH   6   7
ATOM      7  C   UNL     1       2.904   3.925  19.744  0.00  0.00    +0.000 C 
ATOM      8  C   UNL     1       2.480   3.883  21.211  0.00  0.00    +0.000 C 
ATOM      9  C   UNL     1       1.244   2.991  21.203  0.00  0.00    +0.000 C 
ATOM     10  C   UNL     1       0.598   3.187  19.833  0.00  0.00    +0.000 C 
ATOM     11  C   UNL     1       1.559   4.059  19.029  0.00  0.00    +0.000 C 
ENDBRANCH   6   7
ENDBRANCH   3   6
ENDBRANCH   2   3
BRANCH   2  12
ATOM     12  C   UNL     1       6.160   5.785  16.061  0.00  0.00    +0.000 C 
BRANCH  12  13
ATOM     13  C   UNL     1       6.787   4.469  15.572  0.00  0.00    +0.000 C 
BRANCH  13  14
ATOM     14  N   UNL     1       6.795   4.369  14.122  0.00  0.00    +0.000 N 
ATOM     15  C   UNL     1       5.832   3.589  13.380  0.00  0.00    +0.000 C 
ATOM     16  C   UNL     1       6.486   3.459  12.018  0.00  0.00    +0.000 C 
ATOM     17  C   UNL     1       7.314   4.731  11.882  0.00  0.00    +0.000 C 
ATOM     18  C   UNL     1       7.687   5.034  13.307  0.00  0.00    +0.000 C 
ATOM     19  O   UNL     1       8.602   5.759  13.665  0.00  0.00    +0.000 OA
ENDBRANCH  13  14
ENDBRANCH  12  13
ENDBRANCH   2  12
TORSDOF 6
ENDMDL
