MODEL 1
REMARK VINA RESULT:      -6.9      0.000      0.000
REMARK  Name = 
REMARK  8 active torsions:
REMARK  status: ('A' for Active; 'I' for Inactive)
REMARK    1  A    between atoms: C_1  and  C_2
REMARK    2  A    between atoms: C_5  and  C_6
REMARK    3  A    between atoms: C_10  and  C_12
REMARK    4  A    between atoms: N_14  and  C_15
REMARK    5  A    between atoms: C_15  and  C_16
REMARK    6  A    between atoms: C_15  and  C_17
REMARK    7  A    between atoms: C_15  and  C_18
REMARK    8  A    between atoms: C_20  and  C_21
REMARK                            x       y       z     vdW  Elec       q    Type
REMARK                         _______ _______ _______ _____ _____    ______ ____
ROOT
ATOM      1  C   UNL     1       0.047  11.769  19.711  0.00  0.00    +0.000 C 
ATOM      2  C   UNL     1      -1.385  12.268  19.834  0.00  0.00    +0.000 C 
ATOM      3  N   UNL     1      -2.240  11.153  19.394  0.00  0.00    +0.000 NA
ATOM      4  C   UNL     1      -1.517   9.927  19.799  0.00  0.00    +0.000 C 
ATOM      5  C   UNL     1      -0.054  10.300  20.141  0.00  0.00    +0.000 C 
ENDROOT
BRANCH   1  10
ATOM      6  C   UNL     1       3.575  15.345  18.940  0.00  0.00    +0.000 C 
ATOM      7  C   UNL     1       3.222  15.220  20.430  0.00  0.00    +0.000 C 
ATOM      8  C   UNL     1       3.116  13.769  20.886  0.00  0.00    +0.000 C 
ATOM      9  N   UNL     1       2.174  13.048  20.030  0.00  0.00    +0.000 N 
ATOM     10  C   UNL     1       0.992  12.580  20.587  0.00  0.00    +0.000 C 
ATOM     11  O   UNL     1       0.698  12.821  21.757  0.00  0.00    +0.000 OA
ATOM     12  C   UNL     1       2.589  12.992  18.630  0.00  0.00    +0.000 C 
ATOM     13  C   UNL     1       2.735  14.402  18.057  0.00  0.00    +0.000 C 
BRANCH   6  18
ATOM     14  C   UNL     1       8.495  14.948  19.374  0.00  0.00    +0.000 C 
ATOM     15  C   UNL     1       7.133  14.933  18.805  0.00  0.00    +0.000 A 
ATOM     16  N   UNL     1       6.850  14.404  17.610  0.00  0.00    +0.000 NA
ATOM     17  N   UNL     1       5.521  14.559  17.553  0.00  0.00    +0.000 N 
ATOM     18  C   UNL     1       5.037  15.148  18.690  0.00  0.00    +0.000 A 
ATOM     19  N   UNL     1       6.047  15.413  19.491  0.00  0.00    +0.000 NA
ATOM     20  H   UNL     1       5.014  14.215  16.745  0.00  0.00    +0.000 HD
ENDBRANCH   6  18
ENDBRANCH   1  10
BRANCH   5  21
ATOM     21  C   UNL     1       0.964   9.348  19.522  0.00  0.00    +0.000 A 
ATOM     22  C   UNL     1       1.486   9.503  18.224  0.00  0.00    +0.000 A 
ATOM     23  C   UNL     1       2.384   8.574  17.697  0.00  0.00    +0.000 A 
ATOM     24  C   UNL     1       2.795   7.496  18.469  0.00  0.00    +0.000 A 
ATOM     25  F   UNL     1       3.649   6.605  17.952  0.00  0.00    +0.000 F 
ATOM     26  C   UNL     1       2.333   7.335  19.765  0.00  0.00    +0.000 A 
ATOM     27  C   UNL     1       1.428   8.258  20.278  0.00  0.00    +0.000 A 
ATOM     28  F   UNL     1       0.985   8.086  21.533  0.00  0.00    +0.000 F 
ENDBRANCH   5  21
BRANCH   3  29
ATOM     29  C   UNL     1      -2.741  11.182  17.996  0.00  0.00    +0.000 C 
ATOM     30  C   UNL     1      -4.142  11.804  17.846  0.00  0.00    +0.000 C 
ATOM     31  C   UNL     1      -1.762  11.962  17.080  0.00  0.00    +0.000 C 
ATOM     32  C   UNL     1      -2.781   9.744  17.421  0.00  0.00    +0.000 C 
ENDBRANCH   3  29
TORSDOF 4
ENDMDL
MODEL 2
REMARK VINA RESULT:      -6.9      2.954      8.328
REMARK  Name = 
REMARK  8 active torsions:
REMARK  status: ('A' for Active; 'I' for Inactive)
REMARK    1  A    between atoms: C_1  and  C_2
REMARK    2  A    between atoms: C_5  and  C_6
REMARK    3  A    between atoms: C_10  and  C_12
REMARK    4  A    between atoms: N_14  and  C_15
REMARK    5  A    between atoms: C_15  and  C_16
REMARK    6  A    between atoms: C_15  and  C_17
REMARK    7  A    between atoms: C_15  and  C_18
REMARK    8  A    between atoms: C_20  and  C_21
REMARK                            x       y       z     vdW  Elec       q    Type
REMARK                         _______ _______ _______ _____ _____    ______ ____
ROOT
ATOM      1  C   UNL     1      -0.610  12.782  18.665  0.00  0.00    +0.000 C 
ATOM      2  C   UNL     1       0.150  13.784  17.809  0.00  0.00    +0.000 C 
ATOM      3  N   UNL     1       1.441  13.995  18.485  0.00  0.00    +0.000 NA
ATOM      4  C   UNL     1       1.764  12.697  19.118  0.00  0.00    +0.000 C 
ATOM      5  C   UNL     1       0.487  11.822  19.141  0.00  0.00    +0.000 C 
ENDROOT
BRANCH   1  10
ATOM      6  C   UNL     1      -5.665  12.367  18.974  0.00  0.00    +0.000 C 
ATOM      7  C   UNL     1      -5.145  11.856  17.622  0.00  0.00    +0.000 C 
ATOM      8  C   UNL     1      -3.896  10.994  17.764  0.00  0.00    +0.000 C 
ATOM      9  N   UNL     1      -2.873  11.724  18.514  0.00  0.00    +0.000 N 
ATOM     10  C   UNL     1      -1.702  12.085  17.863  0.00  0.00    +0.000 C 
ATOM     11  O   UNL     1      -1.544  11.867  16.663  0.00  0.00    +0.000 OA
ATOM     12  C   UNL     1      -3.279  12.056  19.877  0.00  0.00    +0.000 C 
ATOM     13  C   UNL     1      -4.539  12.924  19.865  0.00  0.00    +0.000 C 
BRANCH   6  18
ATOM     14  C   UNL     1      -7.912   8.182  20.389  0.00  0.00    +0.000 C 
ATOM     15  C   UNL     1      -7.412   9.571  20.383  0.00  0.00    +0.000 A 
ATOM     16  N   UNL     1      -7.445  10.360  21.463  0.00  0.00    +0.000 NA
ATOM     17  N   UNL     1      -6.842  11.467  21.008  0.00  0.00    +0.000 N 
ATOM     18  C   UNL     1      -6.455  11.324  19.703  0.00  0.00    +0.000 A 
ATOM     19  N   UNL     1      -6.825  10.135  19.279  0.00  0.00    +0.000 NA
ATOM     20  H   UNL     1      -6.699  12.249  21.636  0.00  0.00    +0.000 HD
ENDBRANCH   6  18
ENDBRANCH   1  10
BRANCH   5  21
ATOM     21  C   UNL     1       0.251  11.147  20.488  0.00  0.00    +0.000 A 
ATOM     22  C   UNL     1      -0.359  11.787  21.582  0.00  0.00    +0.000 A 
ATOM     23  C   UNL     1      -0.509  11.130  22.805  0.00  0.00    +0.000 A 
ATOM     24  C   UNL     1      -0.081   9.817  22.939  0.00  0.00    +0.000 A 
ATOM     25  F   UNL     1      -0.220   9.197  24.118  0.00  0.00    +0.000 F 
ATOM     26  C   UNL     1       0.487   9.142  21.870  0.00  0.00    +0.000 A 
ATOM     27  C   UNL     1       0.645   9.809  20.660  0.00  0.00    +0.000 A 
ATOM     28  F   UNL     1       1.202   9.145  19.636  0.00  0.00    +0.000 F 
ENDBRANCH   5  21
BRANCH   3  29
ATOM     29  C   UNL     1       1.574  15.194  19.352  0.00  0.00    +0.000 C 
ATOM     30  C   UNL     1       0.289  15.558  20.118  0.00  0.00    +0.000 C 
ATOM     31  C   UNL     1       2.716  14.999  20.384  0.00  0.00    +0.000 C 
ATOM     32  C   UNL     1       1.997  16.416  18.500  0.00  0.00    +0.000 C 
ENDBRANCH   3  29
TORSDOF 4
ENDMDL
MODEL 3
REMARK VINA RESULT:      -6.9      4.422      7.344
REMARK  Name = 
REMARK  8 active torsions:
REMARK  status: ('A' for Active; 'I' for Inactive)
REMARK    1  A    between atoms: C_1  and  C_2
REMARK    2  A    between atoms: C_5  and  C_6
REMARK    3  A    between atoms: C_10  and  C_12
REMARK    4  A    between atoms: N_14  and  C_15
REMARK    5  A    between atoms: C_15  and  C_16
REMARK    6  A    between atoms: C_15  and  C_17
REMARK    7  A    between atoms: C_15  and  C_18
REMARK    8  A    between atoms: C_20  and  C_21
REMARK                            x       y       z     vdW  Elec       q    Type
REMARK                         _______ _______ _______ _____ _____    ______ ____
ROOT
ATOM      1  C   UNL     1       2.525   6.429  18.639  0.00  0.00    +0.000 C 
ATOM      2  C   UNL     1       2.049   6.132  20.053  0.00  0.00    +0.000 C 
ATOM      3  N   UNL     1       2.829   4.968  20.505  0.00  0.00    +0.000 NA
ATOM      4  C   UNL     1       4.147   5.106  19.848  0.00  0.00    +0.000 C 
ATOM      5  C   UNL     1       4.031   6.145  18.707  0.00  0.00    +0.000 C 
ENDROOT
BRANCH   1  10
ATOM      6  C   UNL     1       1.227  10.697  21.073  0.00  0.00    +0.000 C 
ATOM      7  C   UNL     1       1.613  10.981  19.614  0.00  0.00    +0.000 C 
ATOM      8  C   UNL     1       1.017   9.969  18.643  0.00  0.00    +0.000 C 
ATOM      9  N   UNL     1       1.377   8.613  19.059  0.00  0.00    +0.000 N 
ATOM     10  C   UNL     1       2.209   7.864  18.239  0.00  0.00    +0.000 C 
ATOM     11  O   UNL     1       2.700   8.343  17.217  0.00  0.00    +0.000 OA
ATOM     12  C   UNL     1       0.854   8.252  20.375  0.00  0.00    +0.000 C 
ATOM     13  C   UNL     1       1.384   9.209  21.443  0.00  0.00    +0.000 C 
BRANCH   6  18
ATOM     14  C   UNL     1      -2.926  12.152  23.352  0.00  0.00    +0.000 C 
ATOM     15  C   UNL     1      -1.942  11.844  22.296  0.00  0.00    +0.000 A 
ATOM     16  N   UNL     1      -2.097  12.226  21.024  0.00  0.00    +0.000 NA
ATOM     17  N   UNL     1      -0.957  11.790  20.470  0.00  0.00    +0.000 N 
ATOM     18  C   UNL     1      -0.152  11.183  21.395  0.00  0.00    +0.000 A 
ATOM     19  N   UNL     1      -0.767  11.187  22.559  0.00  0.00    +0.000 NA
ATOM     20  H   UNL     1      -0.783  11.969  19.488  0.00  0.00    +0.000 HD
ENDBRANCH   6  18
ENDBRANCH   1  10
BRANCH   5  21
ATOM     21  C   UNL     1       4.686   5.682  17.410  0.00  0.00    +0.000 A 
ATOM     22  C   UNL     1       4.343   4.489  16.747  0.00  0.00    +0.000 A 
ATOM     23  C   UNL     1       5.009   4.098  15.585  0.00  0.00    +0.000 A 
ATOM     24  C   UNL     1       6.003   4.907  15.053  0.00  0.00    +0.000 A 
ATOM     25  F   UNL     1       6.643   4.519  13.943  0.00  0.00    +0.000 F 
ATOM     26  C   UNL     1       6.339   6.108  15.657  0.00  0.00    +0.000 A 
ATOM     27  C   UNL     1       5.679   6.484  16.823  0.00  0.00    +0.000 A 
ATOM     28  F   UNL     1       6.018   7.647  17.399  0.00  0.00    +0.000 F 
ENDBRANCH   5  21
BRANCH   3  29
ATOM     29  C   UNL     1       2.188   3.631  20.405  0.00  0.00    +0.000 C 
ATOM     30  C   UNL     1       0.796   3.652  19.745  0.00  0.00    +0.000 C 
ATOM     31  C   UNL     1       3.088   2.651  19.608  0.00  0.00    +0.000 C 
ATOM     32  C   UNL     1       2.050   3.006  21.815  0.00  0.00    +0.000 C 
ENDBRANCH   3  29
TORSDOF 4
ENDMDL
MODEL 4
REMARK VINA RESULT:      -6.8      4.453      7.322
REMARK  Name = 
REMARK  8 active torsions:
REMARK  status: ('A' for Active; 'I' for Inactive)
REMARK    1  A    between atoms: C_1  and  C_2
REMARK    2  A    between atoms: C_5  and  C_6
REMARK    3  A    between atoms: C_10  and  C_12
REMARK    4  A    between atoms: N_14  and  C_15
REMARK    5  A    between atoms: C_15  and  C_16
REMARK    6  A    between atoms: C_15  and  C_17
REMARK    7  A    between atoms: C_15  and  C_18
REMARK    8  A    between atoms: C_20  and  C_21
REMARK                            x       y       z     vdW  Elec       q    Type
REMARK                         _______ _______ _______ _____ _____    ______ ____
ROOT
ATOM      1  C   UNL     1       2.543   6.388  18.663  0.00  0.00    +0.000 C 
ATOM      2  C   UNL     1       1.862   5.980  19.961  0.00  0.00    +0.000 C 
ATOM      3  N   UNL     1       2.628   4.833  20.476  0.00  0.00    +0.000 NA
ATOM      4  C   UNL     1       4.025   5.082  20.058  0.00  0.00    +0.000 C 
ATOM      5  C   UNL     1       4.033   6.181  18.968  0.00  0.00    +0.000 C 
ENDROOT
BRANCH   1  10
ATOM      6  C   UNL     1       1.317  10.624  21.189  0.00  0.00    +0.000 C 
ATOM      7  C   UNL     1       1.650  10.926  19.721  0.00  0.00    +0.000 C 
ATOM      8  C   UNL     1       1.023   9.921  18.760  0.00  0.00    +0.000 C 
ATOM      9  N   UNL     1       1.403   8.562  19.148  0.00  0.00    +0.000 N 
ATOM     10  C   UNL     1       2.208   7.826  18.290  0.00  0.00    +0.000 C 
ATOM     11  O   UNL     1       2.660   8.318  17.257  0.00  0.00    +0.000 OA
ATOM     12  C   UNL     1       0.930   8.185  20.478  0.00  0.00    +0.000 C 
ATOM     13  C   UNL     1       1.493   9.133  21.536  0.00  0.00    +0.000 C 
BRANCH   6  18
ATOM     14  C   UNL     1      -2.725  12.132  23.628  0.00  0.00    +0.000 C 
ATOM     15  C   UNL     1      -1.798  11.779  22.534  0.00  0.00    +0.000 A 
ATOM     16  N   UNL     1      -2.039  12.078  21.253  0.00  0.00    +0.000 NA
ATOM     17  N   UNL     1      -0.925  11.633  20.657  0.00  0.00    +0.000 N 
ATOM     18  C   UNL     1      -0.051  11.101  21.566  0.00  0.00    +0.000 A 
ATOM     19  N   UNL     1      -0.595  11.164  22.762  0.00  0.00    +0.000 NA
ATOM     20  H   UNL     1      -0.814  11.754  19.657  0.00  0.00    +0.000 HD
ENDBRANCH   6  18
ENDBRANCH   1  10
BRANCH   5  21
ATOM     21  C   UNL     1       4.920   5.835  17.777  0.00  0.00    +0.000 A 
ATOM     22  C   UNL     1       6.191   6.400  17.564  0.00  0.00    +0.000 A 
ATOM     23  C   UNL     1       6.940   6.075  16.432  0.00  0.00    +0.000 A 
ATOM     24  C   UNL     1       6.442   5.160  15.515  0.00  0.00    +0.000 A 
ATOM     25  F   UNL     1       7.163   4.861  14.427  0.00  0.00    +0.000 F 
ATOM     26  C   UNL     1       5.212   4.553  15.714  0.00  0.00    +0.000 A 
ATOM     27  C   UNL     1       4.467   4.893  16.838  0.00  0.00    +0.000 A 
ATOM     28  F   UNL     1       3.276   4.302  17.015  0.00  0.00    +0.000 F 
ENDBRANCH   5  21
BRANCH   3  29
ATOM     29  C   UNL     1       2.098   3.474  20.201  0.00  0.00    +0.000 C 
ATOM     30  C   UNL     1       0.952   3.444  19.172  0.00  0.00    +0.000 C 
ATOM     31  C   UNL     1       3.227   2.537  19.697  0.00  0.00    +0.000 C 
ATOM     32  C   UNL     1       1.589   2.830  21.515  0.00  0.00    +0.000 C 
ENDBRANCH   3  29
TORSDOF 4
ENDMDL
MODEL 5
REMARK VINA RESULT:      -6.7      6.850      9.837
REMARK  Name = 
REMARK  8 active torsions:
REMARK  status: ('A' for Active; 'I' for Inactive)
REMARK    1  A    between atoms: C_1  and  C_2
REMARK    2  A    between atoms: C_5  and  C_6
REMARK    3  A    between atoms: C_10  and  C_12
REMARK    4  A    between atoms: N_14  and  C_15
REMARK    5  A    between atoms: C_15  and  C_16
REMARK    6  A    between atoms: C_15  and  C_17
REMARK    7  A    between atoms: C_15  and  C_18
REMARK    8  A    between atoms: C_20  and  C_21
REMARK                            x       y       z     vdW  Elec       q    Type
REMARK                         _______ _______ _______ _____ _____    ______ ____
ROOT
ATOM      1  C   UNL     1       8.930  14.146  20.865  0.00  0.00    +0.000 C 
ATOM      2  C   UNL     1      10.339  13.624  20.626  0.00  0.00    +0.000 C 
ATOM      3  N   UNL     1      10.526  13.621  19.165  0.00  0.00    +0.000 NA
ATOM      4  C   UNL     1       9.734  14.769  18.671  0.00  0.00    +0.000 C 
ATOM      5  C   UNL     1       8.769  15.230  19.791  0.00  0.00    +0.000 C 
ENDROOT
BRANCH   1  10
ATOM      6  C   UNL     1       8.038  12.154  25.454  0.00  0.00    +0.000 C 
ATOM      7  C   UNL     1       8.479  13.621  25.559  0.00  0.00    +0.000 C 
ATOM      8  C   UNL     1       7.799  14.511  24.525  0.00  0.00    +0.000 C 
ATOM      9  N   UNL     1       8.009  13.962  23.184  0.00  0.00    +0.000 N 
ATOM     10  C   UNL     1       8.773  14.686  22.280  0.00  0.00    +0.000 C 
ATOM     11  O   UNL     1       9.330  15.733  22.608  0.00  0.00    +0.000 OA
ATOM     12  C   UNL     1       7.427  12.634  23.004  0.00  0.00    +0.000 C 
ATOM     13  C   UNL     1       8.033  11.644  24.000  0.00  0.00    +0.000 C 
BRANCH   6  18
ATOM     14  C   UNL     1       3.849  12.560  28.071  0.00  0.00    +0.000 C 
ATOM     15  C   UNL     1       4.895  12.031  27.173  0.00  0.00    +0.000 A 
ATOM     16  N   UNL     1       4.708  10.962  26.391  0.00  0.00    +0.000 NA
ATOM     17  N   UNL     1       5.873  10.903  25.731  0.00  0.00    +0.000 N 
ATOM     18  C   UNL     1       6.712  11.917  26.107  0.00  0.00    +0.000 A 
ATOM     19  N   UNL     1       6.119  12.634  27.037  0.00  0.00    +0.000 NA
ATOM     20  H   UNL     1       6.011  10.184  25.030  0.00  0.00    +0.000 HD
ENDBRANCH   6  18
ENDBRANCH   1  10
BRANCH   5  21
ATOM     21  C   UNL     1       7.350  15.475  19.292  0.00  0.00    +0.000 A 
ATOM     22  C   UNL     1       6.728  14.692  18.301  0.00  0.00    +0.000 A 
ATOM     23  C   UNL     1       5.439  14.991  17.855  0.00  0.00    +0.000 A 
ATOM     24  C   UNL     1       4.746  16.057  18.412  0.00  0.00    +0.000 A 
ATOM     25  F   UNL     1       3.515  16.343  17.971  0.00  0.00    +0.000 F 
ATOM     26  C   UNL     1       5.313  16.823  19.418  0.00  0.00    +0.000 A 
ATOM     27  C   UNL     1       6.602  16.526  19.848  0.00  0.00    +0.000 A 
ATOM     28  F   UNL     1       7.139  17.280  20.818  0.00  0.00    +0.000 F 
ENDBRANCH   5  21
BRANCH   3  29
ATOM     29  C   UNL     1      10.325  12.335  18.450  0.00  0.00    +0.000 C 
ATOM     30  C   UNL     1      11.529  11.900  17.594  0.00  0.00    +0.000 C 
ATOM     31  C   UNL     1      10.005  11.195  19.453  0.00  0.00    +0.000 C 
ATOM     32  C   UNL     1       9.082  12.432  17.531  0.00  0.00    +0.000 C 
ENDBRANCH   3  29
TORSDOF 4
ENDMDL
MODEL 6
REMARK VINA RESULT:      -6.7      4.517      7.686
REMARK  Name = 
REMARK  8 active torsions:
REMARK  status: ('A' for Active; 'I' for Inactive)
REMARK    1  A    between atoms: C_1  and  C_2
REMARK    2  A    between atoms: C_5  and  C_6
REMARK    3  A    between atoms: C_10  and  C_12
REMARK    4  A    between atoms: N_14  and  C_15
REMARK    5  A    between atoms: C_15  and  C_16
REMARK    6  A    between atoms: C_15  and  C_17
REMARK    7  A    between atoms: C_15  and  C_18
REMARK    8  A    between atoms: C_20  and  C_21
REMARK                            x       y       z     vdW  Elec       q    Type
REMARK                         _______ _______ _______ _____ _____    ______ ____
ROOT
ATOM      1  C   UNL     1       3.374   7.055  18.160  0.00  0.00    +0.000 C 
ATOM      2  C   UNL     1       4.506   7.279  17.167  0.00  0.00    +0.000 C 
ATOM      3  N   UNL     1       5.229   6.000  17.084  0.00  0.00    +0.000 NA
ATOM      4  C   UNL     1       4.197   4.958  17.281  0.00  0.00    +0.000 C 
ATOM      5  C   UNL     1       2.923   5.619  17.861  0.00  0.00    +0.000 C 
ENDROOT
BRANCH   1  10
ATOM      6  C   UNL     1       1.405  10.853  20.902  0.00  0.00    +0.000 C 
ATOM      7  C   UNL     1       0.909  10.898  19.449  0.00  0.00    +0.000 C 
ATOM      8  C   UNL     1       0.522   9.522  18.920  0.00  0.00    +0.000 C 
ATOM      9  N   UNL     1       1.636   8.590  19.099  0.00  0.00    +0.000 N 
ATOM     10  C   UNL     1       2.262   8.078  17.971  0.00  0.00    +0.000 C 
ATOM     11  O   UNL     1       1.945   8.445  16.841  0.00  0.00    +0.000 OA
ATOM     12  C   UNL     1       2.002   8.386  20.498  0.00  0.00    +0.000 C 
ATOM     13  C   UNL     1       2.410   9.711  21.144  0.00  0.00    +0.000 C 
BRANCH   6  18
ATOM     14  C   UNL     1      -2.699  11.712  23.543  0.00  0.00    +0.000 C 
ATOM     15  C   UNL     1      -1.476  11.069  23.025  0.00  0.00    +0.000 A 
ATOM     16  N   UNL     1      -1.136   9.810  23.319  0.00  0.00    +0.000 NA
ATOM     17  N   UNL     1      -0.022   9.653  22.591  0.00  0.00    +0.000 N 
ATOM     18  C   UNL     1       0.274  10.784  21.880  0.00  0.00    +0.000 A 
ATOM     19  N   UNL     1      -0.626  11.704  22.156  0.00  0.00    +0.000 NA
ATOM     20  H   UNL     1       0.454   8.758  22.598  0.00  0.00    +0.000 HD
ENDBRANCH   6  18
ENDBRANCH   1  10
BRANCH   5  21
ATOM     21  C   UNL     1       2.328   4.844  19.032  0.00  0.00    +0.000 A 
ATOM     22  C   UNL     1       2.698   5.057  20.373  0.00  0.00    +0.000 A 
ATOM     23  C   UNL     1       2.149   4.286  21.399  0.00  0.00    +0.000 A 
ATOM     24  C   UNL     1       1.202   3.316  21.101  0.00  0.00    +0.000 A 
ATOM     25  F   UNL     1       0.687   2.574  22.090  0.00  0.00    +0.000 F 
ATOM     26  C   UNL     1       0.785   3.107  19.796  0.00  0.00    +0.000 A 
ATOM     27  C   UNL     1       1.348   3.871  18.779  0.00  0.00    +0.000 A 
ATOM     28  F   UNL     1       0.938   3.654  17.520  0.00  0.00    +0.000 F 
ENDBRANCH   5  21
BRANCH   3  29
ATOM     29  C   UNL     1       6.465   5.855  17.895  0.00  0.00    +0.000 C 
ATOM     30  C   UNL     1       6.206   5.518  19.375  0.00  0.00    +0.000 C 
ATOM     31  C   UNL     1       7.384   4.756  17.300  0.00  0.00    +0.000 C 
ATOM     32  C   UNL     1       7.294   7.161  17.830  0.00  0.00    +0.000 C 
ENDBRANCH   3  29
TORSDOF 4
ENDMDL
MODEL 7
REMARK VINA RESULT:      -6.7      3.574      7.328
REMARK  Name = 
REMARK  8 active torsions:
REMARK  status: ('A' for Active; 'I' for Inactive)
REMARK    1  A    between atoms: C_1  and  C_2
REMARK    2  A    between atoms: C_5  and  C_6
REMARK    3  A    between atoms: C_10  and  C_12
REMARK    4  A    between atoms: N_14  and  C_15
REMARK    5  A    between atoms: C_15  and  C_16
REMARK    6  A    between atoms: C_15  and  C_17
REMARK    7  A    between atoms: C_15  and  C_18
REMARK    8  A    between atoms: C_20  and  C_21
REMARK                            x       y       z     vdW  Elec       q    Type
REMARK                         _______ _______ _______ _____ _____    ______ ____
ROOT
ATOM      1  C   UNL     1       0.635  11.183  20.166  0.00  0.00    +0.000 C 
ATOM      2  C   UNL     1       1.467  12.273  20.824  0.00  0.00    +0.000 C 
ATOM      3  N   UNL     1       0.975  13.547  20.273  0.00  0.00    +0.000 NA
ATOM      4  C   UNL     1      -0.469  13.331  20.031  0.00  0.00    +0.000 C 
ATOM      5  C   UNL     1      -0.762  11.812  20.080  0.00  0.00    +0.000 C 
ENDROOT
BRANCH   1  10
ATOM      6  C   UNL     1       2.785   6.602  19.705  0.00  0.00    +0.000 C 
ATOM      7  C   UNL     1       2.211   6.811  21.115  0.00  0.00    +0.000 C 
ATOM      8  C   UNL     1       0.830   7.455  21.094  0.00  0.00    +0.000 C 
ATOM      9  N   UNL     1       0.874   8.698  20.323  0.00  0.00    +0.000 N 
ATOM     10  C   UNL     1       0.658   9.899  20.983  0.00  0.00    +0.000 C 
ATOM     11  O   UNL     1       0.504   9.939  22.203  0.00  0.00    +0.000 OA
ATOM     12  C   UNL     1       1.236   8.498  18.922  0.00  0.00    +0.000 C 
ATOM     13  C   UNL     1       2.615   7.846  18.812  0.00  0.00    +0.000 C 
BRANCH   6  18
ATOM     14  C   UNL     1       0.647   2.240  18.723  0.00  0.00    +0.000 C 
ATOM     15  C   UNL     1       1.290   3.558  18.545  0.00  0.00    +0.000 A 
ATOM     16  N   UNL     1       1.351   4.183  17.365  0.00  0.00    +0.000 NA
ATOM     17  N   UNL     1       1.948   5.335  17.699  0.00  0.00    +0.000 N 
ATOM     18  C   UNL     1       2.217   5.388  19.041  0.00  0.00    +0.000 A 
ATOM     19  N   UNL     1       1.826   4.260  19.594  0.00  0.00    +0.000 NA
ATOM     20  H   UNL     1       2.105   6.038  16.987  0.00  0.00    +0.000 HD
ENDBRANCH   6  18
ENDBRANCH   1  10
BRANCH   5  21
ATOM     21  C   UNL     1      -1.643  11.337  18.929  0.00  0.00    +0.000 A 
ATOM     22  C   UNL     1      -1.187  10.494  17.898  0.00  0.00    +0.000 A 
ATOM     23  C   UNL     1      -2.029  10.127  16.847  0.00  0.00    +0.000 A 
ATOM     24  C   UNL     1      -3.344  10.572  16.829  0.00  0.00    +0.000 A 
ATOM     25  F   UNL     1      -4.142  10.223  15.812  0.00  0.00    +0.000 F 
ATOM     26  C   UNL     1      -3.837  11.369  17.849  0.00  0.00    +0.000 A 
ATOM     27  C   UNL     1      -2.987  11.741  18.885  0.00  0.00    +0.000 A 
ATOM     28  F   UNL     1      -3.478  12.518  19.863  0.00  0.00    +0.000 F 
ENDBRANCH   5  21
BRANCH   3  29
ATOM     29  C   UNL     1       1.740  14.152  19.154  0.00  0.00    +0.000 C 
ATOM     30  C   UNL     1       1.978  13.197  17.969  0.00  0.00    +0.000 C 
ATOM     31  C   UNL     1       1.019  15.418  18.620  0.00  0.00    +0.000 C 
ATOM     32  C   UNL     1       3.116  14.649  19.663  0.00  0.00    +0.000 C 
ENDBRANCH   3  29
TORSDOF 4
ENDMDL
MODEL 8
REMARK VINA RESULT:      -6.6      3.358      8.504
REMARK  Name = 
REMARK  8 active torsions:
REMARK  status: ('A' for Active; 'I' for Inactive)
REMARK    1  A    between atoms: C_1  and  C_2
REMARK    2  A    between atoms: C_5  and  C_6
REMARK    3  A    between atoms: C_10  and  C_12
REMARK    4  A    between atoms: N_14  and  C_15
REMARK    5  A    between atoms: C_15  and  C_16
REMARK    6  A    between atoms: C_15  and  C_17
REMARK    7  A    between atoms: C_15  and  C_18
REMARK    8  A    between atoms: C_20  and  C_21
REMARK                            x       y       z     vdW  Elec       q    Type
REMARK                         _______ _______ _______ _____ _____    ______ ____
ROOT
ATOM      1  C   UNL     1       3.856  14.937  20.116  0.00  0.00    +0.000 C 
ATOM      2  C   UNL     1       5.210  14.760  20.787  0.00  0.00    +0.000 C 
ATOM      3  N   UNL     1       6.064  15.841  20.265  0.00  0.00    +0.000 NA
ATOM      4  C   UNL     1       5.148  16.980  20.033  0.00  0.00    +0.000 C 
ATOM      5  C   UNL     1       3.690  16.461  20.056  0.00  0.00    +0.000 C 
ENDROOT
BRANCH   1  10
ATOM      6  C   UNL     1       0.827  10.916  19.426  0.00  0.00    +0.000 C 
ATOM      7  C   UNL     1       0.767  11.418  20.877  0.00  0.00    +0.000 C 
ATOM      8  C   UNL     1       0.682  12.937  20.967  0.00  0.00    +0.000 C 
ATOM      9  N   UNL     1       1.782  13.541  20.215  0.00  0.00    +0.000 N 
ATOM     10  C   UNL     1       2.752  14.251  20.909  0.00  0.00    +0.000 C 
ATOM     11  O   UNL     1       2.739  14.318  22.137  0.00  0.00    +0.000 OA
ATOM     12  C   UNL     1       1.749  13.228  18.788  0.00  0.00    +0.000 C 
ATOM     13  C   UNL     1       1.825  11.717  18.569  0.00  0.00    +0.000 C 
BRANCH   6  18
ATOM     14  C   UNL     1      -3.152   9.806  16.688  0.00  0.00    +0.000 C 
ATOM     15  C   UNL     1      -2.266  10.457  17.674  0.00  0.00    +0.000 A 
ATOM     16  N   UNL     1      -2.713  11.319  18.594  0.00  0.00    +0.000 NA
ATOM     17  N   UNL     1      -1.594  11.585  19.281  0.00  0.00    +0.000 N 
ATOM     18  C   UNL     1      -0.525  10.889  18.785  0.00  0.00    +0.000 A 
ATOM     19  N   UNL     1      -0.926  10.181  17.750  0.00  0.00    +0.000 NA
ATOM     20  H   UNL     1      -1.637  12.209  20.079  0.00  0.00    +0.000 HD
ENDBRANCH   6  18
ENDBRANCH   1  10
BRANCH   5  21
ATOM     21  C   UNL     1       2.847  17.000  18.905  0.00  0.00    +0.000 A 
ATOM     22  C   UNL     1       3.177  16.819  17.549  0.00  0.00    +0.000 A 
ATOM     23  C   UNL     1       2.388  17.373  16.539  0.00  0.00    +0.000 A 
ATOM     24  C   UNL     1       1.245  18.087  16.870  0.00  0.00    +0.000 A 
ATOM     25  F   UNL     1       0.499  18.623  15.896  0.00  0.00    +0.000 F 
ATOM     26  C   UNL     1       0.868  18.250  18.193  0.00  0.00    +0.000 A 
ATOM     27  C   UNL     1       1.667  17.706  19.194  0.00  0.00    +0.000 A 
ATOM     28  F   UNL     1       1.293  17.876  20.470  0.00  0.00    +0.000 F 
ENDBRANCH   5  21
BRANCH   3  29
ATOM     29  C   UNL     1       6.987  15.508  19.150  0.00  0.00    +0.000 C 
ATOM     30  C   UNL     1       7.668  16.734  18.514  0.00  0.00    +0.000 C 
ATOM     31  C   UNL     1       8.093  14.531  19.628  0.00  0.00    +0.000 C 
ATOM     32  C   UNL     1       6.220  14.747  18.041  0.00  0.00    +0.000 C 
ENDBRANCH   3  29
TORSDOF 4
ENDMDL
MODEL 9
REMARK VINA RESULT:      -6.6      4.156      7.563
REMARK  Name = 
REMARK  8 active torsions:
REMARK  status: ('A' for Active; 'I' for Inactive)
REMARK    1  A    between atoms: C_1  and  C_2
REMARK    2  A    between atoms: C_5  and  C_6
REMARK    3  A    between atoms: C_10  and  C_12
REMARK    4  A    between atoms: N_14  and  C_15
REMARK    5  A    between atoms: C_15  and  C_16
REMARK    6  A    between atoms: C_15  and  C_17
REMARK    7  A    between atoms: C_15  and  C_18
REMARK    8  A    between atoms: C_20  and  C_21
REMARK                            x       y       z     vdW  Elec       q    Type
REMARK                         _______ _______ _______ _____ _____    ______ ____
ROOT
ATOM      1  C   UNL     1       3.076   6.405  18.405  0.00  0.00    +0.000 C 
ATOM      2  C   UNL     1       2.572   6.253  19.832  0.00  0.00    +0.000 C 
ATOM      3  N   UNL     1       3.142   4.990  20.330  0.00  0.00    +0.000 NA
ATOM      4  C   UNL     1       4.457   4.869  19.663  0.00  0.00    +0.000 C 
ATOM      5  C   UNL     1       4.510   5.865  18.479  0.00  0.00    +0.000 C 
ENDROOT
BRANCH   1  10
ATOM      6  C   UNL     1       0.776  10.642  20.011  0.00  0.00    +0.000 C 
ATOM      7  C   UNL     1       1.836  10.952  18.944  0.00  0.00    +0.000 C 
ATOM      8  C   UNL     1       1.791   9.976  17.774  0.00  0.00    +0.000 C 
ATOM      9  N   UNL     1       1.887   8.603  18.271  0.00  0.00    +0.000 N 
ATOM     10  C   UNL     1       3.011   7.855  17.947  0.00  0.00    +0.000 C 
ATOM     11  O   UNL     1       3.946   8.347  17.317  0.00  0.00    +0.000 OA
ATOM     12  C   UNL     1       0.780   8.222  19.144  0.00  0.00    +0.000 C 
ATOM     13  C   UNL     1       0.718   9.143  20.363  0.00  0.00    +0.000 C 
BRANCH   6  18
ATOM     14  C   UNL     1      -3.671  11.315  17.929  0.00  0.00    +0.000 C 
ATOM     15  C   UNL     1      -2.494  11.482  18.805  0.00  0.00    +0.000 A 
ATOM     16  N   UNL     1      -2.493  12.280  19.878  0.00  0.00    +0.000 NA
ATOM     17  N   UNL     1      -1.269  12.061  20.377  0.00  0.00    +0.000 N 
ATOM     18  C   UNL     1      -0.578  11.151  19.625  0.00  0.00    +0.000 A 
ATOM     19  N   UNL     1      -1.330  10.785  18.608  0.00  0.00    +0.000 NA
ATOM     20  H   UNL     1      -0.991  12.528  21.233  0.00  0.00    +0.000 HD
ENDBRANCH   6  18
ENDBRANCH   1  10
BRANCH   5  21
ATOM     21  C   UNL     1       5.061   5.243  17.200  0.00  0.00    +0.000 A 
ATOM     22  C   UNL     1       4.464   4.148  16.549  0.00  0.00    +0.000 A 
ATOM     23  C   UNL     1       5.039   3.595  15.403  0.00  0.00    +0.000 A 
ATOM     24  C   UNL     1       6.198   4.148  14.878  0.00  0.00    +0.000 A 
ATOM     25  F   UNL     1       6.749   3.606  13.784  0.00  0.00    +0.000 F 
ATOM     26  C   UNL     1       6.790   5.252  15.470  0.00  0.00    +0.000 A 
ATOM     27  C   UNL     1       6.218   5.789  16.619  0.00  0.00    +0.000 A 
ATOM     28  F   UNL     1       6.805   6.854  17.184  0.00  0.00    +0.000 F 
ENDBRANCH   5  21
BRANCH   3  29
ATOM     29  C   UNL     1       2.277   3.783  20.288  0.00  0.00    +0.000 C 
ATOM     30  C   UNL     1       2.632   2.796  19.160  0.00  0.00    +0.000 C 
ATOM     31  C   UNL     1       2.337   3.020  21.638  0.00  0.00    +0.000 C 
ATOM     32  C   UNL     1       0.795   4.202  20.121  0.00  0.00    +0.000 C 
ENDBRANCH   3  29
TORSDOF 4
ENDMDL
