MODEL 1
REMARK VINA RESULT:      -7.6      0.000      0.000
REMARK  Name = 
REMARK  9 active torsions:
REMARK  status: ('A' for Active; 'I' for Inactive)
REMARK    1  A    between atoms: C_1  and  C_2
REMARK    2  A    between atoms: C_2  and  C_3
REMARK    3  A    between atoms: C_2  and  N_4
REMARK    4  A    between atoms: N_4  and  S_5
REMARK    5  A    between atoms: S_5  and  C_8
REMARK    6  A    between atoms: C_11  and  C_12
REMARK    7  A    between atoms: C_12  and  N_13
REMARK    8  A    between atoms: C_14  and  C_16
REMARK    9  A    between atoms: C_22  and  O_23
REMARK                            x       y       z     vdW  Elec       q    Type
REMARK                         _______ _______ _______ _____ _____    ______ ____
ROOT
ATOM      1  C   UNL     1      -0.183  11.197  19.309  0.00  0.00    +0.000 A 
ATOM      2  C   UNL     1       0.755  10.459  18.563  0.00  0.00    +0.000 A 
ATOM      3  C   UNL     1       1.303   9.297  19.130  0.00  0.00    +0.000 A 
ATOM      4  C   UNL     1       0.946   8.871  20.417  0.00  0.00    +0.000 A 
ATOM      5  C   UNL     1       0.004   9.631  21.133  0.00  0.00    +0.000 A 
ATOM      6  C   UNL     1      -0.552  10.781  20.575  0.00  0.00    +0.000 A 
ENDROOT
BRANCH   1   7
ATOM      7  S   UNL     1      -0.918  12.704  18.700  0.00  0.00    +0.000 S 
ATOM      8  O   UNL     1       0.133  13.580  18.278  0.00  0.00    +0.000 OA
ATOM      9  O   UNL     1      -1.886  13.098  19.724  0.00  0.00    +0.000 OA
BRANCH   7  10
ATOM     10  N   UNL     1      -1.792  12.218  17.302  0.00  0.00    +0.000 NA
ATOM     11  H   UNL     1      -2.302  13.014  16.931  0.00  0.00    +0.000 HD
BRANCH  10  13
ATOM     12  C   UNL     1      -4.148  11.533  17.326  0.00  0.00    +0.000 C 
ATOM     13  C   UNL     1      -2.719  11.061  17.536  0.00  0.00    +0.000 C 
ATOM     14  C   UNL     1      -2.430   9.903  16.581  0.00  0.00    +0.000 C 
ENDBRANCH  10  13
ENDBRANCH   7  10
ENDBRANCH   1   7
BRANCH   4  15
ATOM     15  C   UNL     1       1.562   7.619  21.008  0.00  0.00    +0.000 C 
BRANCH  15  16
ATOM     16  N   UNL     1       2.454   6.933  20.101  0.00  0.00    +0.000 N 
ATOM     17  C   UNL     1       2.291   5.600  19.794  0.00  0.00    +0.000 C 
ATOM     18  O   UNL     1       1.390   4.900  20.240  0.00  0.00    +0.000 OA
ATOM     19  H   UNL     1       3.396   7.291  19.977  0.00  0.00    +0.000 HD
BRANCH  17  20
ATOM     20  C   UNL     1       3.284   5.026  18.835  0.00  0.00    +0.000 A 
ATOM     21  C   UNL     1       4.637   5.315  19.065  0.00  0.00    +0.000 A 
ATOM     22  C   UNL     1       5.612   4.819  18.200  0.00  0.00    +0.000 A 
ATOM     23 CL   UNL     1       7.270   5.170  18.487  0.00  0.00    +0.000 Cl
ATOM     24  C   UNL     1       5.254   4.039  17.101  0.00  0.00    +0.000 A 
ATOM     25  C   UNL     1       3.911   3.735  16.868  0.00  0.00    +0.000 A 
ATOM     26  C   UNL     1       2.932   4.223  17.738  0.00  0.00    +0.000 A 
BRANCH  26  27
ATOM     27  O   UNL     1       1.620   3.911  17.498  0.00  0.00    +0.000 OA
ATOM     28  H   UNL     1       1.578   3.220  16.813  0.00  0.00    +0.000 HD
ENDBRANCH  26  27
ENDBRANCH  17  20
ENDBRANCH  15  16
ENDBRANCH   4  15
TORSDOF 7
ENDMDL
MODEL 2
REMARK VINA RESULT:      -7.6      1.863      2.620
REMARK  Name = 
REMARK  9 active torsions:
REMARK  status: ('A' for Active; 'I' for Inactive)
REMARK    1  A    between atoms: C_1  and  C_2
REMARK    2  A    between atoms: C_2  and  C_3
REMARK    3  A    between atoms: C_2  and  N_4
REMARK    4  A    between atoms: N_4  and  S_5
REMARK    5  A    between atoms: S_5  and  C_8
REMARK    6  A    between atoms: C_11  and  C_12
REMARK    7  A    between atoms: C_12  and  N_13
REMARK    8  A    between atoms: C_14  and  C_16
REMARK    9  A    between atoms: C_22  and  O_23
REMARK                            x       y       z     vdW  Elec       q    Type
REMARK                         _______ _______ _______ _____ _____    ______ ____
ROOT
ATOM      1  C   UNL     1       0.913  10.217  19.519  0.00  0.00    +0.000 A 
ATOM      2  C   UNL     1       0.763   9.574  20.761  0.00  0.00    +0.000 A 
ATOM      3  C   UNL     1       1.264   8.269  20.909  0.00  0.00    +0.000 A 
ATOM      4  C   UNL     1       1.890   7.600  19.849  0.00  0.00    +0.000 A 
ATOM      5  C   UNL     1       2.026   8.274  18.622  0.00  0.00    +0.000 A 
ATOM      6  C   UNL     1       1.540   9.572  18.468  0.00  0.00    +0.000 A 
ENDROOT
BRANCH   1   7
ATOM      7  S   UNL     1       0.289  11.859  19.209  0.00  0.00    +0.000 S 
ATOM      8  O   UNL     1       1.385  12.690  18.810  0.00  0.00    +0.000 OA
ATOM      9  O   UNL     1      -0.538  12.180  20.372  0.00  0.00    +0.000 OA
BRANCH   7  10
ATOM     10  N   UNL     1      -0.751  11.671  17.853  0.00  0.00    +0.000 NA
ATOM     11  H   UNL     1      -1.063  12.586  17.540  0.00  0.00    +0.000 HD
BRANCH  10  13
ATOM     12  C   UNL     1      -3.169  11.632  18.267  0.00  0.00    +0.000 C 
ATOM     13  C   UNL     1      -1.925  10.772  18.108  0.00  0.00    +0.000 C 
ATOM     14  C   UNL     1      -2.144   9.788  16.960  0.00  0.00    +0.000 C 
ENDBRANCH  10  13
ENDBRANCH   7  10
ENDBRANCH   1   7
BRANCH   4  15
ATOM     15  C   UNL     1       2.411   6.189  20.035  0.00  0.00    +0.000 C 
BRANCH  15  16
ATOM     16  N   UNL     1       3.612   5.913  19.280  0.00  0.00    +0.000 N 
ATOM     17  C   UNL     1       3.682   4.868  18.385  0.00  0.00    +0.000 C 
ATOM     18  O   UNL     1       2.751   4.108  18.147  0.00  0.00    +0.000 OA
ATOM     19  H   UNL     1       4.505   6.223  19.651  0.00  0.00    +0.000 HD
BRANCH  17  20
ATOM     20  C   UNL     1       4.984   4.708  17.670  0.00  0.00    +0.000 A 
ATOM     21  C   UNL     1       4.931   4.432  16.296  0.00  0.00    +0.000 A 
ATOM     22  C   UNL     1       6.111   4.259  15.573  0.00  0.00    +0.000 A 
ATOM     23 CL   UNL     1       6.042   3.927  13.888  0.00  0.00    +0.000 Cl
ATOM     24  C   UNL     1       7.349   4.356  16.206  0.00  0.00    +0.000 A 
ATOM     25  C   UNL     1       7.416   4.641  17.571  0.00  0.00    +0.000 A 
ATOM     26  C   UNL     1       6.236   4.823  18.296  0.00  0.00    +0.000 A 
BRANCH  26  27
ATOM     27  O   UNL     1       6.319   5.108  19.634  0.00  0.00    +0.000 OA
ATOM     28  H   UNL     1       7.256   5.102  19.902  0.00  0.00    +0.000 HD
ENDBRANCH  26  27
ENDBRANCH  17  20
ENDBRANCH  15  16
ENDBRANCH   4  15
TORSDOF 7
ENDMDL
MODEL 3
REMARK VINA RESULT:      -7.5      1.064      1.084
REMARK  Name = 
REMARK  9 active torsions:
REMARK  status: ('A' for Active; 'I' for Inactive)
REMARK    1  A    between atoms: C_1  and  C_2
REMARK    2  A    between atoms: C_2  and  C_3
REMARK    3  A    between atoms: C_2  and  N_4
REMARK    4  A    between atoms: N_4  and  S_5
REMARK    5  A    between atoms: S_5  and  C_8
REMARK    6  A    between atoms: C_11  and  C_12
REMARK    7  A    between atoms: C_12  and  N_13
REMARK    8  A    between atoms: C_14  and  C_16
REMARK    9  A    between atoms: C_22  and  O_23
REMARK                            x       y       z     vdW  Elec       q    Type
REMARK                         _______ _______ _______ _____ _____    ______ ____
ROOT
ATOM      1  C   UNL     1      -0.194  11.237  19.329  0.00  0.00    +0.000 A 
ATOM      2  C   UNL     1       0.695  10.466  18.558  0.00  0.00    +0.000 A 
ATOM      3  C   UNL     1       1.266   9.319  19.135  0.00  0.00    +0.000 A 
ATOM      4  C   UNL     1       0.978   8.941  20.454  0.00  0.00    +0.000 A 
ATOM      5  C   UNL     1       0.082   9.734  21.194  0.00  0.00    +0.000 A 
ATOM      6  C   UNL     1      -0.495  10.869  20.627  0.00  0.00    +0.000 A 
ENDROOT
BRANCH   1   7
ATOM      7  S   UNL     1      -0.952  12.729  18.709  0.00  0.00    +0.000 S 
ATOM      8  O   UNL     1       0.087  13.631  18.313  0.00  0.00    +0.000 OA
ATOM      9  O   UNL     1      -1.950  13.096  19.713  0.00  0.00    +0.000 OA
BRANCH   7  10
ATOM     10  N   UNL     1      -1.784  12.227  17.291  0.00  0.00    +0.000 NA
ATOM     11  H   UNL     1      -2.292  13.017  16.902  0.00  0.00    +0.000 HD
BRANCH  10  13
ATOM     12  C   UNL     1      -4.139  11.543  17.355  0.00  0.00    +0.000 C 
ATOM     13  C   UNL     1      -2.705  11.063  17.507  0.00  0.00    +0.000 C 
ATOM     14  C   UNL     1      -2.446   9.942  16.500  0.00  0.00    +0.000 C 
ENDBRANCH  10  13
ENDBRANCH   7  10
ENDBRANCH   1   7
BRANCH   4  15
ATOM     15  C   UNL     1       1.617   7.705  21.054  0.00  0.00    +0.000 C 
BRANCH  15  16
ATOM     16  N   UNL     1       2.368   6.924  20.098  0.00  0.00    +0.000 N 
ATOM     17  C   UNL     1       2.125   5.581  19.908  0.00  0.00    +0.000 C 
ATOM     18  O   UNL     1       1.263   4.950  20.507  0.00  0.00    +0.000 OA
ATOM     19  H   UNL     1       3.299   7.233  19.836  0.00  0.00    +0.000 HD
BRANCH  17  20
ATOM     20  C   UNL     1       2.973   4.903  18.880  0.00  0.00    +0.000 A 
ATOM     21  C   UNL     1       3.620   5.722  17.943  0.00  0.00    +0.000 A 
ATOM     22  C   UNL     1       4.416   5.151  16.951  0.00  0.00    +0.000 A 
ATOM     23 CL   UNL     1       5.213   6.157  15.807  0.00  0.00    +0.000 Cl
ATOM     24  C   UNL     1       4.573   3.767  16.878  0.00  0.00    +0.000 A 
ATOM     25  C   UNL     1       3.943   2.943  17.812  0.00  0.00    +0.000 A 
ATOM     26  C   UNL     1       3.152   3.513  18.813  0.00  0.00    +0.000 A 
BRANCH  26  27
ATOM     27  O   UNL     1       2.544   2.689  19.724  0.00  0.00    +0.000 OA
ATOM     28  H   UNL     1       2.361   3.195  20.536  0.00  0.00    +0.000 HD
ENDBRANCH  26  27
ENDBRANCH  17  20
ENDBRANCH  15  16
ENDBRANCH   4  15
TORSDOF 7
ENDMDL
MODEL 4
REMARK VINA RESULT:      -7.4      4.138      8.479
REMARK  Name = 
REMARK  9 active torsions:
REMARK  status: ('A' for Active; 'I' for Inactive)
REMARK    1  A    between atoms: C_1  and  C_2
REMARK    2  A    between atoms: C_2  and  C_3
REMARK    3  A    between atoms: C_2  and  N_4
REMARK    4  A    between atoms: N_4  and  S_5
REMARK    5  A    between atoms: S_5  and  C_8
REMARK    6  A    between atoms: C_11  and  C_12
REMARK    7  A    between atoms: C_12  and  N_13
REMARK    8  A    between atoms: C_14  and  C_16
REMARK    9  A    between atoms: C_22  and  O_23
REMARK                            x       y       z     vdW  Elec       q    Type
REMARK                         _______ _______ _______ _____ _____    ______ ____
ROOT
ATOM      1  C   UNL     1       4.410   5.924  17.397  0.00  0.00    +0.000 A 
ATOM      2  C   UNL     1       4.243   5.016  18.459  0.00  0.00    +0.000 A 
ATOM      3  C   UNL     1       3.373   5.358  19.508  0.00  0.00    +0.000 A 
ATOM      4  C   UNL     1       2.687   6.580  19.522  0.00  0.00    +0.000 A 
ATOM      5  C   UNL     1       2.874   7.462  18.442  0.00  0.00    +0.000 A 
ATOM      6  C   UNL     1       3.729   7.128  17.393  0.00  0.00    +0.000 A 
ENDROOT
BRANCH   1   7
ATOM      7  S   UNL     1       5.512   5.608  16.030  0.00  0.00    +0.000 S 
ATOM      8  O   UNL     1       5.280   6.602  15.026  0.00  0.00    +0.000 OA
ATOM      9  O   UNL     1       5.372   4.180  15.749  0.00  0.00    +0.000 OA
BRANCH   7  10
ATOM     10  N   UNL     1       7.082   5.870  16.679  0.00  0.00    +0.000 NA
ATOM     11  H   UNL     1       7.520   4.973  16.871  0.00  0.00    +0.000 HD
BRANCH  10  13
ATOM     12  C   UNL     1       7.814   5.991  19.018  0.00  0.00    +0.000 C 
ATOM     13  C   UNL     1       7.096   6.736  17.905  0.00  0.00    +0.000 C 
ATOM     14  C   UNL     1       7.812   8.063  17.651  0.00  0.00    +0.000 C 
ENDBRANCH  10  13
ENDBRANCH   7  10
ENDBRANCH   1   7
BRANCH   4  15
ATOM     15  C   UNL     1       1.763   6.927  20.672  0.00  0.00    +0.000 C 
BRANCH  15  16
ATOM     16  N   UNL     1       1.346   8.310  20.680  0.00  0.00    +0.000 N 
ATOM     17  C   UNL     1       0.113   8.693  21.160  0.00  0.00    +0.000 C 
ATOM     18  O   UNL     1      -0.712   7.915  21.624  0.00  0.00    +0.000 OA
ATOM     19  H   UNL     1       1.767   8.952  20.015  0.00  0.00    +0.000 HD
BRANCH  17  20
ATOM     20  C   UNL     1      -0.179  10.158  21.113  0.00  0.00    +0.000 A 
ATOM     21  C   UNL     1      -0.311  10.745  19.846  0.00  0.00    +0.000 A 
ATOM     22  C   UNL     1      -0.570  12.110  19.734  0.00  0.00    +0.000 A 
ATOM     23 CL   UNL     1      -0.738  12.826  18.180  0.00  0.00    +0.000 Cl
ATOM     24  C   UNL     1      -0.698  12.903  20.874  0.00  0.00    +0.000 A 
ATOM     25  C   UNL     1      -0.579  12.328  22.141  0.00  0.00    +0.000 A 
ATOM     26  C   UNL     1      -0.328  10.959  22.257  0.00  0.00    +0.000 A 
BRANCH  26  27
ATOM     27  O   UNL     1      -0.220  10.410  23.508  0.00  0.00    +0.000 OA
ATOM     28  H   UNL     1      -0.081  11.124  24.157  0.00  0.00    +0.000 HD
ENDBRANCH  26  27
ENDBRANCH  17  20
ENDBRANCH  15  16
ENDBRANCH   4  15
TORSDOF 7
ENDMDL
MODEL 5
REMARK VINA RESULT:      -7.3      2.526      3.526
REMARK  Name = 
REMARK  9 active torsions:
REMARK  status: ('A' for Active; 'I' for Inactive)
REMARK    1  A    between atoms: C_1  and  C_2
REMARK    2  A    between atoms: C_2  and  C_3
REMARK    3  A    between atoms: C_2  and  N_4
REMARK    4  A    between atoms: N_4  and  S_5
REMARK    5  A    between atoms: S_5  and  C_8
REMARK    6  A    between atoms: C_11  and  C_12
REMARK    7  A    between atoms: C_12  and  N_13
REMARK    8  A    between atoms: C_14  and  C_16
REMARK    9  A    between atoms: C_22  and  O_23
REMARK                            x       y       z     vdW  Elec       q    Type
REMARK                         _______ _______ _______ _____ _____    ______ ____
ROOT
ATOM      1  C   UNL     1       0.877   9.948  19.835  0.00  0.00    +0.000 A 
ATOM      2  C   UNL     1       1.562   9.389  18.741  0.00  0.00    +0.000 A 
ATOM      3  C   UNL     1       2.054   8.078  18.851  0.00  0.00    +0.000 A 
ATOM      4  C   UNL     1       1.888   7.330  20.025  0.00  0.00    +0.000 A 
ATOM      5  C   UNL     1       1.196   7.918  21.099  0.00  0.00    +0.000 A 
ATOM      6  C   UNL     1       0.697   9.216  20.995  0.00  0.00    +0.000 A 
ENDROOT
BRANCH   1   7
ATOM      7  S   UNL     1       0.239  11.613  19.817  0.00  0.00    +0.000 S 
ATOM      8  O   UNL     1      -1.155  11.558  19.493  0.00  0.00    +0.000 OA
ATOM      9  O   UNL     1       1.188  12.378  19.009  0.00  0.00    +0.000 OA
BRANCH   7  10
ATOM     10  N   UNL     1       0.381  12.142  21.447  0.00  0.00    +0.000 NA
ATOM     11  H   UNL     1       0.785  11.397  22.008  0.00  0.00    +0.000 HD
BRANCH  10  13
ATOM     12  C   UNL     1      -1.435  11.534  22.981  0.00  0.00    +0.000 C 
ATOM     13  C   UNL     1      -0.911  12.613  22.047  0.00  0.00    +0.000 C 
ATOM     14  C   UNL     1      -0.728  13.909  22.837  0.00  0.00    +0.000 C 
ENDBRANCH  10  13
ENDBRANCH   7  10
ENDBRANCH   1   7
BRANCH   4  15
ATOM     15  C   UNL     1       2.439   5.921  20.119  0.00  0.00    +0.000 C 
BRANCH  15  16
ATOM     16  N   UNL     1       3.633   5.715  19.332  0.00  0.00    +0.000 N 
ATOM     17  C   UNL     1       3.743   4.672  18.439  0.00  0.00    +0.000 C 
ATOM     18  O   UNL     1       2.854   3.855  18.230  0.00  0.00    +0.000 OA
ATOM     19  H   UNL     1       4.516   6.081  19.676  0.00  0.00    +0.000 HD
BRANCH  17  20
ATOM     20  C   UNL     1       5.032   4.588  17.689  0.00  0.00    +0.000 A 
ATOM     21  C   UNL     1       4.956   4.328  16.312  0.00  0.00    +0.000 A 
ATOM     22  C   UNL     1       6.123   4.225  15.557  0.00  0.00    +0.000 A 
ATOM     23 CL   UNL     1       6.027   3.913  13.869  0.00  0.00    +0.000 Cl
ATOM     24  C   UNL     1       7.372   4.376  16.159  0.00  0.00    +0.000 A 
ATOM     25  C   UNL     1       7.460   4.646  17.526  0.00  0.00    +0.000 A 
ATOM     26  C   UNL     1       6.292   4.758  18.284  0.00  0.00    +0.000 A 
BRANCH  26  27
ATOM     27  O   UNL     1       6.397   5.028  19.623  0.00  0.00    +0.000 OA
ATOM     28  H   UNL     1       5.504   5.155  19.992  0.00  0.00    +0.000 HD
ENDBRANCH  26  27
ENDBRANCH  17  20
ENDBRANCH  15  16
ENDBRANCH   4  15
TORSDOF 7
ENDMDL
MODEL 6
REMARK VINA RESULT:      -7.2      3.187      4.555
REMARK  Name = 
REMARK  9 active torsions:
REMARK  status: ('A' for Active; 'I' for Inactive)
REMARK    1  A    between atoms: C_1  and  C_2
REMARK    2  A    between atoms: C_2  and  C_3
REMARK    3  A    between atoms: C_2  and  N_4
REMARK    4  A    between atoms: N_4  and  S_5
REMARK    5  A    between atoms: S_5  and  C_8
REMARK    6  A    between atoms: C_11  and  C_12
REMARK    7  A    between atoms: C_12  and  N_13
REMARK    8  A    between atoms: C_14  and  C_16
REMARK    9  A    between atoms: C_22  and  O_23
REMARK                            x       y       z     vdW  Elec       q    Type
REMARK                         _______ _______ _______ _____ _____    ______ ____
ROOT
ATOM      1  C   UNL     1       1.479   9.093  19.246  0.00  0.00    +0.000 A 
ATOM      2  C   UNL     1       2.127   8.855  18.020  0.00  0.00    +0.000 A 
ATOM      3  C   UNL     1       2.827   7.649  17.851  0.00  0.00    +0.000 A 
ATOM      4  C   UNL     1       2.900   6.694  18.875  0.00  0.00    +0.000 A 
ATOM      5  C   UNL     1       2.237   6.963  20.086  0.00  0.00    +0.000 A 
ATOM      6  C   UNL     1       1.534   8.154  20.260  0.00  0.00    +0.000 A 
ENDROOT
BRANCH   1   7
ATOM      7  S   UNL     1       0.589  10.602  19.582  0.00  0.00    +0.000 S 
ATOM      8  O   UNL     1      -0.803  10.369  19.338  0.00  0.00    +0.000 OA
ATOM      9  O   UNL     1       1.330  11.648  18.878  0.00  0.00    +0.000 OA
BRANCH   7  10
ATOM     10  N   UNL     1       0.794  10.851  21.271  0.00  0.00    +0.000 NA
ATOM     11  H   UNL     1       1.501  10.211  21.621  0.00  0.00    +0.000 HD
BRANCH  10  13
ATOM     12  C   UNL     1      -0.249   9.711  23.177  0.00  0.00    +0.000 C 
ATOM     13  C   UNL     1      -0.474  10.719  22.063  0.00  0.00    +0.000 C 
ATOM     14  C   UNL     1      -0.899  12.054  22.676  0.00  0.00    +0.000 C 
ENDBRANCH  10  13
ENDBRANCH   7  10
ENDBRANCH   1   7
BRANCH   4  15
ATOM     15  C   UNL     1       3.671   5.406  18.667  0.00  0.00    +0.000 C 
BRANCH  15  16
ATOM     16  N   UNL     1       4.469   5.400  17.462  0.00  0.00    +0.000 N 
ATOM     17  C   UNL     1       4.832   4.227  16.838  0.00  0.00    +0.000 C 
ATOM     18  O   UNL     1       4.506   3.113  17.233  0.00  0.00    +0.000 OA
ATOM     19  H   UNL     1       5.074   6.194  17.271  0.00  0.00    +0.000 HD
BRANCH  17  20
ATOM     20  C   UNL     1       5.650   4.374  15.597  0.00  0.00    +0.000 A 
ATOM     21  C   UNL     1       5.160   3.767  14.431  0.00  0.00    +0.000 A 
ATOM     22  C   UNL     1       5.883   3.857  13.242  0.00  0.00    +0.000 A 
ATOM     23 CL   UNL     1       5.277   3.117  11.813  0.00  0.00    +0.000 Cl
ATOM     24  C   UNL     1       7.096   4.545  13.200  0.00  0.00    +0.000 A 
ATOM     25  C   UNL     1       7.588   5.162  14.351  0.00  0.00    +0.000 A 
ATOM     26  C   UNL     1       6.862   5.081  15.542  0.00  0.00    +0.000 A 
BRANCH  26  27
ATOM     27  O   UNL     1       7.358   5.697  16.662  0.00  0.00    +0.000 OA
ATOM     28  H   UNL     1       7.982   5.095  17.105  0.00  0.00    +0.000 HD
ENDBRANCH  26  27
ENDBRANCH  17  20
ENDBRANCH  15  16
ENDBRANCH   4  15
TORSDOF 7
ENDMDL
MODEL 7
REMARK VINA RESULT:      -7.1      3.177      4.499
REMARK  Name = 
REMARK  9 active torsions:
REMARK  status: ('A' for Active; 'I' for Inactive)
REMARK    1  A    between atoms: C_1  and  C_2
REMARK    2  A    between atoms: C_2  and  C_3
REMARK    3  A    between atoms: C_2  and  N_4
REMARK    4  A    between atoms: N_4  and  S_5
REMARK    5  A    between atoms: S_5  and  C_8
REMARK    6  A    between atoms: C_11  and  C_12
REMARK    7  A    between atoms: C_12  and  N_13
REMARK    8  A    between atoms: C_14  and  C_16
REMARK    9  A    between atoms: C_22  and  O_23
REMARK                            x       y       z     vdW  Elec       q    Type
REMARK                         _______ _______ _______ _____ _____    ______ ____
ROOT
ATOM      1  C   UNL     1       1.361   9.170  19.546  0.00  0.00    +0.000 A 
ATOM      2  C   UNL     1       1.416   8.188  20.552  0.00  0.00    +0.000 A 
ATOM      3  C   UNL     1       1.946   6.926  20.233  0.00  0.00    +0.000 A 
ATOM      4  C   UNL     1       2.402   6.628  18.941  0.00  0.00    +0.000 A 
ATOM      5  C   UNL     1       2.336   7.636  17.962  0.00  0.00    +0.000 A 
ATOM      6  C   UNL     1       1.819   8.893  18.272  0.00  0.00    +0.000 A 
ENDROOT
BRANCH   1   7
ATOM      7  S   UNL     1       0.680  10.794  19.831  0.00  0.00    +0.000 S 
ATOM      8  O   UNL     1      -0.699  10.779  19.444  0.00  0.00    +0.000 OA
ATOM      9  O   UNL     1       1.638  11.722  19.231  0.00  0.00    +0.000 OA
BRANCH   7  10
ATOM     10  N   UNL     1       0.746  10.992  21.537  0.00  0.00    +0.000 NA
ATOM     11  H   UNL     1       1.471  10.388  21.917  0.00  0.00    +0.000 HD
BRANCH  10  13
ATOM     12  C   UNL     1      -0.340   9.730  23.339  0.00  0.00    +0.000 C 
ATOM     13  C   UNL     1      -0.562  10.744  22.229  0.00  0.00    +0.000 C 
ATOM     14  C   UNL     1      -1.134  12.026  22.833  0.00  0.00    +0.000 C 
ENDBRANCH  10  13
ENDBRANCH   7  10
ENDBRANCH   1   7
BRANCH   4  15
ATOM     15  C   UNL     1       2.959   5.255  18.624  0.00  0.00    +0.000 C 
BRANCH  15  16
ATOM     16  N   UNL     1       3.774   5.225  17.431  0.00  0.00    +0.000 N 
ATOM     17  C   UNL     1       5.005   4.607  17.408  0.00  0.00    +0.000 C 
ATOM     18  O   UNL     1       5.497   4.029  18.370  0.00  0.00    +0.000 OA
ATOM     19  H   UNL     1       3.644   5.950  16.731  0.00  0.00    +0.000 HD
BRANCH  17  20
ATOM     20  C   UNL     1       5.732   4.648  16.104  0.00  0.00    +0.000 A 
ATOM     21  C   UNL     1       5.088   4.081  14.993  0.00  0.00    +0.000 A 
ATOM     22  C   UNL     1       5.719   4.076  13.750  0.00  0.00    +0.000 A 
ATOM     23 CL   UNL     1       4.925   3.387  12.390  0.00  0.00    +0.000 Cl
ATOM     24  C   UNL     1       6.990   4.629  13.598  0.00  0.00    +0.000 A 
ATOM     25  C   UNL     1       7.636   5.205  14.693  0.00  0.00    +0.000 A 
ATOM     26  C   UNL     1       7.004   5.220  15.939  0.00  0.00    +0.000 A 
BRANCH  26  27
ATOM     27  O   UNL     1       7.650   5.794  17.002  0.00  0.00    +0.000 OA
ATOM     28  H   UNL     1       7.015   6.335  17.504  0.00  0.00    +0.000 HD
ENDBRANCH  26  27
ENDBRANCH  17  20
ENDBRANCH  15  16
ENDBRANCH   4  15
TORSDOF 7
ENDMDL
MODEL 8
REMARK VINA RESULT:      -7.1      4.162      8.771
REMARK  Name = 
REMARK  9 active torsions:
REMARK  status: ('A' for Active; 'I' for Inactive)
REMARK    1  A    between atoms: C_1  and  C_2
REMARK    2  A    between atoms: C_2  and  C_3
REMARK    3  A    between atoms: C_2  and  N_4
REMARK    4  A    between atoms: N_4  and  S_5
REMARK    5  A    between atoms: S_5  and  C_8
REMARK    6  A    between atoms: C_11  and  C_12
REMARK    7  A    between atoms: C_12  and  N_13
REMARK    8  A    between atoms: C_14  and  C_16
REMARK    9  A    between atoms: C_22  and  O_23
REMARK                            x       y       z     vdW  Elec       q    Type
REMARK                         _______ _______ _______ _____ _____    ______ ____
ROOT
ATOM      1  C   UNL     1       2.601   7.119  18.780  0.00  0.00    +0.000 A 
ATOM      2  C   UNL     1       2.424   8.109  17.797  0.00  0.00    +0.000 A 
ATOM      3  C   UNL     1       1.712   9.272  18.132  0.00  0.00    +0.000 A 
ATOM      4  C   UNL     1       1.168   9.456  19.411  0.00  0.00    +0.000 A 
ATOM      5  C   UNL     1       1.367   8.447  20.371  0.00  0.00    +0.000 A 
ATOM      6  C   UNL     1       2.079   7.292  20.049  0.00  0.00    +0.000 A 
ENDROOT
BRANCH   1   7
ATOM      7  S   UNL     1       3.460   5.589  18.456  0.00  0.00    +0.000 S 
ATOM      8  O   UNL     1       4.256   5.267  19.602  0.00  0.00    +0.000 OA
ATOM      9  O   UNL     1       4.051   5.756  17.129  0.00  0.00    +0.000 OA
BRANCH   7  10
ATOM     10  N   UNL     1       2.210   4.415  18.336  0.00  0.00    +0.000 NA
ATOM     11  H   UNL     1       1.316   4.886  18.232  0.00  0.00    +0.000 HD
BRANCH  10  13
ATOM     12  C   UNL     1       0.993   3.817  20.381  0.00  0.00    +0.000 C 
ATOM     13  C   UNL     1       2.167   3.453  19.488  0.00  0.00    +0.000 C 
ATOM     14  C   UNL     1       2.003   2.010  19.013  0.00  0.00    +0.000 C 
ENDBRANCH  10  13
ENDBRANCH   7  10
ENDBRANCH   1   7
BRANCH   4  15
ATOM     15  C   UNL     1       0.395  10.717  19.741  0.00  0.00    +0.000 C 
BRANCH  15  16
ATOM     16  N   UNL     1      -0.925  10.753  19.156  0.00  0.00    +0.000 N 
ATOM     17  C   UNL     1      -1.701  11.891  19.186  0.00  0.00    +0.000 C 
ATOM     18  O   UNL     1      -1.342  12.950  19.686  0.00  0.00    +0.000 OA
ATOM     19  H   UNL     1      -1.441   9.883  19.057  0.00  0.00    +0.000 HD
BRANCH  17  20
ATOM     20  C   UNL     1      -3.042  11.784  18.534  0.00  0.00    +0.000 A 
ATOM     21  C   UNL     1      -4.162  12.090  19.321  0.00  0.00    +0.000 A 
ATOM     22  C   UNL     1      -5.442  11.998  18.775  0.00  0.00    +0.000 A 
ATOM     23 CL   UNL     1      -6.813  12.380  19.740  0.00  0.00    +0.000 Cl
ATOM     24  C   UNL     1      -5.621  11.598  17.452  0.00  0.00    +0.000 A 
ATOM     25  C   UNL     1      -4.513  11.300  16.656  0.00  0.00    +0.000 A 
ATOM     26  C   UNL     1      -3.229  11.400  17.197  0.00  0.00    +0.000 A 
BRANCH  26  27
ATOM     27  O   UNL     1      -2.152  11.110  16.400  0.00  0.00    +0.000 OA
ATOM     28  H   UNL     1      -2.471  10.866  15.513  0.00  0.00    +0.000 HD
ENDBRANCH  26  27
ENDBRANCH  17  20
ENDBRANCH  15  16
ENDBRANCH   4  15
TORSDOF 7
ENDMDL
MODEL 9
REMARK VINA RESULT:      -7.1      3.999      8.862
REMARK  Name = 
REMARK  9 active torsions:
REMARK  status: ('A' for Active; 'I' for Inactive)
REMARK    1  A    between atoms: C_1  and  C_2
REMARK    2  A    between atoms: C_2  and  C_3
REMARK    3  A    between atoms: C_2  and  N_4
REMARK    4  A    between atoms: N_4  and  S_5
REMARK    5  A    between atoms: S_5  and  C_8
REMARK    6  A    between atoms: C_11  and  C_12
REMARK    7  A    between atoms: C_12  and  N_13
REMARK    8  A    between atoms: C_14  and  C_16
REMARK    9  A    between atoms: C_22  and  O_23
REMARK                            x       y       z     vdW  Elec       q    Type
REMARK                         _______ _______ _______ _____ _____    ______ ____
ROOT
ATOM      1  C   UNL     1       2.460   7.139  18.789  0.00  0.00    +0.000 A 
ATOM      2  C   UNL     1       2.246   8.128  17.812  0.00  0.00    +0.000 A 
ATOM      3  C   UNL     1       1.580   9.309  18.183  0.00  0.00    +0.000 A 
ATOM      4  C   UNL     1       1.119   9.510  19.491  0.00  0.00    +0.000 A 
ATOM      5  C   UNL     1       1.353   8.502  20.443  0.00  0.00    +0.000 A 
ATOM      6  C   UNL     1       2.020   7.330  20.086  0.00  0.00    +0.000 A 
ENDROOT
BRANCH   1   7
ATOM      7  S   UNL     1       3.265   5.590  18.423  0.00  0.00    +0.000 S 
ATOM      8  O   UNL     1       4.565   5.871  17.894  0.00  0.00    +0.000 OA
ATOM      9  O   UNL     1       2.278   4.814  17.672  0.00  0.00    +0.000 OA
BRANCH   7  10
ATOM     10  N   UNL     1       3.470   4.843  19.958  0.00  0.00    +0.000 NA
ATOM     11  H   UNL     1       4.461   4.798  20.179  0.00  0.00    +0.000 HD
BRANCH  10  13
ATOM     12  C   UNL     1       3.920   2.435  19.820  0.00  0.00    +0.000 C 
ATOM     13  C   UNL     1       2.845   3.483  20.060  0.00  0.00    +0.000 C 
ATOM     14  C   UNL     1       2.221   3.249  21.436  0.00  0.00    +0.000 C 
ENDBRANCH  10  13
ENDBRANCH   7  10
ENDBRANCH   1   7
BRANCH   4  15
ATOM     15  C   UNL     1       0.395  10.790  19.859  0.00  0.00    +0.000 C 
BRANCH  15  16
ATOM     16  N   UNL     1      -0.977  10.826  19.407  0.00  0.00    +0.000 N 
ATOM     17  C   UNL     1      -1.452  11.845  18.611  0.00  0.00    +0.000 C 
ATOM     18  O   UNL     1      -0.765  12.779  18.214  0.00  0.00    +0.000 OA
ATOM     19  H   UNL     1      -1.685  10.339  19.949  0.00  0.00    +0.000 HD
BRANCH  17  20
ATOM     20  C   UNL     1      -2.889  11.747  18.213  0.00  0.00    +0.000 A 
ATOM     21  C   UNL     1      -3.847  11.959  19.216  0.00  0.00    +0.000 A 
ATOM     22  C   UNL     1      -5.204  11.869  18.912  0.00  0.00    +0.000 A 
ATOM     23 CL   UNL     1      -6.376  12.135  20.142  0.00  0.00    +0.000 Cl
ATOM     24  C   UNL     1      -5.622  11.565  17.617  0.00  0.00    +0.000 A 
ATOM     25  C   UNL     1      -4.679  11.363  16.609  0.00  0.00    +0.000 A 
ATOM     26  C   UNL     1      -3.317  11.461  16.907  0.00  0.00    +0.000 A 
BRANCH  26  27
ATOM     27  O   UNL     1      -2.405  11.264  15.904  0.00  0.00    +0.000 OA
ATOM     28  H   UNL     1      -1.550  11.647  16.173  0.00  0.00    +0.000 HD
ENDBRANCH  26  27
ENDBRANCH  17  20
ENDBRANCH  15  16
ENDBRANCH   4  15
TORSDOF 7
ENDMDL
