MODEL 1
REMARK VINA RESULT:      -8.1      0.000      0.000
REMARK  Name = 
REMARK  7 active torsions:
REMARK  status: ('A' for Active; 'I' for Inactive)
REMARK    1  A    between atoms: C_1  and  N_2
REMARK    2  A    between atoms: N_2  and  C_3
REMARK    3  A    between atoms: C_3  and  C_4
REMARK    4  A    between atoms: C_4  and  C_5
REMARK    5  A    between atoms: C_11  and  C_13
REMARK    6  A    between atoms: C_18  and  O_19
REMARK    7  A    between atoms: O_19  and  C_20
REMARK                            x       y       z     vdW  Elec       q    Type
REMARK                         _______ _______ _______ _____ _____    ______ ____
ROOT
ATOM      1  C   UNL     1       4.018   4.017  18.843  0.00  0.00    +0.000 A 
ATOM      2  C   UNL     1       3.823   2.764  18.247  0.00  0.00    +0.000 A 
ATOM      3  C   UNL     1       2.543   2.241  18.091  0.00  0.00    +0.000 A 
ATOM      4  C   UNL     1       1.490   2.932  18.644  0.00  0.00    +0.000 A 
ATOM      5  N   UNL     1       1.642   4.083  19.321  0.00  0.00    +0.000 NA
ATOM      6  C   UNL     1       2.889   4.634  19.398  0.00  0.00    +0.000 A 
ENDROOT
BRANCH   1   9
ATOM      7  C   UNL     1       7.454   5.447  17.940  0.00  0.00    +0.000 C 
ATOM      8  N   UNL     1       6.056   5.073  17.756  0.00  0.00    +0.000 N 
ATOM      9  C   UNL     1       5.383   4.613  18.912  0.00  0.00    +0.000 C 
ATOM     10  O   UNL     1       5.923   4.664  20.018  0.00  0.00    +0.000 OA
BRANCH   8  11
ATOM     11  C   UNL     1       5.520   5.241  16.387  0.00  0.00    +0.000 C 
BRANCH  11  12
ATOM     12  C   UNL     1       5.644   4.017  15.478  0.00  0.00    +0.000 C 
BRANCH  12  13
ATOM     13  C   UNL     1       6.346   4.324  14.176  0.00  0.00    +0.000 A 
ATOM     14  C   UNL     1       6.068   3.552  13.046  0.00  0.00    +0.000 A 
ATOM     15  C   UNL     1       6.770   3.799  11.869  0.00  0.00    +0.000 A 
ATOM     16  C   UNL     1       7.733   4.795  11.849  0.00  0.00    +0.000 A 
ATOM     17  C   UNL     1       7.959   5.511  13.013  0.00  0.00    +0.000 A 
ATOM     18  N   UNL     1       7.298   5.287  14.173  0.00  0.00    +0.000 NA
ENDBRANCH  12  13
ENDBRANCH  11  12
ENDBRANCH   8  11
ENDBRANCH   1   9
BRANCH   6  19
ATOM     19  O   UNL     1       3.009   5.849  20.071  0.00  0.00    +0.000 OA
BRANCH  19  20
ATOM     20  C   UNL     1       2.475   6.981  19.479  0.00  0.00    +0.000 A 
ATOM     21  C   UNL     1       1.716   7.844  20.278  0.00  0.00    +0.000 A 
ATOM     22  C   UNL     1       1.190   9.024  19.734  0.00  0.00    +0.000 A 
ATOM     23  C   UNL     1       1.427   9.349  18.398  0.00  0.00    +0.000 A 
ATOM     24  C   UNL     1       2.198   8.501  17.606  0.00  0.00    +0.000 A 
ATOM     25  C   UNL     1       2.736   7.332  18.150  0.00  0.00    +0.000 A 
ENDBRANCH  19  20
ENDBRANCH   6  19
TORSDOF 6
ENDMDL
MODEL 2
REMARK VINA RESULT:      -8.0      0.697      1.250
REMARK  Name = 
REMARK  7 active torsions:
REMARK  status: ('A' for Active; 'I' for Inactive)
REMARK    1  A    between atoms: C_1  and  N_2
REMARK    2  A    between atoms: N_2  and  C_3
REMARK    3  A    between atoms: C_3  and  C_4
REMARK    4  A    between atoms: C_4  and  C_5
REMARK    5  A    between atoms: C_11  and  C_13
REMARK    6  A    between atoms: C_18  and  O_19
REMARK    7  A    between atoms: O_19  and  C_20
REMARK                            x       y       z     vdW  Elec       q    Type
REMARK                         _______ _______ _______ _____ _____    ______ ____
ROOT
ATOM      1  C   UNL     1       3.484   3.624  19.018  0.00  0.00    +0.000 A 
ATOM      2  C   UNL     1       3.008   2.398  18.534  0.00  0.00    +0.000 A 
ATOM      3  C   UNL     1       1.648   2.106  18.547  0.00  0.00    +0.000 A 
ATOM      4  C   UNL     1       0.800   3.003  19.156  0.00  0.00    +0.000 A 
ATOM      5  N   UNL     1       1.225   4.141  19.731  0.00  0.00    +0.000 NA
ATOM      6  C   UNL     1       2.549   4.461  19.641  0.00  0.00    +0.000 A 
ENDROOT
BRANCH   1   9
ATOM      7  C   UNL     1       6.967   4.465  17.666  0.00  0.00    +0.000 C 
ATOM      8  N   UNL     1       5.513   4.351  17.674  0.00  0.00    +0.000 N 
ATOM      9  C   UNL     1       4.930   3.967  18.905  0.00  0.00    +0.000 C 
ATOM     10  O   UNL     1       5.615   3.875  19.924  0.00  0.00    +0.000 OA
BRANCH   8  11
ATOM     11  C   UNL     1       4.835   4.669  16.397  0.00  0.00    +0.000 C 
BRANCH  11  12
ATOM     12  C   UNL     1       5.553   5.685  15.507  0.00  0.00    +0.000 C 
BRANCH  12  13
ATOM     13  C   UNL     1       6.098   5.070  14.240  0.00  0.00    +0.000 A 
ATOM     14  C   UNL     1       5.404   4.021  13.631  0.00  0.00    +0.000 A 
ATOM     15  C   UNL     1       5.949   3.415  12.501  0.00  0.00    +0.000 A 
ATOM     16  C   UNL     1       7.167   3.858  12.015  0.00  0.00    +0.000 A 
ATOM     17  C   UNL     1       7.801   4.895  12.679  0.00  0.00    +0.000 A 
ATOM     18  N   UNL     1       7.299   5.497  13.783  0.00  0.00    +0.000 NA
ENDBRANCH  12  13
ENDBRANCH  11  12
ENDBRANCH   8  11
ENDBRANCH   1   9
BRANCH   6  19
ATOM     19  O   UNL     1       2.953   5.667  20.212  0.00  0.00    +0.000 OA
BRANCH  19  20
ATOM     20  C   UNL     1       2.503   6.846  19.641  0.00  0.00    +0.000 A 
ATOM     21  C   UNL     1       2.811   7.084  18.297  0.00  0.00    +0.000 A 
ATOM     22  C   UNL     1       2.341   8.244  17.664  0.00  0.00    +0.000 A 
ATOM     23  C   UNL     1       1.559   9.161  18.368  0.00  0.00    +0.000 A 
ATOM     24  C   UNL     1       1.237   8.916  19.701  0.00  0.00    +0.000 A 
ATOM     25  C   UNL     1       1.691   7.754  20.329  0.00  0.00    +0.000 A 
ENDBRANCH  19  20
ENDBRANCH   6  19
TORSDOF 6
ENDMDL
MODEL 3
REMARK VINA RESULT:      -8.0      0.918      1.383
REMARK  Name = 
REMARK  7 active torsions:
REMARK  status: ('A' for Active; 'I' for Inactive)
REMARK    1  A    between atoms: C_1  and  N_2
REMARK    2  A    between atoms: N_2  and  C_3
REMARK    3  A    between atoms: C_3  and  C_4
REMARK    4  A    between atoms: C_4  and  C_5
REMARK    5  A    between atoms: C_11  and  C_13
REMARK    6  A    between atoms: C_18  and  O_19
REMARK    7  A    between atoms: O_19  and  C_20
REMARK                            x       y       z     vdW  Elec       q    Type
REMARK                         _______ _______ _______ _____ _____    ______ ____
ROOT
ATOM      1  C   UNL     1       4.206   4.250  18.607  0.00  0.00    +0.000 A 
ATOM      2  C   UNL     1       3.981   2.912  18.955  0.00  0.00    +0.000 A 
ATOM      3  C   UNL     1       2.821   2.255  18.554  0.00  0.00    +0.000 A 
ATOM      4  C   UNL     1       1.852   2.990  17.910  0.00  0.00    +0.000 A 
ATOM      5  N   UNL     1       1.977   4.304  17.652  0.00  0.00    +0.000 NA
ATOM      6  C   UNL     1       3.151   4.921  17.973  0.00  0.00    +0.000 A 
ENDROOT
BRANCH   1   9
ATOM      7  C   UNL     1       7.865   5.381  18.637  0.00  0.00    +0.000 C 
ATOM      8  N   UNL     1       6.615   4.866  18.088  0.00  0.00    +0.000 N 
ATOM      9  C   UNL     1       5.496   4.911  18.953  0.00  0.00    +0.000 C 
ATOM     10  O   UNL     1       5.565   5.479  20.044  0.00  0.00    +0.000 OA
BRANCH   8  11
ATOM     11  C   UNL     1       6.677   4.378  16.693  0.00  0.00    +0.000 C 
BRANCH  11  12
ATOM     12  C   UNL     1       6.213   5.373  15.627  0.00  0.00    +0.000 C 
BRANCH  12  13
ATOM     13  C   UNL     1       6.472   4.886  14.221  0.00  0.00    +0.000 A 
ATOM     14  C   UNL     1       5.713   3.833  13.706  0.00  0.00    +0.000 A 
ATOM     15  C   UNL     1       6.005   3.347  12.435  0.00  0.00    +0.000 A 
ATOM     16  C   UNL     1       7.046   3.910  11.715  0.00  0.00    +0.000 A 
ATOM     17  C   UNL     1       7.761   4.944  12.297  0.00  0.00    +0.000 A 
ATOM     18  N   UNL     1       7.504   5.431  13.534  0.00  0.00    +0.000 NA
ENDBRANCH  12  13
ENDBRANCH  11  12
ENDBRANCH   8  11
ENDBRANCH   1   9
BRANCH   6  19
ATOM     19  O   UNL     1       3.267   6.274  17.655  0.00  0.00    +0.000 OA
BRANCH  19  20
ATOM     20  C   UNL     1       2.595   7.192  18.444  0.00  0.00    +0.000 A 
ATOM     21  C   UNL     1       2.121   8.359  17.834  0.00  0.00    +0.000 A 
ATOM     22  C   UNL     1       1.398   9.299  18.582  0.00  0.00    +0.000 A 
ATOM     23  C   UNL     1       1.141   9.072  19.935  0.00  0.00    +0.000 A 
ATOM     24  C   UNL     1       1.596   7.903  20.540  0.00  0.00    +0.000 A 
ATOM     25  C   UNL     1       2.303   6.958  19.792  0.00  0.00    +0.000 A 
ENDBRANCH  19  20
ENDBRANCH   6  19
TORSDOF 6
ENDMDL
MODEL 4
REMARK VINA RESULT:      -7.6      0.612      1.441
REMARK  Name = 
REMARK  7 active torsions:
REMARK  status: ('A' for Active; 'I' for Inactive)
REMARK    1  A    between atoms: C_1  and  N_2
REMARK    2  A    between atoms: N_2  and  C_3
REMARK    3  A    between atoms: C_3  and  C_4
REMARK    4  A    between atoms: C_4  and  C_5
REMARK    5  A    between atoms: C_11  and  C_13
REMARK    6  A    between atoms: C_18  and  O_19
REMARK    7  A    between atoms: O_19  and  C_20
REMARK                            x       y       z     vdW  Elec       q    Type
REMARK                         _______ _______ _______ _____ _____    ______ ____
ROOT
ATOM      1  C   UNL     1       3.870   3.839  18.795  0.00  0.00    +0.000 A 
ATOM      2  C   UNL     1       3.554   2.641  18.142  0.00  0.00    +0.000 A 
ATOM      3  C   UNL     1       2.229   2.273  17.927  0.00  0.00    +0.000 A 
ATOM      4  C   UNL     1       1.243   3.059  18.478  0.00  0.00    +0.000 A 
ATOM      5  N   UNL     1       1.501   4.159  19.206  0.00  0.00    +0.000 NA
ATOM      6  C   UNL     1       2.799   4.560  19.341  0.00  0.00    +0.000 A 
ENDROOT
BRANCH   1   9
ATOM      7  C   UNL     1       7.479   4.883  18.051  0.00  0.00    +0.000 C 
ATOM      8  N   UNL     1       6.055   4.677  17.808  0.00  0.00    +0.000 N 
ATOM      9  C   UNL     1       5.290   4.272  18.927  0.00  0.00    +0.000 C 
ATOM     10  O   UNL     1       5.789   4.237  20.052  0.00  0.00    +0.000 OA
BRANCH   8  11
ATOM     11  C   UNL     1       5.595   4.934  16.425  0.00  0.00    +0.000 C 
BRANCH  11  12
ATOM     12  C   UNL     1       6.652   5.499  15.475  0.00  0.00    +0.000 C 
BRANCH  12  13
ATOM     13  C   UNL     1       6.684   4.785  14.145  0.00  0.00    +0.000 A 
ATOM     14  C   UNL     1       7.640   5.145  13.192  0.00  0.00    +0.000 A 
ATOM     15  C   UNL     1       7.618   4.528  11.944  0.00  0.00    +0.000 A 
ATOM     16  C   UNL     1       6.645   3.581  11.673  0.00  0.00    +0.000 A 
ATOM     17  C   UNL     1       5.724   3.284  12.664  0.00  0.00    +0.000 A 
ATOM     18  N   UNL     1       5.716   3.873  13.883  0.00  0.00    +0.000 NA
ENDBRANCH  12  13
ENDBRANCH  11  12
ENDBRANCH   8  11
ENDBRANCH   1   9
BRANCH   6  19
ATOM     19  O   UNL     1       3.033   5.727  20.067  0.00  0.00    +0.000 OA
BRANCH  19  20
ATOM     20  C   UNL     1       2.543   6.920  19.566  0.00  0.00    +0.000 A 
ATOM     21  C   UNL     1       2.797   7.222  18.223  0.00  0.00    +0.000 A 
ATOM     22  C   UNL     1       2.284   8.399  17.658  0.00  0.00    +0.000 A 
ATOM     23  C   UNL     1       1.513   9.270  18.430  0.00  0.00    +0.000 A 
ATOM     24  C   UNL     1       1.244   8.963  19.761  0.00  0.00    +0.000 A 
ATOM     25  C   UNL     1       1.741   7.783  20.321  0.00  0.00    +0.000 A 
ENDBRANCH  19  20
ENDBRANCH   6  19
TORSDOF 6
ENDMDL
MODEL 5
REMARK VINA RESULT:      -7.6      1.013      1.599
REMARK  Name = 
REMARK  7 active torsions:
REMARK  status: ('A' for Active; 'I' for Inactive)
REMARK    1  A    between atoms: C_1  and  N_2
REMARK    2  A    between atoms: N_2  and  C_3
REMARK    3  A    between atoms: C_3  and  C_4
REMARK    4  A    between atoms: C_4  and  C_5
REMARK    5  A    between atoms: C_11  and  C_13
REMARK    6  A    between atoms: C_18  and  O_19
REMARK    7  A    between atoms: O_19  and  C_20
REMARK                            x       y       z     vdW  Elec       q    Type
REMARK                         _______ _______ _______ _____ _____    ______ ____
ROOT
ATOM      1  C   UNL     1       3.917   4.209  18.969  0.00  0.00    +0.000 A 
ATOM      2  C   UNL     1       3.665   2.981  19.595  0.00  0.00    +0.000 A 
ATOM      3  C   UNL     1       2.381   2.447  19.628  0.00  0.00    +0.000 A 
ATOM      4  C   UNL     1       1.350   3.213  19.134  0.00  0.00    +0.000 A 
ATOM      5  N   UNL     1       1.528   4.444  18.623  0.00  0.00    +0.000 NA
ATOM      6  C   UNL     1       2.801   4.926  18.517  0.00  0.00    +0.000 A 
ENDROOT
BRANCH   1   9
ATOM      7  C   UNL     1       7.552   4.756  17.895  0.00  0.00    +0.000 C 
ATOM      8  N   UNL     1       6.158   4.341  17.782  0.00  0.00    +0.000 N 
ATOM      9  C   UNL     1       5.311   4.721  18.849  0.00  0.00    +0.000 C 
ATOM     10  O   UNL     1       5.717   5.470  19.739  0.00  0.00    +0.000 OA
BRANCH   8  11
ATOM     11  C   UNL     1       5.809   3.592  16.555  0.00  0.00    +0.000 C 
BRANCH  11  12
ATOM     12  C   UNL     1       5.226   4.430  15.415  0.00  0.00    +0.000 C 
BRANCH  12  13
ATOM     13  C   UNL     1       6.034   4.328  14.143  0.00  0.00    +0.000 A 
ATOM     14  C   UNL     1       7.145   5.156  13.965  0.00  0.00    +0.000 A 
ATOM     15  C   UNL     1       7.842   5.102  12.760  0.00  0.00    +0.000 A 
ATOM     16  C   UNL     1       7.413   4.239  11.766  0.00  0.00    +0.000 A 
ATOM     17  C   UNL     1       6.297   3.457  12.012  0.00  0.00    +0.000 A 
ATOM     18  N   UNL     1       5.595   3.494  13.170  0.00  0.00    +0.000 NA
ENDBRANCH  12  13
ENDBRANCH  11  12
ENDBRANCH   8  11
ENDBRANCH   1   9
BRANCH   6  19
ATOM     19  O   UNL     1       2.958   6.188  17.946  0.00  0.00    +0.000 OA
BRANCH  19  20
ATOM     20  C   UNL     1       2.365   7.270  18.573  0.00  0.00    +0.000 A 
ATOM     21  C   UNL     1       1.959   8.348  17.778  0.00  0.00    +0.000 A 
ATOM     22  C   UNL     1       1.316   9.449  18.363  0.00  0.00    +0.000 A 
ATOM     23  C   UNL     1       1.070   9.471  19.736  0.00  0.00    +0.000 A 
ATOM     24  C   UNL     1       1.457   8.391  20.526  0.00  0.00    +0.000 A 
ATOM     25  C   UNL     1       2.084   7.287  19.943  0.00  0.00    +0.000 A 
ENDBRANCH  19  20
ENDBRANCH   6  19
TORSDOF 6
ENDMDL
MODEL 6
REMARK VINA RESULT:      -7.5      0.924      1.354
REMARK  Name = 
REMARK  7 active torsions:
REMARK  status: ('A' for Active; 'I' for Inactive)
REMARK    1  A    between atoms: C_1  and  N_2
REMARK    2  A    between atoms: N_2  and  C_3
REMARK    3  A    between atoms: C_3  and  C_4
REMARK    4  A    between atoms: C_4  and  C_5
REMARK    5  A    between atoms: C_11  and  C_13
REMARK    6  A    between atoms: C_18  and  O_19
REMARK    7  A    between atoms: O_19  and  C_20
REMARK                            x       y       z     vdW  Elec       q    Type
REMARK                         _______ _______ _______ _____ _____    ______ ____
ROOT
ATOM      1  C   UNL     1       4.012   4.288  18.700  0.00  0.00    +0.000 A 
ATOM      2  C   UNL     1       3.729   2.973  19.091  0.00  0.00    +0.000 A 
ATOM      3  C   UNL     1       2.485   2.405  18.840  0.00  0.00    +0.000 A 
ATOM      4  C   UNL     1       1.504   3.208  18.304  0.00  0.00    +0.000 A 
ATOM      5  N   UNL     1       1.696   4.507  18.013  0.00  0.00    +0.000 NA
ATOM      6  C   UNL     1       2.943   5.034  18.184  0.00  0.00    +0.000 A 
ENDROOT
BRANCH   1   9
ATOM      7  C   UNL     1       7.563   5.587  18.092  0.00  0.00    +0.000 C 
ATOM      8  N   UNL     1       6.179   5.243  17.783  0.00  0.00    +0.000 N 
ATOM      9  C   UNL     1       5.380   4.851  18.882  0.00  0.00    +0.000 C 
ATOM     10  O   UNL     1       5.808   4.935  20.034  0.00  0.00    +0.000 OA
BRANCH   8  11
ATOM     11  C   UNL     1       5.788   5.365  16.361  0.00  0.00    +0.000 C 
BRANCH  11  12
ATOM     12  C   UNL     1       5.689   4.047  15.590  0.00  0.00    +0.000 C 
BRANCH  12  13
ATOM     13  C   UNL     1       6.324   4.121  14.222  0.00  0.00    +0.000 A 
ATOM     14  C   UNL     1       7.331   5.058  13.980  0.00  0.00    +0.000 A 
ATOM     15  C   UNL     1       7.863   5.164  12.698  0.00  0.00    +0.000 A 
ATOM     16  C   UNL     1       7.374   4.348  11.691  0.00  0.00    +0.000 A 
ATOM     17  C   UNL     1       6.367   3.450  12.005  0.00  0.00    +0.000 A 
ATOM     18  N   UNL     1       5.826   3.331  13.241  0.00  0.00    +0.000 NA
ENDBRANCH  12  13
ENDBRANCH  11  12
ENDBRANCH   8  11
ENDBRANCH   1   9
BRANCH   6  19
ATOM     19  O   UNL     1       3.123   6.373  17.836  0.00  0.00    +0.000 OA
BRANCH  19  20
ATOM     20  C   UNL     1       2.397   7.332  18.523  0.00  0.00    +0.000 A 
ATOM     21  C   UNL     1       2.191   7.142  19.894  0.00  0.00    +0.000 A 
ATOM     22  C   UNL     1       1.498   8.106  20.640  0.00  0.00    +0.000 A 
ATOM     23  C   UNL     1       1.020   9.262  20.022  0.00  0.00    +0.000 A 
ATOM     24  C   UNL     1       1.240   9.462  18.661  0.00  0.00    +0.000 A 
ATOM     25  C   UNL     1       1.943   8.509  17.919  0.00  0.00    +0.000 A 
ENDBRANCH  19  20
ENDBRANCH   6  19
TORSDOF 6
ENDMDL
MODEL 7
REMARK VINA RESULT:      -7.4      1.503      2.285
REMARK  Name = 
REMARK  7 active torsions:
REMARK  status: ('A' for Active; 'I' for Inactive)
REMARK    1  A    between atoms: C_1  and  N_2
REMARK    2  A    between atoms: N_2  and  C_3
REMARK    3  A    between atoms: C_3  and  C_4
REMARK    4  A    between atoms: C_4  and  C_5
REMARK    5  A    between atoms: C_11  and  C_13
REMARK    6  A    between atoms: C_18  and  O_19
REMARK    7  A    between atoms: O_19  and  C_20
REMARK                            x       y       z     vdW  Elec       q    Type
REMARK                         _______ _______ _______ _____ _____    ______ ____
ROOT
ATOM      1  C   UNL     1       3.328   5.621  17.979  0.00  0.00    +0.000 A 
ATOM      2  C   UNL     1       3.068   4.430  17.291  0.00  0.00    +0.000 A 
ATOM      3  C   UNL     1       2.058   3.569  17.710  0.00  0.00    +0.000 A 
ATOM      4  C   UNL     1       1.405   3.864  18.884  0.00  0.00    +0.000 A 
ATOM      5  N   UNL     1       1.695   4.939  19.637  0.00  0.00    +0.000 NA
ATOM      6  C   UNL     1       2.628   5.823  19.176  0.00  0.00    +0.000 A 
ENDROOT
BRANCH   1   9
ATOM      7  C   UNL     1       6.579   7.539  17.325  0.00  0.00    +0.000 C 
ATOM      8  N   UNL     1       5.724   6.424  17.719  0.00  0.00    +0.000 N 
ATOM      9  C   UNL     1       4.342   6.584  17.462  0.00  0.00    +0.000 C 
ATOM     10  O   UNL     1       3.929   7.551  16.820  0.00  0.00    +0.000 OA
BRANCH   8  11
ATOM     11  C   UNL     1       6.418   5.265  18.322  0.00  0.00    +0.000 C 
BRANCH  11  12
ATOM     12  C   UNL     1       7.443   4.572  17.424  0.00  0.00    +0.000 C 
BRANCH  12  13
ATOM     13  C   UNL     1       6.990   4.475  15.986  0.00  0.00    +0.000 A 
ATOM     14  C   UNL     1       5.939   3.617  15.653  0.00  0.00    +0.000 A 
ATOM     15  C   UNL     1       5.574   3.483  14.316  0.00  0.00    +0.000 A 
ATOM     16  C   UNL     1       6.266   4.194  13.349  0.00  0.00    +0.000 A 
ATOM     17  C   UNL     1       7.303   5.017  13.756  0.00  0.00    +0.000 A 
ATOM     18  N   UNL     1       7.685   5.160  15.047  0.00  0.00    +0.000 NA
ENDBRANCH  12  13
ENDBRANCH  11  12
ENDBRANCH   8  11
ENDBRANCH   1   9
BRANCH   6  19
ATOM     19  O   UNL     1       2.879   6.950  19.958  0.00  0.00    +0.000 OA
BRANCH  19  20
ATOM     20  C   UNL     1       1.885   7.906  20.067  0.00  0.00    +0.000 A 
ATOM     21  C   UNL     1       1.630   8.719  18.956  0.00  0.00    +0.000 A 
ATOM     22  C   UNL     1       0.604   9.674  19.005  0.00  0.00    +0.000 A 
ATOM     23  C   UNL     1      -0.172   9.813  20.156  0.00  0.00    +0.000 A 
ATOM     24  C   UNL     1       0.068   8.993  21.256  0.00  0.00    +0.000 A 
ATOM     25  C   UNL     1       1.080   8.031  21.204  0.00  0.00    +0.000 A 
ENDBRANCH  19  20
ENDBRANCH   6  19
TORSDOF 6
ENDMDL
MODEL 8
REMARK VINA RESULT:      -7.3      0.876      1.247
REMARK  Name = 
REMARK  7 active torsions:
REMARK  status: ('A' for Active; 'I' for Inactive)
REMARK    1  A    between atoms: C_1  and  N_2
REMARK    2  A    between atoms: N_2  and  C_3
REMARK    3  A    between atoms: C_3  and  C_4
REMARK    4  A    between atoms: C_4  and  C_5
REMARK    5  A    between atoms: C_11  and  C_13
REMARK    6  A    between atoms: C_18  and  O_19
REMARK    7  A    between atoms: O_19  and  C_20
REMARK                            x       y       z     vdW  Elec       q    Type
REMARK                         _______ _______ _______ _____ _____    ______ ____
ROOT
ATOM      1  C   UNL     1       4.106   4.580  18.511  0.00  0.00    +0.000 A 
ATOM      2  C   UNL     1       4.046   3.427  17.718  0.00  0.00    +0.000 A 
ATOM      3  C   UNL     1       2.823   2.880  17.345  0.00  0.00    +0.000 A 
ATOM      4  C   UNL     1       1.679   3.434  17.873  0.00  0.00    +0.000 A 
ATOM      5  N   UNL     1       1.693   4.474  18.725  0.00  0.00    +0.000 NA
ATOM      6  C   UNL     1       2.891   5.057  19.021  0.00  0.00    +0.000 A 
ENDROOT
BRANCH   1   9
ATOM      7  C   UNL     1       7.602   6.118  18.226  0.00  0.00    +0.000 C 
ATOM      8  N   UNL     1       6.269   5.705  17.800  0.00  0.00    +0.000 N 
ATOM      9  C   UNL     1       5.419   5.215  18.819  0.00  0.00    +0.000 C 
ATOM     10  O   UNL     1       5.757   5.271  20.002  0.00  0.00    +0.000 OA
BRANCH   8  11
ATOM     11  C   UNL     1       5.975   5.869  16.359  0.00  0.00    +0.000 C 
BRANCH  11  12
ATOM     12  C   UNL     1       7.135   5.556  15.411  0.00  0.00    +0.000 C 
BRANCH  12  13
ATOM     13  C   UNL     1       6.705   4.751  14.208  0.00  0.00    +0.000 A 
ATOM     14  C   UNL     1       7.479   4.784  13.046  0.00  0.00    +0.000 A 
ATOM     15  C   UNL     1       7.038   4.094  11.920  0.00  0.00    +0.000 A 
ATOM     16  C   UNL     1       5.841   3.399  11.975  0.00  0.00    +0.000 A 
ATOM     17  C   UNL     1       5.124   3.421  13.160  0.00  0.00    +0.000 A 
ATOM     18  N   UNL     1       5.524   4.091  14.267  0.00  0.00    +0.000 NA
ENDBRANCH  12  13
ENDBRANCH  11  12
ENDBRANCH   8  11
ENDBRANCH   1   9
BRANCH   6  19
ATOM     19  O   UNL     1       2.870   6.159  19.876  0.00  0.00    +0.000 OA
BRANCH  19  20
ATOM     20  C   UNL     1       2.331   7.344  19.404  0.00  0.00    +0.000 A 
ATOM     21  C   UNL     1       1.576   8.120  20.290  0.00  0.00    +0.000 A 
ATOM     22  C   UNL     1       1.045   9.349  19.870  0.00  0.00    +0.000 A 
ATOM     23  C   UNL     1       1.274   9.806  18.572  0.00  0.00    +0.000 A 
ATOM     24  C   UNL     1       2.041   9.044  17.694  0.00  0.00    +0.000 A 
ATOM     25  C   UNL     1       2.583   7.827  18.115  0.00  0.00    +0.000 A 
ENDBRANCH  19  20
ENDBRANCH   6  19
TORSDOF 6
ENDMDL
MODEL 9
REMARK VINA RESULT:      -7.2      1.241      1.705
REMARK  Name = 
REMARK  7 active torsions:
REMARK  status: ('A' for Active; 'I' for Inactive)
REMARK    1  A    between atoms: C_1  and  N_2
REMARK    2  A    between atoms: N_2  and  C_3
REMARK    3  A    between atoms: C_3  and  C_4
REMARK    4  A    between atoms: C_4  and  C_5
REMARK    5  A    between atoms: C_11  and  C_13
REMARK    6  A    between atoms: C_18  and  O_19
REMARK    7  A    between atoms: O_19  and  C_20
REMARK                            x       y       z     vdW  Elec       q    Type
REMARK                         _______ _______ _______ _____ _____    ______ ____
ROOT
ATOM      1  C   UNL     1       3.911   4.076  18.121  0.00  0.00    +0.000 A 
ATOM      2  C   UNL     1       3.449   2.768  18.313  0.00  0.00    +0.000 A 
ATOM      3  C   UNL     1       2.091   2.472  18.240  0.00  0.00    +0.000 A 
ATOM      4  C   UNL     1       1.210   3.518  18.091  0.00  0.00    +0.000 A 
ATOM      5  N   UNL     1       1.599   4.802  18.011  0.00  0.00    +0.000 NA
ATOM      6  C   UNL     1       2.937   5.076  18.000  0.00  0.00    +0.000 A 
ENDROOT
BRANCH   1   9
ATOM      7  C   UNL     1       7.546   4.562  17.017  0.00  0.00    +0.000 C 
ATOM      8  N   UNL     1       6.095   4.480  16.889  0.00  0.00    +0.000 N 
ATOM      9  C   UNL     1       5.373   4.363  18.100  0.00  0.00    +0.000 C 
ATOM     10  O   UNL     1       5.945   4.465  19.186  0.00  0.00    +0.000 OA
BRANCH   8  11
ATOM     11  C   UNL     1       5.566   4.546  15.508  0.00  0.00    +0.000 C 
BRANCH  11  12
ATOM     12  C   UNL     1       6.621   4.556  14.400  0.00  0.00    +0.000 C 
BRANCH  12  13
ATOM     13  C   UNL     1       6.177   3.809  13.164  0.00  0.00    +0.000 A 
ATOM     14  C   UNL     1       4.836   3.857  12.776  0.00  0.00    +0.000 A 
ATOM     15  C   UNL     1       4.424   3.111  11.675  0.00  0.00    +0.000 A 
ATOM     16  C   UNL     1       5.348   2.333  10.998  0.00  0.00    +0.000 A 
ATOM     17  C   UNL     1       6.657   2.329  11.449  0.00  0.00    +0.000 A 
ATOM     18  N   UNL     1       7.085   3.037  12.521  0.00  0.00    +0.000 NA
ENDBRANCH  12  13
ENDBRANCH  11  12
ENDBRANCH   8  11
ENDBRANCH   1   9
BRANCH   6  19
ATOM     19  O   UNL     1       3.312   6.414  17.876  0.00  0.00    +0.000 OA
BRANCH  19  20
ATOM     20  C   UNL     1       2.516   7.376  18.474  0.00  0.00    +0.000 A 
ATOM     21  C   UNL     1       2.240   7.245  19.839  0.00  0.00    +0.000 A 
ATOM     22  C   UNL     1       1.474   8.217  20.498  0.00  0.00    +0.000 A 
ATOM     23  C   UNL     1       0.989   9.322  19.797  0.00  0.00    +0.000 A 
ATOM     24  C   UNL     1       1.278   9.465  18.443  0.00  0.00    +0.000 A 
ATOM     25  C   UNL     1       2.054   8.505  17.788  0.00  0.00    +0.000 A 
ENDBRANCH  19  20
ENDBRANCH   6  19
TORSDOF 6
ENDMDL
