MODEL 1
REMARK VINA RESULT:      -8.0      0.000      0.000
REMARK  Name = 
REMARK  1 active torsions:
REMARK  status: ('A' for Active; 'I' for Inactive)
REMARK    1  A    between atoms: C_4  and  C_5
REMARK                            x       y       z     vdW  Elec       q    Type
REMARK                         _______ _______ _______ _____ _____    ______ ____
ROOT
ATOM      1  C   UNL     1       5.089   5.050  15.933  0.00  0.00    +0.000 A 
ATOM      2  C   UNL     1       4.848   6.386  16.318  0.00  0.00    +0.000 A 
ATOM      3  C   UNL     1       4.178   6.716  17.504  0.00  0.00    +0.000 A 
ATOM      4  C   UNL     1       3.718   5.680  18.332  0.00  0.00    +0.000 A 
ATOM      5  C   UNL     1       3.048   5.582  19.579  0.00  0.00    +0.000 A 
ATOM      6  N   UNL     1       2.680   6.630  20.329  0.00  0.00    +0.000 N 
ATOM      7  N   UNL     1       2.821   4.319  19.931  0.00  0.00    +0.000 NA
ATOM      8  N   UNL     1       3.358   3.607  18.926  0.00  0.00    +0.000 N 
ATOM      9  C   UNL     1       3.922   4.366  17.936  0.00  0.00    +0.000 A 
ATOM     10  C   UNL     1       4.590   4.017  16.754  0.00  0.00    +0.000 A 
ATOM     11  H   UNL     1       2.615   7.559  19.935  0.00  0.00    +0.000 HD
ATOM     12  H   UNL     1       2.040   6.447  21.092  0.00  0.00    +0.000 HD
ATOM     13  H   UNL     1       3.314   2.596  18.979  0.00  0.00    +0.000 HD
ENDROOT
BRANCH   1  17
ATOM     14  N   UNL     1       6.007   2.496  11.853  0.00  0.00    +0.000 N 
ATOM     15  C   UNL     1       6.295   3.528  12.748  0.00  0.00    +0.000 A 
ATOM     16  C   UNL     1       5.497   3.725  13.847  0.00  0.00    +0.000 A 
ATOM     17  C   UNL     1       5.867   4.734  14.715  0.00  0.00    +0.000 A 
ATOM     18  N   UNL     1       6.957   5.496  14.482  0.00  0.00    +0.000 NA
ATOM     19  C   UNL     1       7.665   5.223  13.384  0.00  0.00    +0.000 A 
ATOM     20  N   UNL     1       8.800   5.976  13.157  0.00  0.00    +0.000 N 
ATOM     21  N   UNL     1       7.389   4.253  12.510  0.00  0.00    +0.000 NA
ATOM     22  H   UNL     1       5.049   2.530  11.525  0.00  0.00    +0.000 HD
ATOM     23  H   UNL     1       6.674   2.556  11.087  0.00  0.00    +0.000 HD
ATOM     24  H   UNL     1       9.144   6.336  14.036  0.00  0.00    +0.000 HD
ATOM     25  H   UNL     1       9.448   5.438  12.597  0.00  0.00    +0.000 HD
ENDBRANCH   1  17
TORSDOF 1
ENDMDL
MODEL 2
REMARK VINA RESULT:      -7.7      2.123      2.935
REMARK  Name = 
REMARK  1 active torsions:
REMARK  status: ('A' for Active; 'I' for Inactive)
REMARK    1  A    between atoms: C_4  and  C_5
REMARK                            x       y       z     vdW  Elec       q    Type
REMARK                         _______ _______ _______ _____ _____    ______ ____
ROOT
ATOM      1  C   UNL     1       4.216   4.238  17.782  0.00  0.00    +0.000 A 
ATOM      2  C   UNL     1       4.254   4.676  19.122  0.00  0.00    +0.000 A 
ATOM      3  C   UNL     1       3.312   4.261  20.075  0.00  0.00    +0.000 A 
ATOM      4  C   UNL     1       2.287   3.390  19.677  0.00  0.00    +0.000 A 
ATOM      5  C   UNL     1       1.195   2.734  20.302  0.00  0.00    +0.000 A 
ATOM      6  N   UNL     1       0.898   2.828  21.606  0.00  0.00    +0.000 N 
ATOM      7  N   UNL     1       0.488   2.003  19.445  0.00  0.00    +0.000 NA
ATOM      8  N   UNL     1       1.131   2.172  18.277  0.00  0.00    +0.000 N 
ATOM      9  C   UNL     1       2.227   2.988  18.350  0.00  0.00    +0.000 A 
ATOM     10  C   UNL     1       3.160   3.392  17.384  0.00  0.00    +0.000 A 
ATOM     11  H   UNL     1       1.266   3.579  22.174  0.00  0.00    +0.000 HD
ATOM     12  H   UNL     1      -0.008   2.481  21.896  0.00  0.00    +0.000 HD
ATOM     13  H   UNL     1       0.772   1.692  17.460  0.00  0.00    +0.000 HD
ENDROOT
BRANCH   1  17
ATOM     14  N   UNL     1       6.727   3.781  13.599  0.00  0.00    +0.000 N 
ATOM     15  C   UNL     1       6.456   4.430  14.805  0.00  0.00    +0.000 A 
ATOM     16  C   UNL     1       5.450   3.972  15.618  0.00  0.00    +0.000 A 
ATOM     17  C   UNL     1       5.268   4.631  16.819  0.00  0.00    +0.000 A 
ATOM     18  N   UNL     1       6.038   5.685  17.164  0.00  0.00    +0.000 NA
ATOM     19  C   UNL     1       6.988   6.051  16.302  0.00  0.00    +0.000 A 
ATOM     20  N   UNL     1       7.802   7.107  16.664  0.00  0.00    +0.000 N 
ATOM     21  N   UNL     1       7.244   5.453  15.137  0.00  0.00    +0.000 NA
ATOM     22  H   UNL     1       5.899   3.681  13.023  0.00  0.00    +0.000 HD
ATOM     23  H   UNL     1       7.459   4.304  13.124  0.00  0.00    +0.000 HD
ATOM     24  H   UNL     1       7.825   7.181  17.671  0.00  0.00    +0.000 HD
ATOM     25  H   UNL     1       8.691   7.017  16.191  0.00  0.00    +0.000 HD
ENDBRANCH   1  17
TORSDOF 1
ENDMDL
MODEL 3
REMARK VINA RESULT:      -7.7      4.772      6.786
REMARK  Name = 
REMARK  1 active torsions:
REMARK  status: ('A' for Active; 'I' for Inactive)
REMARK    1  A    between atoms: C_4  and  C_5
REMARK                            x       y       z     vdW  Elec       q    Type
REMARK                         _______ _______ _______ _____ _____    ______ ____
ROOT
ATOM      1  C   UNL     1       2.210   6.768  19.599  0.00  0.00    +0.000 A 
ATOM      2  C   UNL     1       2.467   7.306  18.320  0.00  0.00    +0.000 A 
ATOM      3  C   UNL     1       2.159   8.633  17.988  0.00  0.00    +0.000 A 
ATOM      4  C   UNL     1       1.561   9.452  18.957  0.00  0.00    +0.000 A 
ATOM      5  C   UNL     1       1.132  10.802  19.040  0.00  0.00    +0.000 A 
ATOM      6  N   UNL     1       1.249  11.698  18.050  0.00  0.00    +0.000 N 
ATOM      7  N   UNL     1       0.596  11.089  20.222  0.00  0.00    +0.000 NA
ATOM      8  N   UNL     1       0.694   9.936  20.905  0.00  0.00    +0.000 N 
ATOM      9  C   UNL     1       1.274   8.913  20.204  0.00  0.00    +0.000 A 
ATOM     10  C   UNL     1       1.575   7.590  20.555  0.00  0.00    +0.000 A 
ATOM     11  H   UNL     1       1.402  11.406  17.094  0.00  0.00    +0.000 HD
ATOM     12  H   UNL     1       0.733  12.564  18.151  0.00  0.00    +0.000 HD
ATOM     13  H   UNL     1       0.351   9.913  21.858  0.00  0.00    +0.000 HD
ENDROOT
BRANCH   1  17
ATOM     14  N   UNL     1       1.740   2.530  22.011  0.00  0.00    +0.000 N 
ATOM     15  C   UNL     1       2.380   3.349  21.080  0.00  0.00    +0.000 A 
ATOM     16  C   UNL     1       1.908   4.615  20.843  0.00  0.00    +0.000 A 
ATOM     17  C   UNL     1       2.618   5.389  19.945  0.00  0.00    +0.000 A 
ATOM     18  N   UNL     1       3.716   4.911  19.322  0.00  0.00    +0.000 NA
ATOM     19  C   UNL     1       4.091   3.666  19.623  0.00  0.00    +0.000 A 
ATOM     20  N   UNL     1       5.234   3.183  19.016  0.00  0.00    +0.000 N 
ATOM     21  N   UNL     1       3.476   2.866  20.495  0.00  0.00    +0.000 NA
ATOM     22  H   UNL     1       0.746   2.449  21.831  0.00  0.00    +0.000 HD
ATOM     23  H   UNL     1       2.203   1.624  21.997  0.00  0.00    +0.000 HD
ATOM     24  H   UNL     1       5.828   3.958  18.757  0.00  0.00    +0.000 HD
ATOM     25  H   UNL     1       5.643   2.468  19.601  0.00  0.00    +0.000 HD
ENDBRANCH   1  17
TORSDOF 1
ENDMDL
MODEL 4
REMARK VINA RESULT:      -7.7      2.094      2.871
REMARK  Name = 
REMARK  1 active torsions:
REMARK  status: ('A' for Active; 'I' for Inactive)
REMARK    1  A    between atoms: C_4  and  C_5
REMARK                            x       y       z     vdW  Elec       q    Type
REMARK                         _______ _______ _______ _____ _____    ______ ____
ROOT
ATOM      1  C   UNL     1       4.388   3.961  17.752  0.00  0.00    +0.000 A 
ATOM      2  C   UNL     1       3.003   4.138  17.549  0.00  0.00    +0.000 A 
ATOM      3  C   UNL     1       2.051   3.779  18.513  0.00  0.00    +0.000 A 
ATOM      4  C   UNL     1       2.489   3.208  19.718  0.00  0.00    +0.000 A 
ATOM      5  C   UNL     1       1.887   2.749  20.917  0.00  0.00    +0.000 A 
ATOM      6  N   UNL     1       0.571   2.791  21.171  0.00  0.00    +0.000 N 
ATOM      7  N   UNL     1       2.779   2.265  21.776  0.00  0.00    +0.000 NA
ATOM      8  N   UNL     1       3.952   2.428  21.143  0.00  0.00    +0.000 N 
ATOM      9  C   UNL     1       3.849   2.999  19.903  0.00  0.00    +0.000 A 
ATOM     10  C   UNL     1       4.816   3.353  18.951  0.00  0.00    +0.000 A 
ATOM     11  H   UNL     1      -0.103   2.904  20.426  0.00  0.00    +0.000 HD
ATOM     12  H   UNL     1       0.240   2.259  21.966  0.00  0.00    +0.000 HD
ATOM     13  H   UNL     1       4.798   2.134  21.617  0.00  0.00    +0.000 HD
ENDROOT
BRANCH   1  17
ATOM     14  N   UNL     1       6.649   3.762  13.409  0.00  0.00    +0.000 N 
ATOM     15  C   UNL     1       6.440   4.345  14.660  0.00  0.00    +0.000 A 
ATOM     16  C   UNL     1       5.493   3.827  15.508  0.00  0.00    +0.000 A 
ATOM     17  C   UNL     1       5.373   4.422  16.749  0.00  0.00    +0.000 A 
ATOM     18  N   UNL     1       6.144   5.473  17.101  0.00  0.00    +0.000 NA
ATOM     19  C   UNL     1       7.034   5.901  16.204  0.00  0.00    +0.000 A 
ATOM     20  N   UNL     1       7.850   6.953  16.570  0.00  0.00    +0.000 N 
ATOM     21  N   UNL     1       7.229   5.366  14.997  0.00  0.00    +0.000 NA
ATOM     22  H   UNL     1       5.789   3.675  12.879  0.00  0.00    +0.000 HD
ATOM     23  H   UNL     1       7.342   4.323  12.919  0.00  0.00    +0.000 HD
ATOM     24  H   UNL     1       7.932   6.977  17.577  0.00  0.00    +0.000 HD
ATOM     25  H   UNL     1       8.710   6.905  16.041  0.00  0.00    +0.000 HD
ENDBRANCH   1  17
TORSDOF 1
ENDMDL
MODEL 5
REMARK VINA RESULT:      -7.7      2.339      3.438
REMARK  Name = 
REMARK  1 active torsions:
REMARK  status: ('A' for Active; 'I' for Inactive)
REMARK    1  A    between atoms: C_4  and  C_5
REMARK                            x       y       z     vdW  Elec       q    Type
REMARK                         _______ _______ _______ _____ _____    ______ ____
ROOT
ATOM      1  C   UNL     1       4.483   4.723  18.197  0.00  0.00    +0.000 A 
ATOM      2  C   UNL     1       4.056   5.262  19.428  0.00  0.00    +0.000 A 
ATOM      3  C   UNL     1       3.025   4.684  20.184  0.00  0.00    +0.000 A 
ATOM      4  C   UNL     1       2.386   3.537  19.690  0.00  0.00    +0.000 A 
ATOM      5  C   UNL     1       1.361   2.660  20.132  0.00  0.00    +0.000 A 
ATOM      6  N   UNL     1       0.715   2.776  21.301  0.00  0.00    +0.000 N 
ATOM      7  N   UNL     1       1.107   1.697  19.251  0.00  0.00    +0.000 NA
ATOM      8  N   UNL     1       1.975   1.939  18.255  0.00  0.00    +0.000 N 
ATOM      9  C   UNL     1       2.780   3.028  18.461  0.00  0.00    +0.000 A 
ATOM     10  C   UNL     1       3.809   3.590  17.692  0.00  0.00    +0.000 A 
ATOM     11  H   UNL     1       0.725   3.642  21.822  0.00  0.00    +0.000 HD
ATOM     12  H   UNL     1      -0.123   2.220  21.419  0.00  0.00    +0.000 HD
ATOM     13  H   UNL     1       1.975   1.315  17.457  0.00  0.00    +0.000 HD
ENDROOT
BRANCH   1  17
ATOM     14  N   UNL     1       7.459   5.136  14.326  0.00  0.00    +0.000 N 
ATOM     15  C   UNL     1       7.036   5.526  15.598  0.00  0.00    +0.000 A 
ATOM     16  C   UNL     1       5.959   4.907  16.181  0.00  0.00    +0.000 A 
ATOM     17  C   UNL     1       5.624   5.308  17.460  0.00  0.00    +0.000 A 
ATOM     18  N   UNL     1       6.319   6.275  18.096  0.00  0.00    +0.000 NA
ATOM     19  C   UNL     1       7.349   6.814  17.441  0.00  0.00    +0.000 A 
ATOM     20  N   UNL     1       8.086   7.779  18.099  0.00  0.00    +0.000 N 
ATOM     21  N   UNL     1       7.751   6.465  16.217  0.00  0.00    +0.000 NA
ATOM     22  H   UNL     1       6.704   5.150  13.650  0.00  0.00    +0.000 HD
ATOM     23  H   UNL     1       8.224   5.749  14.054  0.00  0.00    +0.000 HD
ATOM     24  H   UNL     1       7.994   7.648  19.096  0.00  0.00    +0.000 HD
ATOM     25  H   UNL     1       9.025   7.793  17.724  0.00  0.00    +0.000 HD
ENDBRANCH   1  17
TORSDOF 1
ENDMDL
MODEL 6
REMARK VINA RESULT:      -7.7      0.812      1.699
REMARK  Name = 
REMARK  1 active torsions:
REMARK  status: ('A' for Active; 'I' for Inactive)
REMARK    1  A    between atoms: C_4  and  C_5
REMARK                            x       y       z     vdW  Elec       q    Type
REMARK                         _______ _______ _______ _____ _____    ______ ____
ROOT
ATOM      1  C   UNL     1       5.303   5.054  16.086  0.00  0.00    +0.000 A 
ATOM      2  C   UNL     1       5.169   4.076  17.093  0.00  0.00    +0.000 A 
ATOM      3  C   UNL     1       4.430   4.301  18.264  0.00  0.00    +0.000 A 
ATOM      4  C   UNL     1       3.815   5.548  18.447  0.00  0.00    +0.000 A 
ATOM      5  C   UNL     1       2.989   6.153  19.430  0.00  0.00    +0.000 A 
ATOM      6  N   UNL     1       2.562   5.542  20.544  0.00  0.00    +0.000 N 
ATOM      7  N   UNL     1       2.678   7.409  19.123  0.00  0.00    +0.000 NA
ATOM      8  N   UNL     1       3.284   7.607  17.940  0.00  0.00    +0.000 N 
ATOM      9  C   UNL     1       3.978   6.524  17.473  0.00  0.00    +0.000 A 
ATOM     10  C   UNL     1       4.711   6.318  16.296  0.00  0.00    +0.000 A 
ATOM     11  H   UNL     1       3.015   4.707  20.889  0.00  0.00    +0.000 HD
ATOM     12  H   UNL     1       2.150   6.128  21.259  0.00  0.00    +0.000 HD
ATOM     13  H   UNL     1       3.179   8.511  17.494  0.00  0.00    +0.000 HD
ENDROOT
BRANCH   1  17
ATOM     14  N   UNL     1       6.008   2.600  11.904  0.00  0.00    +0.000 N 
ATOM     15  C   UNL     1       6.348   3.605  12.811  0.00  0.00    +0.000 A 
ATOM     16  C   UNL     1       5.602   3.782  13.949  0.00  0.00    +0.000 A 
ATOM     17  C   UNL     1       6.023   4.762  14.827  0.00  0.00    +0.000 A 
ATOM     18  N   UNL     1       7.110   5.518  14.565  0.00  0.00    +0.000 NA
ATOM     19  C   UNL     1       7.766   5.266  13.430  0.00  0.00    +0.000 A 
ATOM     20  N   UNL     1       8.899   6.012  13.173  0.00  0.00    +0.000 N 
ATOM     21  N   UNL     1       7.439   4.323  12.544  0.00  0.00    +0.000 NA
ATOM     22  H   UNL     1       5.036   2.654  11.619  0.00  0.00    +0.000 HD
ATOM     23  H   UNL     1       6.641   2.673  11.111  0.00  0.00    +0.000 HD
ATOM     24  H   UNL     1       9.287   6.344  14.045  0.00  0.00    +0.000 HD
ATOM     25  H   UNL     1       9.515   5.482  12.571  0.00  0.00    +0.000 HD
ENDBRANCH   1  17
TORSDOF 1
ENDMDL
MODEL 7
REMARK VINA RESULT:      -7.6      1.540      6.608
REMARK  Name = 
REMARK  1 active torsions:
REMARK  status: ('A' for Active; 'I' for Inactive)
REMARK    1  A    between atoms: C_4  and  C_5
REMARK                            x       y       z     vdW  Elec       q    Type
REMARK                         _______ _______ _______ _____ _____    ______ ____
ROOT
ATOM      1  C   UNL     1       4.254   5.087  17.656  0.00  0.00    +0.000 A 
ATOM      2  C   UNL     1       5.215   6.118  17.602  0.00  0.00    +0.000 A 
ATOM      3  C   UNL     1       6.195   6.179  16.601  0.00  0.00    +0.000 A 
ATOM      4  C   UNL     1       6.231   5.170  15.627  0.00  0.00    +0.000 A 
ATOM      5  C   UNL     1       7.007   4.881  14.475  0.00  0.00    +0.000 A 
ATOM      6  N   UNL     1       8.006   5.649  14.019  0.00  0.00    +0.000 N 
ATOM      7  N   UNL     1       6.631   3.749  13.885  0.00  0.00    +0.000 NA
ATOM      8  N   UNL     1       5.607   3.321  14.642  0.00  0.00    +0.000 N 
ATOM      9  C   UNL     1       5.309   4.135  15.702  0.00  0.00    +0.000 A 
ATOM     10  C   UNL     1       4.321   4.058  16.693  0.00  0.00    +0.000 A 
ATOM     11  H   UNL     1       8.447   6.340  14.611  0.00  0.00    +0.000 HD
ATOM     12  H   UNL     1       8.611   5.245  13.314  0.00  0.00    +0.000 HD
ATOM     13  H   UNL     1       5.142   2.460  14.376  0.00  0.00    +0.000 HD
ENDROOT
BRANCH   1  17
ATOM     14  N   UNL     1       0.564   3.049  20.154  0.00  0.00    +0.000 N 
ATOM     15  C   UNL     1       1.432   4.110  19.892  0.00  0.00    +0.000 A 
ATOM     16  C   UNL     1       2.390   3.987  18.917  0.00  0.00    +0.000 A 
ATOM     17  C   UNL     1       3.183   5.092  18.677  0.00  0.00    +0.000 A 
ATOM     18  N   UNL     1       3.029   6.233  19.382  0.00  0.00    +0.000 NA
ATOM     19  C   UNL     1       2.069   6.249  20.310  0.00  0.00    +0.000 A 
ATOM     20  N   UNL     1       1.882   7.424  21.011  0.00  0.00    +0.000 N 
ATOM     21  N   UNL     1       1.246   5.235  20.584  0.00  0.00    +0.000 NA
ATOM     22  H   UNL     1       1.060   2.182  20.330  0.00  0.00    +0.000 HD
ATOM     23  H   UNL     1      -0.023   3.317  20.941  0.00  0.00    +0.000 HD
ATOM     24  H   UNL     1       2.213   8.201  20.456  0.00  0.00    +0.000 HD
ATOM     25  H   UNL     1       0.926   7.467  21.336  0.00  0.00    +0.000 HD
ENDBRANCH   1  17
TORSDOF 1
ENDMDL
MODEL 8
REMARK VINA RESULT:      -7.6      1.312      6.642
REMARK  Name = 
REMARK  1 active torsions:
REMARK  status: ('A' for Active; 'I' for Inactive)
REMARK    1  A    between atoms: C_4  and  C_5
REMARK                            x       y       z     vdW  Elec       q    Type
REMARK                         _______ _______ _______ _____ _____    ______ ____
ROOT
ATOM      1  C   UNL     1       5.016   4.409  16.913  0.00  0.00    +0.000 A 
ATOM      2  C   UNL     1       6.030   5.376  17.080  0.00  0.00    +0.000 A 
ATOM      3  C   UNL     1       6.950   5.681  16.067  0.00  0.00    +0.000 A 
ATOM      4  C   UNL     1       6.868   4.991  14.848  0.00  0.00    +0.000 A 
ATOM      5  C   UNL     1       7.554   5.013  13.606  0.00  0.00    +0.000 A 
ATOM      6  N   UNL     1       8.566   5.842  13.312  0.00  0.00    +0.000 N 
ATOM      7  N   UNL     1       7.079   4.112  12.751  0.00  0.00    +0.000 NA
ATOM      8  N   UNL     1       6.079   3.525  13.431  0.00  0.00    +0.000 N 
ATOM      9  C   UNL     1       5.894   4.014  14.696  0.00  0.00    +0.000 A 
ATOM     10  C   UNL     1       4.966   3.695  15.697  0.00  0.00    +0.000 A 
ATOM     11  H   UNL     1       9.082   6.317  14.040  0.00  0.00    +0.000 HD
ATOM     12  H   UNL     1       9.103   5.633  12.479  0.00  0.00    +0.000 HD
ATOM     13  H   UNL     1       5.551   2.794  12.969  0.00  0.00    +0.000 HD
ENDROOT
BRANCH   1  17
ATOM     14  N   UNL     1       2.519   5.607  20.955  0.00  0.00    +0.000 N 
ATOM     15  C   UNL     1       2.796   4.746  19.892  0.00  0.00    +0.000 A 
ATOM     16  C   UNL     1       3.754   5.083  18.969  0.00  0.00    +0.000 A 
ATOM     17  C   UNL     1       4.012   4.163  17.971  0.00  0.00    +0.000 A 
ATOM     18  N   UNL     1       3.339   2.994  17.903  0.00  0.00    +0.000 NA
ATOM     19  C   UNL     1       2.427   2.763  18.850  0.00  0.00    +0.000 A 
ATOM     20  N   UNL     1       1.761   1.554  18.807  0.00  0.00    +0.000 N 
ATOM     21  N   UNL     1       2.138   3.587  19.859  0.00  0.00    +0.000 NA
ATOM     22  H   UNL     1       2.313   6.549  20.641  0.00  0.00    +0.000 HD
ATOM     23  H   UNL     1       1.748   5.206  21.484  0.00  0.00    +0.000 HD
ATOM     24  H   UNL     1       2.332   0.874  18.325  0.00  0.00    +0.000 HD
ATOM     25  H   UNL     1       1.451   1.313  19.739  0.00  0.00    +0.000 HD
ENDBRANCH   1  17
TORSDOF 1
ENDMDL
MODEL 9
REMARK VINA RESULT:      -7.6      1.363      6.381
REMARK  Name = 
REMARK  1 active torsions:
REMARK  status: ('A' for Active; 'I' for Inactive)
REMARK    1  A    between atoms: C_4  and  C_5
REMARK                            x       y       z     vdW  Elec       q    Type
REMARK                         _______ _______ _______ _____ _____    ______ ____
ROOT
ATOM      1  C   UNL     1       5.069   4.305  16.752  0.00  0.00    +0.000 A 
ATOM      2  C   UNL     1       6.073   5.273  16.970  0.00  0.00    +0.000 A 
ATOM      3  C   UNL     1       7.002   5.626  15.982  0.00  0.00    +0.000 A 
ATOM      4  C   UNL     1       6.942   4.984  14.735  0.00  0.00    +0.000 A 
ATOM      5  C   UNL     1       7.644   5.061  13.504  0.00  0.00    +0.000 A 
ATOM      6  N   UNL     1       8.652   5.908  13.257  0.00  0.00    +0.000 N 
ATOM      7  N   UNL     1       7.187   4.190  12.608  0.00  0.00    +0.000 NA
ATOM      8  N   UNL     1       6.184   3.569  13.252  0.00  0.00    +0.000 N 
ATOM      9  C   UNL     1       5.979   4.005  14.533  0.00  0.00    +0.000 A 
ATOM     10  C   UNL     1       5.040   3.640  15.508  0.00  0.00    +0.000 A 
ATOM     11  H   UNL     1       9.155   6.359  14.009  0.00  0.00    +0.000 HD
ATOM     12  H   UNL     1       9.201   5.737  12.423  0.00  0.00    +0.000 HD
ATOM     13  H   UNL     1       5.667   2.853  12.754  0.00  0.00    +0.000 HD
ENDROOT
BRANCH   1  17
ATOM     14  N   UNL     1       1.623   1.524  18.848  0.00  0.00    +0.000 N 
ATOM     15  C   UNL     1       2.421   2.668  18.806  0.00  0.00    +0.000 A 
ATOM     16  C   UNL     1       3.332   2.832  17.793  0.00  0.00    +0.000 A 
ATOM     17  C   UNL     1       4.054   4.010  17.786  0.00  0.00    +0.000 A 
ATOM     18  N   UNL     1       3.877   4.947  18.742  0.00  0.00    +0.000 NA
ATOM     19  C   UNL     1       2.967   4.690  19.683  0.00  0.00    +0.000 A 
ATOM     20  N   UNL     1       2.756   5.660  20.644  0.00  0.00    +0.000 N 
ATOM     21  N   UNL     1       2.213   3.591  19.746  0.00  0.00    +0.000 NA
ATOM     22  H   UNL     1       2.171   0.673  18.799  0.00  0.00    +0.000 HD
ATOM     23  H   UNL     1       1.064   1.568  19.697  0.00  0.00    +0.000 HD
ATOM     24  H   UNL     1       3.017   6.562  20.272  0.00  0.00    +0.000 HD
ATOM     25  H   UNL     1       1.817   5.568  21.006  0.00  0.00    +0.000 HD
ENDBRANCH   1  17
TORSDOF 1
ENDMDL
