MODEL 1
REMARK VINA RESULT:      -6.8      0.000      0.000
REMARK  Name = 
REMARK  9 active torsions:
REMARK  status: ('A' for Active; 'I' for Inactive)
REMARK    1  A    between atoms: C_1  and  C_2
REMARK    2  A    between atoms: C_8  and  C_9
REMARK    3  A    between atoms: C_8  and  C_13
REMARK    4  A    between atoms: C_9  and  C_10
REMARK    5  A    between atoms: C_10  and  C_11
REMARK    6  A    between atoms: C_10  and  C_12
REMARK    7  A    between atoms: N_15  and  C_16
REMARK    8  A    between atoms: C_16  and  C_17
REMARK    9  A    between atoms: C_20  and  C_21
REMARK                            x       y       z     vdW  Elec       q    Type
REMARK                         _______ _______ _______ _____ _____    ______ ____
ROOT
ATOM      1  C   UNL     1       6.585   5.333  19.462  0.00  0.00    +0.000 C 
ATOM      2  C   UNL     1       7.175   4.840  18.167  0.00  0.00    +0.000 C 
ATOM      3  O   UNL     1       8.381   4.586  18.109  0.00  0.00    +0.000 OA
ATOM      4  N   UNL     1       6.356   4.659  17.077  0.00  0.00    +0.000 N 
ATOM      5  C   UNL     1       6.939   4.099  15.864  0.00  0.00    +0.000 C 
ATOM      6  C   UNL     1       5.774   3.966  14.954  0.00  0.00    +0.000 C 
ATOM      7  C   UNL     1       4.655   4.410  15.536  0.00  0.00    +0.000 C 
ATOM      8  C   UNL     1       4.902   4.906  16.946  0.00  0.00    +0.000 C 
ENDROOT
BRANCH   8   9
ATOM      9  C   UNL     1       4.572   6.448  16.903  0.00  0.00    +0.000 C 
ATOM     10  O   UNL     1       5.323   7.277  16.390  0.00  0.00    +0.000 OA
ATOM     11  N   UNL     1       3.426   6.817  17.581  0.00  0.00    +0.000 N 
ATOM     12  H   UNL     1       2.928   6.108  18.103  0.00  0.00    +0.000 HD
BRANCH  11  13
ATOM     13  C   UNL     1       2.998   8.191  17.717  0.00  0.00    +0.000 C 
BRANCH  13  14
ATOM     14  C   UNL     1       2.156   8.352  18.928  0.00  0.00    +0.000 A 
ATOM     15  C   UNL     1       1.999   7.596  20.072  0.00  0.00    +0.000 A 
ATOM     16  C   UNL     1       1.109   8.310  20.908  0.00  0.00    +0.000 A 
ATOM     17  C   UNL     1       0.769   9.457  20.224  0.00  0.00    +0.000 A 
ATOM     18  C   UNL     1      -0.091  10.613  20.547  0.00  0.00    +0.000 C 
ATOM     19  O   UNL     1       1.398   9.485  19.013  0.00  0.00    +0.000 OA
ENDBRANCH  13  14
ENDBRANCH  11  13
ENDBRANCH   8   9
BRANCH   8  20
ATOM     20  C   UNL     1       3.971   4.169  17.943  0.00  0.00    +0.000 C 
BRANCH  20  21
ATOM     21  C   UNL     1       2.803   3.301  17.405  0.00  0.00    +0.000 C 
ATOM     22  C   UNL     1       2.789   1.851  17.887  0.00  0.00    +0.000 C 
ATOM     23  C   UNL     1       1.472   3.945  17.826  0.00  0.00    +0.000 C 
ENDBRANCH  20  21
ENDBRANCH   8  20
TORSDOF 5
ENDMDL
MODEL 2
REMARK VINA RESULT:      -6.7      2.807      6.521
REMARK  Name = 
REMARK  9 active torsions:
REMARK  status: ('A' for Active; 'I' for Inactive)
REMARK    1  A    between atoms: C_1  and  C_2
REMARK    2  A    between atoms: C_8  and  C_9
REMARK    3  A    between atoms: C_8  and  C_13
REMARK    4  A    between atoms: C_9  and  C_10
REMARK    5  A    between atoms: C_10  and  C_11
REMARK    6  A    between atoms: C_10  and  C_12
REMARK    7  A    between atoms: N_15  and  C_16
REMARK    8  A    between atoms: C_16  and  C_17
REMARK    9  A    between atoms: C_20  and  C_21
REMARK                            x       y       z     vdW  Elec       q    Type
REMARK                         _______ _______ _______ _____ _____    ______ ____
ROOT
ATOM      1  C   UNL     1       7.358   6.838  18.317  0.00  0.00    +0.000 C 
ATOM      2  C   UNL     1       6.875   5.610  19.044  0.00  0.00    +0.000 C 
ATOM      3  O   UNL     1       7.282   5.384  20.186  0.00  0.00    +0.000 OA
ATOM      4  N   UNL     1       5.971   4.774  18.431  0.00  0.00    +0.000 N 
ATOM      5  C   UNL     1       5.456   3.642  19.191  0.00  0.00    +0.000 C 
ATOM      6  C   UNL     1       4.466   3.033  18.268  0.00  0.00    +0.000 C 
ATOM      7  C   UNL     1       4.417   3.695  17.108  0.00  0.00    +0.000 C 
ATOM      8  C   UNL     1       5.373   4.870  17.080  0.00  0.00    +0.000 C 
ENDROOT
BRANCH   8   9
ATOM      9  C   UNL     1       6.418   4.523  15.950  0.00  0.00    +0.000 C 
ATOM     10  O   UNL     1       7.577   4.189  16.194  0.00  0.00    +0.000 OA
ATOM     11  N   UNL     1       5.969   4.727  14.659  0.00  0.00    +0.000 N 
ATOM     12  H   UNL     1       5.055   5.139  14.529  0.00  0.00    +0.000 HD
BRANCH  11  13
ATOM     13  C   UNL     1       6.804   4.536  13.495  0.00  0.00    +0.000 C 
BRANCH  13  14
ATOM     14  C   UNL     1       6.153   3.606  12.540  0.00  0.00    +0.000 A 
ATOM     15  C   UNL     1       6.511   2.371  12.038  0.00  0.00    +0.000 A 
ATOM     16  C   UNL     1       5.438   1.941  11.222  0.00  0.00    +0.000 A 
ATOM     17  C   UNL     1       4.491   2.940  11.267  0.00  0.00    +0.000 A 
ATOM     18  C   UNL     1       3.153   3.098  10.662  0.00  0.00    +0.000 C 
ATOM     19  O   UNL     1       4.924   3.962  12.062  0.00  0.00    +0.000 OA
ENDBRANCH  13  14
ENDBRANCH  11  13
ENDBRANCH   8   9
BRANCH   8  20
ATOM     20  C   UNL     1       4.606   6.175  16.741  0.00  0.00    +0.000 C 
BRANCH  20  21
ATOM     21  C   UNL     1       3.716   6.845  17.821  0.00  0.00    +0.000 C 
ATOM     22  C   UNL     1       3.306   8.287  17.530  0.00  0.00    +0.000 C 
ATOM     23  C   UNL     1       2.431   6.018  17.986  0.00  0.00    +0.000 C 
ENDBRANCH  20  21
ENDBRANCH   8  20
TORSDOF 5
ENDMDL
MODEL 3
REMARK VINA RESULT:      -6.7      2.027      6.287
REMARK  Name = 
REMARK  9 active torsions:
REMARK  status: ('A' for Active; 'I' for Inactive)
REMARK    1  A    between atoms: C_1  and  C_2
REMARK    2  A    between atoms: C_8  and  C_9
REMARK    3  A    between atoms: C_8  and  C_13
REMARK    4  A    between atoms: C_9  and  C_10
REMARK    5  A    between atoms: C_10  and  C_11
REMARK    6  A    between atoms: C_10  and  C_12
REMARK    7  A    between atoms: N_15  and  C_16
REMARK    8  A    between atoms: C_16  and  C_17
REMARK    9  A    between atoms: C_20  and  C_21
REMARK                            x       y       z     vdW  Elec       q    Type
REMARK                         _______ _______ _______ _____ _____    ______ ____
ROOT
ATOM      1  C   UNL     1       2.739   7.392  17.564  0.00  0.00    +0.000 C 
ATOM      2  C   UNL     1       2.373   7.213  19.014  0.00  0.00    +0.000 C 
ATOM      3  O   UNL     1       1.879   8.157  19.634  0.00  0.00    +0.000 OA
ATOM      4  N   UNL     1       2.576   5.993  19.616  0.00  0.00    +0.000 N 
ATOM      5  C   UNL     1       2.133   5.825  20.994  0.00  0.00    +0.000 C 
ATOM      6  C   UNL     1       2.424   4.396  21.275  0.00  0.00    +0.000 C 
ATOM      7  C   UNL     1       2.987   3.803  20.219  0.00  0.00    +0.000 C 
ATOM      8  C   UNL     1       3.152   4.752  19.050  0.00  0.00    +0.000 C 
ENDROOT
BRANCH   8   9
ATOM      9  C   UNL     1       4.710   4.874  18.837  0.00  0.00    +0.000 C 
ATOM     10  O   UNL     1       5.473   5.283  19.713  0.00  0.00    +0.000 OA
ATOM     11  N   UNL     1       5.147   4.592  17.557  0.00  0.00    +0.000 N 
ATOM     12  H   UNL     1       4.455   4.401  16.845  0.00  0.00    +0.000 HD
BRANCH  11  13
ATOM     13  C   UNL     1       6.527   4.720  17.149  0.00  0.00    +0.000 C 
BRANCH  13  14
ATOM     14  C   UNL     1       6.653   4.529  15.683  0.00  0.00    +0.000 A 
ATOM     15  C   UNL     1       5.970   3.745  14.775  0.00  0.00    +0.000 A 
ATOM     16  C   UNL     1       6.495   4.056  13.498  0.00  0.00    +0.000 A 
ATOM     17  C   UNL     1       7.473   5.006  13.702  0.00  0.00    +0.000 A 
ATOM     18  C   UNL     1       8.370   5.748  12.793  0.00  0.00    +0.000 C 
ATOM     19  O   UNL     1       7.579   5.292  15.032  0.00  0.00    +0.000 OA
ENDBRANCH  13  14
ENDBRANCH  11  13
ENDBRANCH   8   9
BRANCH   8  20
ATOM     20  C   UNL     1       2.466   4.171  17.786  0.00  0.00    +0.000 C 
BRANCH  20  21
ATOM     21  C   UNL     1       2.118   2.660  17.728  0.00  0.00    +0.000 C 
ATOM     22  C   UNL     1       3.239   1.713  18.153  0.00  0.00    +0.000 C 
ATOM     23  C   UNL     1       0.911   2.394  18.641  0.00  0.00    +0.000 C 
ENDBRANCH  20  21
ENDBRANCH   8  20
TORSDOF 5
ENDMDL
MODEL 4
REMARK VINA RESULT:      -6.7      2.761      4.776
REMARK  Name = 
REMARK  9 active torsions:
REMARK  status: ('A' for Active; 'I' for Inactive)
REMARK    1  A    between atoms: C_1  and  C_2
REMARK    2  A    between atoms: C_8  and  C_9
REMARK    3  A    between atoms: C_8  and  C_13
REMARK    4  A    between atoms: C_9  and  C_10
REMARK    5  A    between atoms: C_10  and  C_11
REMARK    6  A    between atoms: C_10  and  C_12
REMARK    7  A    between atoms: N_15  and  C_16
REMARK    8  A    between atoms: C_16  and  C_17
REMARK    9  A    between atoms: C_20  and  C_21
REMARK                            x       y       z     vdW  Elec       q    Type
REMARK                         _______ _______ _______ _____ _____    ______ ____
ROOT
ATOM      1  C   UNL     1       5.386   4.675  14.547  0.00  0.00    +0.000 C 
ATOM      2  C   UNL     1       6.660   5.118  15.218  0.00  0.00    +0.000 C 
ATOM      3  O   UNL     1       7.705   5.161  14.564  0.00  0.00    +0.000 OA
ATOM      4  N   UNL     1       6.632   5.491  16.542  0.00  0.00    +0.000 N 
ATOM      5  C   UNL     1       7.861   5.998  17.140  0.00  0.00    +0.000 C 
ATOM      6  C   UNL     1       7.443   6.375  18.513  0.00  0.00    +0.000 C 
ATOM      7  C   UNL     1       6.149   6.106  18.714  0.00  0.00    +0.000 C 
ATOM      8  C   UNL     1       5.492   5.508  17.487  0.00  0.00    +0.000 C 
ENDROOT
BRANCH   8   9
ATOM      9  C   UNL     1       5.066   4.051  17.917  0.00  0.00    +0.000 C 
ATOM     10  O   UNL     1       4.505   3.267  17.152  0.00  0.00    +0.000 OA
ATOM     11  N   UNL     1       5.271   3.754  19.251  0.00  0.00    +0.000 N 
ATOM     12  H   UNL     1       5.605   4.490  19.860  0.00  0.00    +0.000 HD
BRANCH  11  13
ATOM     13  C   UNL     1       4.878   2.499  19.849  0.00  0.00    +0.000 C 
BRANCH  13  14
ATOM     14  C   UNL     1       3.444   2.533  20.227  0.00  0.00    +0.000 A 
ATOM     15  C   UNL     1       2.791   2.767  21.420  0.00  0.00    +0.000 A 
ATOM     16  C   UNL     1       1.406   2.746  21.133  0.00  0.00    +0.000 A 
ATOM     17  C   UNL     1       1.293   2.493  19.784  0.00  0.00    +0.000 A 
ATOM     18  C   UNL     1       0.141   2.369  18.868  0.00  0.00    +0.000 C 
ATOM     19  O   UNL     1       2.532   2.354  19.227  0.00  0.00    +0.000 OA
ENDBRANCH  13  14
ENDBRANCH  11  13
ENDBRANCH   8   9
BRANCH   8  20
ATOM     20  C   UNL     1       4.253   6.348  17.080  0.00  0.00    +0.000 C 
BRANCH  20  21
ATOM     21  C   UNL     1       3.250   6.813  18.168  0.00  0.00    +0.000 C 
ATOM     22  C   UNL     1       2.563   8.150  17.897  0.00  0.00    +0.000 C 
ATOM     23  C   UNL     1       2.153   5.746  18.317  0.00  0.00    +0.000 C 
ENDBRANCH  20  21
ENDBRANCH   8  20
TORSDOF 5
ENDMDL
MODEL 5
REMARK VINA RESULT:      -6.5      3.308      4.862
REMARK  Name = 
REMARK  9 active torsions:
REMARK  status: ('A' for Active; 'I' for Inactive)
REMARK    1  A    between atoms: C_1  and  C_2
REMARK    2  A    between atoms: C_8  and  C_9
REMARK    3  A    between atoms: C_8  and  C_13
REMARK    4  A    between atoms: C_9  and  C_10
REMARK    5  A    between atoms: C_10  and  C_11
REMARK    6  A    between atoms: C_10  and  C_12
REMARK    7  A    between atoms: N_15  and  C_16
REMARK    8  A    between atoms: C_16  and  C_17
REMARK    9  A    between atoms: C_20  and  C_21
REMARK                            x       y       z     vdW  Elec       q    Type
REMARK                         _______ _______ _______ _____ _____    ______ ____
ROOT
ATOM      1  C   UNL     1       8.299   4.469  18.230  0.00  0.00    +0.000 C 
ATOM      2  C   UNL     1       7.608   5.806  18.179  0.00  0.00    +0.000 C 
ATOM      3  O   UNL     1       8.144   6.785  18.705  0.00  0.00    +0.000 OA
ATOM      4  N   UNL     1       6.402   5.920  17.526  0.00  0.00    +0.000 N 
ATOM      5  C   UNL     1       5.800   7.242  17.419  0.00  0.00    +0.000 C 
ATOM      6  C   UNL     1       4.587   7.000  16.598  0.00  0.00    +0.000 C 
ATOM      7  C   UNL     1       4.470   5.707  16.281  0.00  0.00    +0.000 C 
ATOM      8  C   UNL     1       5.605   4.876  16.842  0.00  0.00    +0.000 C 
ENDROOT
BRANCH   8   9
ATOM      9  C   UNL     1       4.925   3.891  17.869  0.00  0.00    +0.000 C 
ATOM     10  O   UNL     1       4.966   4.065  19.087  0.00  0.00    +0.000 OA
ATOM     11  N   UNL     1       4.373   2.755  17.309  0.00  0.00    +0.000 N 
ATOM     12  H   UNL     1       4.497   2.600  16.317  0.00  0.00    +0.000 HD
BRANCH  11  13
ATOM     13  C   UNL     1       3.771   1.701  18.093  0.00  0.00    +0.000 C 
BRANCH  13  14
ATOM     14  C   UNL     1       2.592   2.216  18.833  0.00  0.00    +0.000 A 
ATOM     15  C   UNL     1       1.348   2.657  18.429  0.00  0.00    +0.000 A 
ATOM     16  C   UNL     1       0.621   2.947  19.608  0.00  0.00    +0.000 A 
ATOM     17  C   UNL     1       1.465   2.674  20.662  0.00  0.00    +0.000 A 
ATOM     18  C   UNL     1       1.311   2.744  22.129  0.00  0.00    +0.000 C 
ATOM     19  O   UNL     1       2.671   2.235  20.196  0.00  0.00    +0.000 OA
ENDBRANCH  13  14
ENDBRANCH  11  13
ENDBRANCH   8   9
BRANCH   8  20
ATOM     20  C   UNL     1       6.306   4.090  15.704  0.00  0.00    +0.000 C 
BRANCH  20  21
ATOM     21  C   UNL     1       6.312   4.666  14.263  0.00  0.00    +0.000 C 
ATOM     22  C   UNL     1       7.651   5.228  13.789  0.00  0.00    +0.000 C 
ATOM     23  C   UNL     1       5.898   3.556  13.284  0.00  0.00    +0.000 C 
ENDBRANCH  20  21
ENDBRANCH   8  20
TORSDOF 5
ENDMDL
MODEL 6
REMARK VINA RESULT:      -6.5      2.653      4.816
REMARK  Name = 
REMARK  9 active torsions:
REMARK  status: ('A' for Active; 'I' for Inactive)
REMARK    1  A    between atoms: C_1  and  C_2
REMARK    2  A    between atoms: C_8  and  C_9
REMARK    3  A    between atoms: C_8  and  C_13
REMARK    4  A    between atoms: C_9  and  C_10
REMARK    5  A    between atoms: C_10  and  C_11
REMARK    6  A    between atoms: C_10  and  C_12
REMARK    7  A    between atoms: N_15  and  C_16
REMARK    8  A    between atoms: C_16  and  C_17
REMARK    9  A    between atoms: C_20  and  C_21
REMARK                            x       y       z     vdW  Elec       q    Type
REMARK                         _______ _______ _______ _____ _____    ______ ____
ROOT
ATOM      1  C   UNL     1       5.286   4.624  14.548  0.00  0.00    +0.000 C 
ATOM      2  C   UNL     1       6.578   5.179  15.087  0.00  0.00    +0.000 C 
ATOM      3  O   UNL     1       7.585   5.171  14.373  0.00  0.00    +0.000 OA
ATOM      4  N   UNL     1       6.610   5.708  16.357  0.00  0.00    +0.000 N 
ATOM      5  C   UNL     1       7.852   6.315  16.818  0.00  0.00    +0.000 C 
ATOM      6  C   UNL     1       7.497   6.843  18.159  0.00  0.00    +0.000 C 
ATOM      7  C   UNL     1       6.226   6.565  18.465  0.00  0.00    +0.000 C 
ATOM      8  C   UNL     1       5.524   5.807  17.358  0.00  0.00    +0.000 C 
ENDROOT
BRANCH   8   9
ATOM      9  C   UNL     1       5.172   4.401  17.981  0.00  0.00    +0.000 C 
ATOM     10  O   UNL     1       5.803   3.909  18.916  0.00  0.00    +0.000 OA
ATOM     11  N   UNL     1       4.169   3.710  17.329  0.00  0.00    +0.000 N 
ATOM     12  H   UNL     1       3.787   4.106  16.481  0.00  0.00    +0.000 HD
BRANCH  11  13
ATOM     13  C   UNL     1       3.757   2.377  17.706  0.00  0.00    +0.000 C 
BRANCH  13  14
ATOM     14  C   UNL     1       2.579   2.435  18.607  0.00  0.00    +0.000 A 
ATOM     15  C   UNL     1       1.221   2.326  18.387  0.00  0.00    +0.000 A 
ATOM     16  C   UNL     1       0.601   2.384  19.658  0.00  0.00    +0.000 A 
ATOM     17  C   UNL     1       1.616   2.533  20.578  0.00  0.00    +0.000 A 
ATOM     18  C   UNL     1       1.642   2.632  22.051  0.00  0.00    +0.000 C 
ATOM     19  O   UNL     1       2.824   2.573  19.943  0.00  0.00    +0.000 OA
ENDBRANCH  13  14
ENDBRANCH  11  13
ENDBRANCH   8   9
BRANCH   8  20
ATOM     20  C   UNL     1       4.237   6.558  16.927  0.00  0.00    +0.000 C 
BRANCH  20  21
ATOM     21  C   UNL     1       3.302   7.161  18.008  0.00  0.00    +0.000 C 
ATOM     22  C   UNL     1       2.623   8.475  17.627  0.00  0.00    +0.000 C 
ATOM     23  C   UNL     1       2.198   6.142  18.333  0.00  0.00    +0.000 C 
ENDBRANCH  20  21
ENDBRANCH   8  20
TORSDOF 5
ENDMDL
MODEL 7
REMARK VINA RESULT:      -6.5      1.440      1.864
REMARK  Name = 
REMARK  9 active torsions:
REMARK  status: ('A' for Active; 'I' for Inactive)
REMARK    1  A    between atoms: C_1  and  C_2
REMARK    2  A    between atoms: C_8  and  C_9
REMARK    3  A    between atoms: C_8  and  C_13
REMARK    4  A    between atoms: C_9  and  C_10
REMARK    5  A    between atoms: C_10  and  C_11
REMARK    6  A    between atoms: C_10  and  C_12
REMARK    7  A    between atoms: N_15  and  C_16
REMARK    8  A    between atoms: C_16  and  C_17
REMARK    9  A    between atoms: C_20  and  C_21
REMARK                            x       y       z     vdW  Elec       q    Type
REMARK                         _______ _______ _______ _____ _____    ______ ____
ROOT
ATOM      1  C   UNL     1       7.144   5.876  19.196  0.00  0.00    +0.000 C 
ATOM      2  C   UNL     1       6.934   4.909  18.060  0.00  0.00    +0.000 C 
ATOM      3  O   UNL     1       7.909   4.351  17.552  0.00  0.00    +0.000 OA
ATOM      4  N   UNL     1       5.656   4.647  17.624  0.00  0.00    +0.000 N 
ATOM      5  C   UNL     1       5.477   3.643  16.582  0.00  0.00    +0.000 C 
ATOM      6  C   UNL     1       4.003   3.563  16.433  0.00  0.00    +0.000 C 
ATOM      7  C   UNL     1       3.388   4.420  17.254  0.00  0.00    +0.000 C 
ATOM      8  C   UNL     1       4.370   5.209  18.096  0.00  0.00    +0.000 C 
ENDROOT
BRANCH   8   9
ATOM      9  C   UNL     1       4.186   6.709  17.646  0.00  0.00    +0.000 C 
ATOM     10  O   UNL     1       5.098   7.376  17.158  0.00  0.00    +0.000 OA
ATOM     11  N   UNL     1       2.953   7.259  17.940  0.00  0.00    +0.000 N 
ATOM     12  H   UNL     1       2.295   6.703  18.470  0.00  0.00    +0.000 HD
BRANCH  11  13
ATOM     13  C   UNL     1       2.620   8.639  17.672  0.00  0.00    +0.000 C 
BRANCH  13  14
ATOM     14  C   UNL     1       1.588   9.116  18.624  0.00  0.00    +0.000 A 
ATOM     15  C   UNL     1       0.484   9.933  18.483  0.00  0.00    +0.000 A 
ATOM     16  C   UNL     1      -0.165   9.954  19.740  0.00  0.00    +0.000 A 
ATOM     17  C   UNL     1       0.583   9.156  20.577  0.00  0.00    +0.000 A 
ATOM     18  C   UNL     1       0.438   8.751  21.990  0.00  0.00    +0.000 C 
ATOM     19  O   UNL     1       1.658   8.648  19.905  0.00  0.00    +0.000 OA
ENDBRANCH  13  14
ENDBRANCH  11  13
ENDBRANCH   8   9
BRANCH   8  20
ATOM     20  C   UNL     1       4.040   5.040  19.602  0.00  0.00    +0.000 C 
BRANCH  20  21
ATOM     21  C   UNL     1       2.740   4.306  20.026  0.00  0.00    +0.000 C 
ATOM     22  C   UNL     1       2.941   3.083  20.919  0.00  0.00    +0.000 C 
ATOM     23  C   UNL     1       1.838   5.293  20.783  0.00  0.00    +0.000 C 
ENDBRANCH  20  21
ENDBRANCH   8  20
TORSDOF 5
ENDMDL
MODEL 8
REMARK VINA RESULT:      -6.4      1.516      1.812
REMARK  Name = 
REMARK  9 active torsions:
REMARK  status: ('A' for Active; 'I' for Inactive)
REMARK    1  A    between atoms: C_1  and  C_2
REMARK    2  A    between atoms: C_8  and  C_9
REMARK    3  A    between atoms: C_8  and  C_13
REMARK    4  A    between atoms: C_9  and  C_10
REMARK    5  A    between atoms: C_10  and  C_11
REMARK    6  A    between atoms: C_10  and  C_12
REMARK    7  A    between atoms: N_15  and  C_16
REMARK    8  A    between atoms: C_16  and  C_17
REMARK    9  A    between atoms: C_20  and  C_21
REMARK                            x       y       z     vdW  Elec       q    Type
REMARK                         _______ _______ _______ _____ _____    ______ ____
ROOT
ATOM      1  C   UNL     1       6.703   5.678  19.347  0.00  0.00    +0.000 C 
ATOM      2  C   UNL     1       6.502   4.810  18.133  0.00  0.00    +0.000 C 
ATOM      3  O   UNL     1       7.486   4.360  17.541  0.00  0.00    +0.000 OA
ATOM      4  N   UNL     1       5.224   4.513  17.719  0.00  0.00    +0.000 N 
ATOM      5  C   UNL     1       5.060   3.601  16.594  0.00  0.00    +0.000 C 
ATOM      6  C   UNL     1       3.588   3.448  16.489  0.00  0.00    +0.000 C 
ATOM      7  C   UNL     1       2.960   4.189  17.408  0.00  0.00    +0.000 C 
ATOM      8  C   UNL     1       3.929   4.953  18.286  0.00  0.00    +0.000 C 
ENDROOT
BRANCH   8   9
ATOM      9  C   UNL     1       3.644   6.475  17.986  0.00  0.00    +0.000 C 
ATOM     10  O   UNL     1       4.405   7.177  17.321  0.00  0.00    +0.000 OA
ATOM     11  N   UNL     1       2.529   6.994  18.616  0.00  0.00    +0.000 N 
ATOM     12  H   UNL     1       2.025   6.402  19.263  0.00  0.00    +0.000 HD
BRANCH  11  13
ATOM     13  C   UNL     1       2.147   8.384  18.523  0.00  0.00    +0.000 C 
BRANCH  13  14
ATOM     14  C   UNL     1       1.372   8.789  19.722  0.00  0.00    +0.000 A 
ATOM     15  C   UNL     1       1.292   8.284  21.004  0.00  0.00    +0.000 A 
ATOM     16  C   UNL     1       0.439   9.151  21.726  0.00  0.00    +0.000 A 
ATOM     17  C   UNL     1       0.041  10.130  20.842  0.00  0.00    +0.000 A 
ATOM     18  C   UNL     1      -0.819  11.324  20.970  0.00  0.00    +0.000 C 
ATOM     19  O   UNL     1       0.600   9.910  19.616  0.00  0.00    +0.000 OA
ENDBRANCH  13  14
ENDBRANCH  11  13
ENDBRANCH   8   9
BRANCH   8  20
ATOM     20  C   UNL     1       3.670   4.626  19.780  0.00  0.00    +0.000 C 
BRANCH  20  21
ATOM     21  C   UNL     1       2.508   3.673  20.167  0.00  0.00    +0.000 C 
ATOM     22  C   UNL     1       2.817   2.690  21.295  0.00  0.00    +0.000 C 
ATOM     23  C   UNL     1       1.299   4.516  20.601  0.00  0.00    +0.000 C 
ENDBRANCH  20  21
ENDBRANCH   8  20
TORSDOF 5
ENDMDL
MODEL 9
REMARK VINA RESULT:      -6.4      1.680      2.181
REMARK  Name = 
REMARK  9 active torsions:
REMARK  status: ('A' for Active; 'I' for Inactive)
REMARK    1  A    between atoms: C_1  and  C_2
REMARK    2  A    between atoms: C_8  and  C_9
REMARK    3  A    between atoms: C_8  and  C_13
REMARK    4  A    between atoms: C_9  and  C_10
REMARK    5  A    between atoms: C_10  and  C_11
REMARK    6  A    between atoms: C_10  and  C_12
REMARK    7  A    between atoms: N_15  and  C_16
REMARK    8  A    between atoms: C_16  and  C_17
REMARK    9  A    between atoms: C_20  and  C_21
REMARK                            x       y       z     vdW  Elec       q    Type
REMARK                         _______ _______ _______ _____ _____    ______ ____
ROOT
ATOM      1  C   UNL     1       6.747   5.887  19.246  0.00  0.00    +0.000 C 
ATOM      2  C   UNL     1       6.489   4.817  18.218  0.00  0.00    +0.000 C 
ATOM      3  O   UNL     1       7.440   4.187  17.749  0.00  0.00    +0.000 OA
ATOM      4  N   UNL     1       5.196   4.544  17.836  0.00  0.00    +0.000 N 
ATOM      5  C   UNL     1       4.971   3.445  16.905  0.00  0.00    +0.000 C 
ATOM      6  C   UNL     1       3.492   3.388  16.794  0.00  0.00    +0.000 C 
ATOM      7  C   UNL     1       2.916   4.338  17.537  0.00  0.00    +0.000 C 
ATOM      8  C   UNL     1       3.934   5.183  18.275  0.00  0.00    +0.000 C 
ENDROOT
BRANCH   8   9
ATOM      9  C   UNL     1       3.774   6.634  17.679  0.00  0.00    +0.000 C 
ATOM     10  O   UNL     1       4.546   7.099  16.840  0.00  0.00    +0.000 OA
ATOM     11  N   UNL     1       2.768   7.390  18.248  0.00  0.00    +0.000 N 
ATOM     12  H   UNL     1       2.261   7.001  19.032  0.00  0.00    +0.000 HD
BRANCH  11  13
ATOM     13  C   UNL     1       2.514   8.766  17.888  0.00  0.00    +0.000 C 
BRANCH  13  14
ATOM     14  C   UNL     1       1.302   9.267  18.581  0.00  0.00    +0.000 A 
ATOM     15  C   UNL     1       0.982   9.435  19.913  0.00  0.00    +0.000 A 
ATOM     16  C   UNL     1      -0.300  10.034  19.947  0.00  0.00    +0.000 A 
ATOM     17  C   UNL     1      -0.691  10.189  18.635  0.00  0.00    +0.000 A 
ATOM     18  C   UNL     1      -1.894  10.761  17.997  0.00  0.00    +0.000 C 
ATOM     19  O   UNL     1       0.278   9.717  17.797  0.00  0.00    +0.000 OA
ENDBRANCH  13  14
ENDBRANCH  11  13
ENDBRANCH   8   9
BRANCH   8  20
ATOM     20  C   UNL     1       3.635   5.174  19.797  0.00  0.00    +0.000 C 
BRANCH  20  21
ATOM     21  C   UNL     1       2.280   4.618  20.309  0.00  0.00    +0.000 C 
ATOM     22  C   UNL     1       2.380   3.512  21.358  0.00  0.00    +0.000 C 
ATOM     23  C   UNL     1       1.472   5.772  20.924  0.00  0.00    +0.000 C 
ENDBRANCH  20  21
ENDBRANCH   8  20
TORSDOF 5
ENDMDL
