MODEL 1
REMARK VINA RESULT:      -6.8      0.000      0.000
REMARK  Name = 
REMARK  5 active torsions:
REMARK  status: ('A' for Active; 'I' for Inactive)
REMARK    1  A    between atoms: C_1  and  C_2
REMARK    2  A    between atoms: C_5  and  O_6
REMARK    3  A    between atoms: O_6  and  C_7
REMARK    4  A    between atoms: C_7  and  C_8
REMARK    5  A    between atoms: N_13  and  C_14
REMARK                            x       y       z     vdW  Elec       q    Type
REMARK                         _______ _______ _______ _____ _____    ______ ____
ROOT
ATOM      1  C   UNL     1       4.056   4.382  19.156  0.00  0.00    +0.000 C 
ENDROOT
BRANCH   1   2
ATOM      2  C   UNL     1       3.419   3.269  20.032  0.00  0.00    +0.000 C 
ATOM      3  C   UNL     1       2.451   3.857  21.084  0.00  0.00    +0.000 C 
ATOM      4  C   UNL     1       1.088   4.218  20.498  0.00  0.00    +0.000 C 
ATOM      5  C   UNL     1       0.501   3.017  19.773  0.00  0.00    +0.000 C 
ATOM      6  C   UNL     1       1.473   2.498  18.715  0.00  0.00    +0.000 C 
ATOM      7  N   UNL     1       2.771   2.151  19.304  0.00  0.00    +0.000 NA
ATOM      8  C   UNL     1       3.638   1.538  18.299  0.00  0.00    +0.000 C 
ENDBRANCH   1   2
BRANCH   1   9
ATOM      9  O   UNL     1       5.483   4.344  19.296  0.00  0.00    +0.000 OA
BRANCH   9  14
ATOM     10  C   UNL     1       7.031   4.747  14.427  0.00  0.00    +0.000 C 
ATOM     11  C   UNL     1       6.892   4.626  15.899  0.00  0.00    +0.000 A 
ATOM     12  N   UNL     1       7.896   4.534  16.744  0.00  0.00    +0.000 NA
ATOM     13  N   UNL     1       7.465   4.422  18.053  0.00  0.00    +0.000 NA
ATOM     14  C   UNL     1       6.153   4.436  18.144  0.00  0.00    +0.000 A 
ATOM     15  S   UNL     1       5.342   4.589  16.644  0.00  0.00    +0.000 S 
ENDBRANCH   9  14
ENDBRANCH   1   9
TORSDOF 3
ENDMDL
MODEL 2
REMARK VINA RESULT:      -6.4      1.109      1.529
REMARK  Name = 
REMARK  5 active torsions:
REMARK  status: ('A' for Active; 'I' for Inactive)
REMARK    1  A    between atoms: C_1  and  C_2
REMARK    2  A    between atoms: C_5  and  O_6
REMARK    3  A    between atoms: O_6  and  C_7
REMARK    4  A    between atoms: C_7  and  C_8
REMARK    5  A    between atoms: N_13  and  C_14
REMARK                            x       y       z     vdW  Elec       q    Type
REMARK                         _______ _______ _______ _____ _____    ______ ____
ROOT
ATOM      1  C   UNL     1       4.431   3.350  19.267  0.00  0.00    +0.000 C 
ENDROOT
BRANCH   1   2
ATOM      2  C   UNL     1       3.171   4.094  19.787  0.00  0.00    +0.000 C 
ATOM      3  C   UNL     1       2.474   4.890  18.659  0.00  0.00    +0.000 C 
ATOM      4  C   UNL     1       1.618   4.009  17.754  0.00  0.00    +0.000 C 
ATOM      5  C   UNL     1       0.636   3.205  18.592  0.00  0.00    +0.000 C 
ATOM      6  C   UNL     1       1.372   2.402  19.663  0.00  0.00    +0.000 C 
ATOM      7  N   UNL     1       2.180   3.272  20.523  0.00  0.00    +0.000 NA
ATOM      8  C   UNL     1       2.771   2.500  21.616  0.00  0.00    +0.000 C 
ENDBRANCH   1   2
BRANCH   1   9
ATOM      9  O   UNL     1       5.559   4.236  19.301  0.00  0.00    +0.000 OA
BRANCH   9  14
ATOM     10  C   UNL     1       6.952   4.657  14.387  0.00  0.00    +0.000 C 
ATOM     11  C   UNL     1       6.856   4.572  15.866  0.00  0.00    +0.000 A 
ATOM     12  N   UNL     1       7.880   4.638  16.689  0.00  0.00    +0.000 NA
ATOM     13  N   UNL     1       7.491   4.519  18.011  0.00  0.00    +0.000 NA
ATOM     14  C   UNL     1       6.190   4.371  18.132  0.00  0.00    +0.000 A 
ATOM     15  S   UNL     1       5.338   4.366  16.646  0.00  0.00    +0.000 S 
ENDBRANCH   9  14
ENDBRANCH   1   9
TORSDOF 3
ENDMDL
MODEL 3
REMARK VINA RESULT:      -6.3      1.626      2.056
REMARK  Name = 
REMARK  5 active torsions:
REMARK  status: ('A' for Active; 'I' for Inactive)
REMARK    1  A    between atoms: C_1  and  C_2
REMARK    2  A    between atoms: C_5  and  O_6
REMARK    3  A    between atoms: O_6  and  C_7
REMARK    4  A    between atoms: C_7  and  C_8
REMARK    5  A    between atoms: N_13  and  C_14
REMARK                            x       y       z     vdW  Elec       q    Type
REMARK                         _______ _______ _______ _____ _____    ______ ____
ROOT
ATOM      1  C   UNL     1       4.757   3.893  17.562  0.00  0.00    +0.000 C 
ENDROOT
BRANCH   1   2
ATOM      2  C   UNL     1       3.836   4.256  18.758  0.00  0.00    +0.000 C 
ATOM      3  C   UNL     1       2.624   5.103  18.307  0.00  0.00    +0.000 C 
ATOM      4  C   UNL     1       1.519   4.265  17.671  0.00  0.00    +0.000 C 
ATOM      5  C   UNL     1       1.123   3.134  18.608  0.00  0.00    +0.000 C 
ATOM      6  C   UNL     1       2.343   2.298  18.991  0.00  0.00    +0.000 C 
ATOM      7  N   UNL     1       3.386   3.126  19.606  0.00  0.00    +0.000 NA
ATOM      8  C   UNL     1       4.486   2.287  20.080  0.00  0.00    +0.000 C 
ENDBRANCH   1   2
BRANCH   1   9
ATOM      9  O   UNL     1       5.757   4.909  17.401  0.00  0.00    +0.000 OA
BRANCH   9  14
ATOM     10  C   UNL     1       7.098   4.323  12.489  0.00  0.00    +0.000 C 
ATOM     11  C   UNL     1       6.955   4.690  13.920  0.00  0.00    +0.000 A 
ATOM     12  N   UNL     1       7.753   5.510  14.568  0.00  0.00    +0.000 NA
ATOM     13  N   UNL     1       7.383   5.656  15.892  0.00  0.00    +0.000 NA
ATOM     14  C   UNL     1       6.319   4.944  16.190  0.00  0.00    +0.000 A 
ATOM     15  S   UNL     1       5.685   4.040  14.880  0.00  0.00    +0.000 S 
ENDBRANCH   9  14
ENDBRANCH   1   9
TORSDOF 3
ENDMDL
MODEL 4
REMARK VINA RESULT:      -6.3      0.927      1.084
REMARK  Name = 
REMARK  5 active torsions:
REMARK  status: ('A' for Active; 'I' for Inactive)
REMARK    1  A    between atoms: C_1  and  C_2
REMARK    2  A    between atoms: C_5  and  O_6
REMARK    3  A    between atoms: O_6  and  C_7
REMARK    4  A    between atoms: C_7  and  C_8
REMARK    5  A    between atoms: N_13  and  C_14
REMARK                            x       y       z     vdW  Elec       q    Type
REMARK                         _______ _______ _______ _____ _____    ______ ____
ROOT
ATOM      1  C   UNL     1       4.030   4.905  19.310  0.00  0.00    +0.000 C 
ENDROOT
BRANCH   1   2
ATOM      2  C   UNL     1       3.673   3.396  19.370  0.00  0.00    +0.000 C 
ATOM      3  C   UNL     1       3.589   2.888  20.829  0.00  0.00    +0.000 C 
ATOM      4  C   UNL     1       2.274   3.257  21.509  0.00  0.00    +0.000 C 
ATOM      5  C   UNL     1       1.102   2.789  20.660  0.00  0.00    +0.000 C 
ATOM      6  C   UNL     1       1.204   3.349  19.243  0.00  0.00    +0.000 C 
ATOM      7  N   UNL     1       2.472   2.974  18.609  0.00  0.00    +0.000 NA
ATOM      8  C   UNL     1       2.491   3.411  17.214  0.00  0.00    +0.000 C 
ENDBRANCH   1   2
BRANCH   1   9
ATOM      9  O   UNL     1       5.450   5.067  19.430  0.00  0.00    +0.000 OA
BRANCH   9  14
ATOM     10  C   UNL     1       7.088   4.919  14.576  0.00  0.00    +0.000 C 
ATOM     11  C   UNL     1       6.901   4.850  16.047  0.00  0.00    +0.000 A 
ATOM     12  N   UNL     1       7.801   4.409  16.898  0.00  0.00    +0.000 NA
ATOM     13  N   UNL     1       7.346   4.450  18.203  0.00  0.00    +0.000 NA
ATOM     14  C   UNL     1       6.122   4.923  18.284  0.00  0.00    +0.000 A 
ATOM     15  S   UNL     1       5.429   5.355  16.779  0.00  0.00    +0.000 S 
ENDBRANCH   9  14
ENDBRANCH   1   9
TORSDOF 3
ENDMDL
MODEL 5
REMARK VINA RESULT:      -6.2      1.958      2.728
REMARK  Name = 
REMARK  5 active torsions:
REMARK  status: ('A' for Active; 'I' for Inactive)
REMARK    1  A    between atoms: C_1  and  C_2
REMARK    2  A    between atoms: C_5  and  O_6
REMARK    3  A    between atoms: O_6  and  C_7
REMARK    4  A    between atoms: C_7  and  C_8
REMARK    5  A    between atoms: N_13  and  C_14
REMARK                            x       y       z     vdW  Elec       q    Type
REMARK                         _______ _______ _______ _____ _____    ______ ____
ROOT
ATOM      1  C   UNL     1       4.395   3.826  18.859  0.00  0.00    +0.000 C 
ENDROOT
BRANCH   1   2
ATOM      2  C   UNL     1       2.980   4.140  18.302  0.00  0.00    +0.000 C 
ATOM      3  C   UNL     1       2.198   2.848  17.972  0.00  0.00    +0.000 C 
ATOM      4  C   UNL     1       1.596   2.188  19.210  0.00  0.00    +0.000 C 
ATOM      5  C   UNL     1       0.758   3.197  19.980  0.00  0.00    +0.000 C 
ATOM      6  C   UNL     1       1.583   4.436  20.321  0.00  0.00    +0.000 C 
ATOM      7  N   UNL     1       2.143   5.055  19.115  0.00  0.00    +0.000 NA
ATOM      8  C   UNL     1       2.818   6.307  19.453  0.00  0.00    +0.000 C 
ENDBRANCH   1   2
BRANCH   1   9
ATOM      9  O   UNL     1       5.367   3.983  17.816  0.00  0.00    +0.000 OA
BRANCH   9  14
ATOM     10  C   UNL     1       8.007   8.374  17.713  0.00  0.00    +0.000 C 
ATOM     11  C   UNL     1       7.446   7.025  17.970  0.00  0.00    +0.000 A 
ATOM     12  N   UNL     1       7.922   6.169  18.848  0.00  0.00    +0.000 NA
ATOM     13  N   UNL     1       7.203   4.988  18.864  0.00  0.00    +0.000 NA
ATOM     14  C   UNL     1       6.213   5.000  17.999  0.00  0.00    +0.000 A 
ATOM     15  S   UNL     1       6.078   6.451  17.099  0.00  0.00    +0.000 S 
ENDBRANCH   9  14
ENDBRANCH   1   9
TORSDOF 3
ENDMDL
MODEL 6
REMARK VINA RESULT:      -6.2      1.754      1.918
REMARK  Name = 
REMARK  5 active torsions:
REMARK  status: ('A' for Active; 'I' for Inactive)
REMARK    1  A    between atoms: C_1  and  C_2
REMARK    2  A    between atoms: C_5  and  O_6
REMARK    3  A    between atoms: O_6  and  C_7
REMARK    4  A    between atoms: C_7  and  C_8
REMARK    5  A    between atoms: N_13  and  C_14
REMARK                            x       y       z     vdW  Elec       q    Type
REMARK                         _______ _______ _______ _____ _____    ______ ____
ROOT
ATOM      1  C   UNL     1       3.276   4.421  17.584  0.00  0.00    +0.000 C 
ENDROOT
BRANCH   1   2
ATOM      2  C   UNL     1       3.578   3.931  19.026  0.00  0.00    +0.000 C 
ATOM      3  C   UNL     1       3.147   4.973  20.084  0.00  0.00    +0.000 C 
ATOM      4  C   UNL     1       1.646   4.952  20.359  0.00  0.00    +0.000 C 
ATOM      5  C   UNL     1       1.205   3.541  20.717  0.00  0.00    +0.000 C 
ATOM      6  C   UNL     1       1.612   2.555  19.625  0.00  0.00    +0.000 C 
ATOM      7  N   UNL     1       3.059   2.589  19.385  0.00  0.00    +0.000 NA
ATOM      8  C   UNL     1       3.440   1.549  18.431  0.00  0.00    +0.000 C 
ENDBRANCH   1   2
BRANCH   1   9
ATOM      9  O   UNL     1       4.405   4.155  16.741  0.00  0.00    +0.000 OA
BRANCH   9  14
ATOM     10  C   UNL     1       7.736   7.958  17.585  0.00  0.00    +0.000 C 
ATOM     11  C   UNL     1       7.025   6.672  17.377  0.00  0.00    +0.000 A 
ATOM     12  N   UNL     1       7.596   5.488  17.386  0.00  0.00    +0.000 NA
ATOM     13  N   UNL     1       6.687   4.472  17.154  0.00  0.00    +0.000 NA
ATOM     14  C   UNL     1       5.468   4.930  16.980  0.00  0.00    +0.000 A 
ATOM     15  S   UNL     1       5.330   6.633  17.088  0.00  0.00    +0.000 S 
ENDBRANCH   9  14
ENDBRANCH   1   9
TORSDOF 3
ENDMDL
MODEL 7
REMARK VINA RESULT:      -6.1      1.798      2.117
REMARK  Name = 
REMARK  5 active torsions:
REMARK  status: ('A' for Active; 'I' for Inactive)
REMARK    1  A    between atoms: C_1  and  C_2
REMARK    2  A    between atoms: C_5  and  O_6
REMARK    3  A    between atoms: O_6  and  C_7
REMARK    4  A    between atoms: C_7  and  C_8
REMARK    5  A    between atoms: N_13  and  C_14
REMARK                            x       y       z     vdW  Elec       q    Type
REMARK                         _______ _______ _______ _____ _____    ______ ____
ROOT
ATOM      1  C   UNL     1       5.594   4.802  18.789  0.00  0.00    +0.000 C 
ENDROOT
BRANCH   1   2
ATOM      2  C   UNL     1       4.270   4.842  19.599  0.00  0.00    +0.000 C 
ATOM      3  C   UNL     1       3.392   6.049  19.197  0.00  0.00    +0.000 C 
ATOM      4  C   UNL     1       2.625   5.816  17.898  0.00  0.00    +0.000 C 
ATOM      5  C   UNL     1       1.831   4.522  17.990  0.00  0.00    +0.000 C 
ATOM      6  C   UNL     1       2.745   3.352  18.346  0.00  0.00    +0.000 C 
ATOM      7  N   UNL     1       3.464   3.597  19.601  0.00  0.00    +0.000 NA
ATOM      8  C   UNL     1       4.232   2.413  19.986  0.00  0.00    +0.000 C 
ENDBRANCH   1   2
BRANCH   1   9
ATOM      9  O   UNL     1       5.573   5.829  17.787  0.00  0.00    +0.000 OA
BRANCH   9  14
ATOM     10  C   UNL     1       6.525   3.823  13.168  0.00  0.00    +0.000 C 
ATOM     11  C   UNL     1       6.529   4.542  14.466  0.00  0.00    +0.000 A 
ATOM     12  N   UNL     1       7.507   5.309  14.895  0.00  0.00    +0.000 NA
ATOM     13  N   UNL     1       7.240   5.841  16.144  0.00  0.00    +0.000 NA
ATOM     14  C   UNL     1       6.070   5.456  16.604  0.00  0.00    +0.000 A 
ATOM     15  S   UNL     1       5.204   4.417  15.554  0.00  0.00    +0.000 S 
ENDBRANCH   9  14
ENDBRANCH   1   9
TORSDOF 3
ENDMDL
MODEL 8
REMARK VINA RESULT:      -6.1      2.044      2.794
REMARK  Name = 
REMARK  5 active torsions:
REMARK  status: ('A' for Active; 'I' for Inactive)
REMARK    1  A    between atoms: C_1  and  C_2
REMARK    2  A    between atoms: C_5  and  O_6
REMARK    3  A    between atoms: O_6  and  C_7
REMARK    4  A    between atoms: C_7  and  C_8
REMARK    5  A    between atoms: N_13  and  C_14
REMARK                            x       y       z     vdW  Elec       q    Type
REMARK                         _______ _______ _______ _____ _____    ______ ____
ROOT
ATOM      1  C   UNL     1       4.468   3.796  18.491  0.00  0.00    +0.000 C 
ENDROOT
BRANCH   1   2
ATOM      2  C   UNL     1       2.993   4.044  18.076  0.00  0.00    +0.000 C 
ATOM      3  C   UNL     1       2.214   2.717  17.920  0.00  0.00    +0.000 C 
ATOM      4  C   UNL     1       1.771   2.130  19.258  0.00  0.00    +0.000 C 
ATOM      5  C   UNL     1       0.996   3.172  20.049  0.00  0.00    +0.000 C 
ATOM      6  C   UNL     1       1.819   4.447  20.216  0.00  0.00    +0.000 C 
ATOM      7  N   UNL     1       2.225   4.995  18.917  0.00  0.00    +0.000 NA
ATOM      8  C   UNL     1       2.900   6.280  19.096  0.00  0.00    +0.000 C 
ENDBRANCH   1   2
BRANCH   1   9
ATOM      9  O   UNL     1       5.306   3.832  17.327  0.00  0.00    +0.000 OA
BRANCH   9  14
ATOM     10  C   UNL     1       8.208   7.973  18.160  0.00  0.00    +0.000 C 
ATOM     11  C   UNL     1       7.459   6.812  17.620  0.00  0.00    +0.000 A 
ATOM     12  N   UNL     1       7.432   6.459  16.353  0.00  0.00    +0.000 NA
ATOM     13  N   UNL     1       6.643   5.344  16.142  0.00  0.00    +0.000 NA
ATOM     14  C   UNL     1       6.108   4.898  17.256  0.00  0.00    +0.000 A 
ATOM     15  S   UNL     1       6.525   5.800  18.651  0.00  0.00    +0.000 S 
ENDBRANCH   9  14
ENDBRANCH   1   9
TORSDOF 3
ENDMDL
MODEL 9
REMARK VINA RESULT:      -6.0      1.235      2.119
REMARK  Name = 
REMARK  5 active torsions:
REMARK  status: ('A' for Active; 'I' for Inactive)
REMARK    1  A    between atoms: C_1  and  C_2
REMARK    2  A    between atoms: C_5  and  O_6
REMARK    3  A    between atoms: O_6  and  C_7
REMARK    4  A    between atoms: C_7  and  C_8
REMARK    5  A    between atoms: N_13  and  C_14
REMARK                            x       y       z     vdW  Elec       q    Type
REMARK                         _______ _______ _______ _____ _____    ______ ____
ROOT
ATOM      1  C   UNL     1       4.384   4.331  19.415  0.00  0.00    +0.000 C 
ENDROOT
BRANCH   1   2
ATOM      2  C   UNL     1       3.046   4.498  18.646  0.00  0.00    +0.000 C 
ATOM      3  C   UNL     1       2.605   3.175  17.977  0.00  0.00    +0.000 C 
ATOM      4  C   UNL     1       1.954   2.204  18.958  0.00  0.00    +0.000 C 
ATOM      5  C   UNL     1       0.815   2.894  19.692  0.00  0.00    +0.000 C 
ATOM      6  C   UNL     1       1.306   4.170  20.372  0.00  0.00    +0.000 C 
ATOM      7  N   UNL     1       1.919   5.089  19.408  0.00  0.00    +0.000 NA
ATOM      8  C   UNL     1       2.263   6.353  20.058  0.00  0.00    +0.000 C 
ENDBRANCH   1   2
BRANCH   1   9
ATOM      9  O   UNL     1       5.285   5.383  19.043  0.00  0.00    +0.000 OA
BRANCH   9  14
ATOM     10  C   UNL     1       7.207   4.881  14.318  0.00  0.00    +0.000 C 
ATOM     11  C   UNL     1       6.920   4.888  15.774  0.00  0.00    +0.000 A 
ATOM     12  N   UNL     1       7.714   4.393  16.698  0.00  0.00    +0.000 NA
ATOM     13  N   UNL     1       7.183   4.532  17.967  0.00  0.00    +0.000 NA
ATOM     14  C   UNL     1       6.011   5.127  17.950  0.00  0.00    +0.000 A 
ATOM     15  S   UNL     1       5.464   5.566  16.388  0.00  0.00    +0.000 S 
ENDBRANCH   9  14
ENDBRANCH   1   9
TORSDOF 3
ENDMDL
