MODEL 1
REMARK VINA RESULT:      -8.4      0.000      0.000
REMARK  Name = 
REMARK  8 active torsions:
REMARK  status: ('A' for Active; 'I' for Inactive)
REMARK    1  A    between atoms: C_5  and  C_6
REMARK    2  A    between atoms: C_6  and  C_7
REMARK    3  A    between atoms: C_11  and  C_12
REMARK    4  A    between atoms: C_12  and  C_13
REMARK    5  A    between atoms: C_13  and  N_14
REMARK    6  A    between atoms: N_14  and  S_15
REMARK    7  A    between atoms: S_15  and  C_18
REMARK    8  A    between atoms: C_26  and  O_27
REMARK                            x       y       z     vdW  Elec       q    Type
REMARK                         _______ _______ _______ _____ _____    ______ ____
ROOT
ATOM      1  C   UNL     1      10.733  11.820  18.284  0.00  0.00    +0.000 A 
ATOM      2  C   UNL     1      10.733  11.963  19.677  0.00  0.00    +0.000 A 
ATOM      3  C   UNL     1       9.913  11.156  20.464  0.00  0.00    +0.000 A 
ATOM      4  C   UNL     1       9.063  10.218  19.868  0.00  0.00    +0.000 A 
ATOM      5  C   UNL     1       9.046  10.065  18.476  0.00  0.00    +0.000 A 
ATOM      6  C   UNL     1       9.922  10.837  17.699  0.00  0.00    +0.000 A 
ENDROOT
BRANCH   1   7
ATOM      7  C   UNL     1      11.481  12.791  17.405  0.00  0.00    +0.000 C 
BRANCH   7  12
ATOM      8  O   UNL     1       9.126  17.094  17.690  0.00  0.00    +0.000 OA
ATOM      9  C   UNL     1      10.028  16.271  17.644  0.00  0.00    +0.000 C 
ATOM     10  C   UNL     1      11.480  16.610  17.562  0.00  0.00    +0.000 C 
ATOM     11  C   UNL     1      12.103  15.267  17.212  0.00  0.00    +0.000 C 
ATOM     12  C   UNL     1      11.035  14.231  17.480  0.00  0.00    +0.000 C 
ATOM     13  C   UNL     1       9.837  14.799  17.713  0.00  0.00    +0.000 C 
BRANCH  13  14
ATOM     14  O   UNL     1       8.624  14.248  17.982  0.00  0.00    +0.000 OA
ATOM     15  H   UNL     1       8.513  13.433  17.471  0.00  0.00    +0.000 HD
ENDBRANCH  13  14
ENDBRANCH   7  12
ENDBRANCH   1   7
BRANCH   5  16
ATOM     16  C   UNL     1       8.048   9.146  17.803  0.00  0.00    +0.000 C 
BRANCH  16  17
ATOM     17  C   UNL     1       8.131   7.734  18.400  0.00  0.00    +0.000 C 
BRANCH  17  18
ATOM     18  N   UNL     1       7.680   6.711  17.444  0.00  0.00    +0.000 NA
ATOM     19  H   UNL     1       8.121   6.694  16.524  0.00  0.00    +0.000 HD
BRANCH  18  20
ATOM     20  S   UNL     1       7.557   5.133  18.049  0.00  0.00    +0.000 S 
ATOM     21  O   UNL     1       8.171   4.276  17.061  0.00  0.00    +0.000 OA
ATOM     22  O   UNL     1       7.986   5.146  19.428  0.00  0.00    +0.000 OA
BRANCH  20  23
ATOM     23  C   UNL     1       5.806   4.829  17.998  0.00  0.00    +0.000 A 
ATOM     24  C   UNL     1       4.990   5.370  18.998  0.00  0.00    +0.000 A 
ATOM     25  C   UNL     1       3.608   5.171  18.940  0.00  0.00    +0.000 A 
ATOM     26  C   UNL     1       3.052   4.443  17.886  0.00  0.00    +0.000 A 
ATOM     27 CL   UNL     1       1.350   4.205  17.822  0.00  0.00    +0.000 Cl
ATOM     28  C   UNL     1       3.865   3.912  16.884  0.00  0.00    +0.000 A 
ATOM     29  C   UNL     1       5.248   4.106  16.936  0.00  0.00    +0.000 A 
ENDBRANCH  20  23
ENDBRANCH  18  20
ENDBRANCH  17  18
ENDBRANCH  16  17
ENDBRANCH   5  16
TORSDOF 8
ENDMDL
MODEL 2
REMARK VINA RESULT:      -8.3      7.427     10.143
REMARK  Name = 
REMARK  8 active torsions:
REMARK  status: ('A' for Active; 'I' for Inactive)
REMARK    1  A    between atoms: C_5  and  C_6
REMARK    2  A    between atoms: C_6  and  C_7
REMARK    3  A    between atoms: C_11  and  C_12
REMARK    4  A    between atoms: C_12  and  C_13
REMARK    5  A    between atoms: C_13  and  N_14
REMARK    6  A    between atoms: N_14  and  S_15
REMARK    7  A    between atoms: S_15  and  C_18
REMARK    8  A    between atoms: C_26  and  O_27
REMARK                            x       y       z     vdW  Elec       q    Type
REMARK                         _______ _______ _______ _____ _____    ______ ____
ROOT
ATOM      1  C   UNL     1       2.636   3.912  18.450  0.00  0.00    +0.000 A 
ATOM      2  C   UNL     1       2.569   2.815  19.317  0.00  0.00    +0.000 A 
ATOM      3  C   UNL     1       2.148   2.990  20.635  0.00  0.00    +0.000 A 
ATOM      4  C   UNL     1       1.818   4.264  21.109  0.00  0.00    +0.000 A 
ATOM      5  C   UNL     1       1.884   5.373  20.256  0.00  0.00    +0.000 A 
ATOM      6  C   UNL     1       2.246   5.176  18.916  0.00  0.00    +0.000 A 
ENDROOT
BRANCH   1   7
ATOM      7  C   UNL     1       3.246   3.779  17.077  0.00  0.00    +0.000 C 
BRANCH   7  12
ATOM      8  O   UNL     1       7.992   4.882  17.712  0.00  0.00    +0.000 OA
ATOM      9  C   UNL     1       6.936   4.586  17.173  0.00  0.00    +0.000 C 
ATOM     10  C   UNL     1       6.737   4.494  15.695  0.00  0.00    +0.000 C 
ATOM     11  C   UNL     1       5.222   4.420  15.580  0.00  0.00    +0.000 C 
ATOM     12  C   UNL     1       4.715   4.109  16.970  0.00  0.00    +0.000 C 
ATOM     13  C   UNL     1       5.689   4.218  17.892  0.00  0.00    +0.000 C 
BRANCH  13  14
ATOM     14  O   UNL     1       5.668   4.042  19.240  0.00  0.00    +0.000 OA
ATOM     15  H   UNL     1       5.519   3.107  19.447  0.00  0.00    +0.000 HD
ENDBRANCH  13  14
ENDBRANCH   7  12
ENDBRANCH   1   7
BRANCH   5  16
ATOM     16  C   UNL     1       1.651   6.775  20.778  0.00  0.00    +0.000 C 
BRANCH  16  17
ATOM     17  C   UNL     1       1.987   7.813  19.698  0.00  0.00    +0.000 C 
BRANCH  17  18
ATOM     18  N   UNL     1       1.172   9.029  19.840  0.00  0.00    +0.000 NA
ATOM     19  H   UNL     1       1.259   9.560  20.707  0.00  0.00    +0.000 HD
BRANCH  18  20
ATOM     20  S   UNL     1       1.186  10.089  18.518  0.00  0.00    +0.000 S 
ATOM     21  O   UNL     1       1.813  11.305  18.984  0.00  0.00    +0.000 OA
ATOM     22  O   UNL     1       1.673   9.366  17.367  0.00  0.00    +0.000 OA
BRANCH  20  23
ATOM     23  C   UNL     1      -0.540  10.443  18.280  0.00  0.00    +0.000 A 
ATOM     24  C   UNL     1      -1.267   9.699  17.345  0.00  0.00    +0.000 A 
ATOM     25  C   UNL     1      -2.634   9.942  17.184  0.00  0.00    +0.000 A 
ATOM     26  C   UNL     1      -3.264  10.916  17.960  0.00  0.00    +0.000 A 
ATOM     27 CL   UNL     1      -4.947  11.207  17.758  0.00  0.00    +0.000 Cl
ATOM     28  C   UNL     1      -2.542  11.651  18.900  0.00  0.00    +0.000 A 
ATOM     29  C   UNL     1      -1.174  11.415  19.065  0.00  0.00    +0.000 A 
ENDBRANCH  20  23
ENDBRANCH  18  20
ENDBRANCH  17  18
ENDBRANCH  16  17
ENDBRANCH   5  16
TORSDOF 8
ENDMDL
MODEL 3
REMARK VINA RESULT:      -8.2      7.136      9.995
REMARK  Name = 
REMARK  8 active torsions:
REMARK  status: ('A' for Active; 'I' for Inactive)
REMARK    1  A    between atoms: C_5  and  C_6
REMARK    2  A    between atoms: C_6  and  C_7
REMARK    3  A    between atoms: C_11  and  C_12
REMARK    4  A    between atoms: C_12  and  C_13
REMARK    5  A    between atoms: C_13  and  N_14
REMARK    6  A    between atoms: N_14  and  S_15
REMARK    7  A    between atoms: S_15  and  C_18
REMARK    8  A    between atoms: C_26  and  O_27
REMARK                            x       y       z     vdW  Elec       q    Type
REMARK                         _______ _______ _______ _____ _____    ______ ____
ROOT
ATOM      1  C   UNL     1       3.323   3.881  19.412  0.00  0.00    +0.000 A 
ATOM      2  C   UNL     1       2.280   2.961  19.569  0.00  0.00    +0.000 A 
ATOM      3  C   UNL     1       1.057   3.372  20.099  0.00  0.00    +0.000 A 
ATOM      4  C   UNL     1       0.873   4.698  20.504  0.00  0.00    +0.000 A 
ATOM      5  C   UNL     1       1.908   5.631  20.359  0.00  0.00    +0.000 A 
ATOM      6  C   UNL     1       3.110   5.221  19.765  0.00  0.00    +0.000 A 
ENDROOT
BRANCH   1   7
ATOM      7  C   UNL     1       4.702   3.427  19.001  0.00  0.00    +0.000 C 
BRANCH   7  12
ATOM      8  O   UNL     1       7.581   6.290  16.233  0.00  0.00    +0.000 OA
ATOM      9  C   UNL     1       6.674   5.543  16.569  0.00  0.00    +0.000 C 
ATOM     10  C   UNL     1       5.532   5.149  15.691  0.00  0.00    +0.000 C 
ATOM     11  C   UNL     1       4.575   4.504  16.681  0.00  0.00    +0.000 C 
ATOM     12  C   UNL     1       5.380   4.255  17.936  0.00  0.00    +0.000 C 
ATOM     13  C   UNL     1       6.581   4.862  17.886  0.00  0.00    +0.000 C 
BRANCH  13  14
ATOM     14  O   UNL     1       7.596   4.908  18.788  0.00  0.00    +0.000 OA
ATOM     15  H   UNL     1       8.432   4.681  18.354  0.00  0.00    +0.000 HD
ENDBRANCH  13  14
ENDBRANCH   7  12
ENDBRANCH   1   7
BRANCH   5  16
ATOM     16  C   UNL     1       1.774   7.038  20.902  0.00  0.00    +0.000 C 
BRANCH  16  17
ATOM     17  C   UNL     1       1.701   8.053  19.753  0.00  0.00    +0.000 C 
BRANCH  17  18
ATOM     18  N   UNL     1       0.982   9.273  20.150  0.00  0.00    +0.000 NA
ATOM     19  H   UNL     1       1.146   9.637  21.088  0.00  0.00    +0.000 HD
BRANCH  18  20
ATOM     20  S   UNL     1       1.006  10.545  19.030  0.00  0.00    +0.000 S 
ATOM     21  O   UNL     1       1.338  11.735  19.782  0.00  0.00    +0.000 OA
ATOM     22  O   UNL     1       1.776  10.121  17.884  0.00  0.00    +0.000 OA
BRANCH  20  23
ATOM     23  C   UNL     1      -0.701  10.682  18.553  0.00  0.00    +0.000 A 
ATOM     24  C   UNL     1      -1.509  11.640  19.175  0.00  0.00    +0.000 A 
ATOM     25  C   UNL     1      -2.840  11.782  18.774  0.00  0.00    +0.000 A 
ATOM     26  C   UNL     1      -3.351  10.976  17.756  0.00  0.00    +0.000 A 
ATOM     27 CL   UNL     1      -4.990  11.159  17.267  0.00  0.00    +0.000 Cl
ATOM     28  C   UNL     1      -2.543  10.027  17.129  0.00  0.00    +0.000 A 
ATOM     29  C   UNL     1      -1.211   9.878  17.525  0.00  0.00    +0.000 A 
ENDBRANCH  20  23
ENDBRANCH  18  20
ENDBRANCH  17  18
ENDBRANCH  16  17
ENDBRANCH   5  16
TORSDOF 8
ENDMDL
MODEL 4
REMARK VINA RESULT:      -8.2      6.521      9.644
REMARK  Name = 
REMARK  8 active torsions:
REMARK  status: ('A' for Active; 'I' for Inactive)
REMARK    1  A    between atoms: C_5  and  C_6
REMARK    2  A    between atoms: C_6  and  C_7
REMARK    3  A    between atoms: C_11  and  C_12
REMARK    4  A    between atoms: C_12  and  C_13
REMARK    5  A    between atoms: C_13  and  N_14
REMARK    6  A    between atoms: N_14  and  S_15
REMARK    7  A    between atoms: S_15  and  C_18
REMARK    8  A    between atoms: C_26  and  O_27
REMARK                            x       y       z     vdW  Elec       q    Type
REMARK                         _______ _______ _______ _____ _____    ______ ____
ROOT
ATOM      1  C   UNL     1       2.968   4.486  18.352  0.00  0.00    +0.000 A 
ATOM      2  C   UNL     1       2.570   3.319  19.014  0.00  0.00    +0.000 A 
ATOM      3  C   UNL     1       1.845   3.401  20.202  0.00  0.00    +0.000 A 
ATOM      4  C   UNL     1       1.535   4.647  20.757  0.00  0.00    +0.000 A 
ATOM      5  C   UNL     1       1.929   5.825  20.110  0.00  0.00    +0.000 A 
ATOM      6  C   UNL     1       2.601   5.731  18.883  0.00  0.00    +0.000 A 
ENDROOT
BRANCH   1   7
ATOM      7  C   UNL     1       3.893   4.426  17.162  0.00  0.00    +0.000 C 
BRANCH   7  12
ATOM      8  O   UNL     1       7.847   7.308  16.708  0.00  0.00    +0.000 OA
ATOM      9  C   UNL     1       7.036   6.525  17.179  0.00  0.00    +0.000 C 
ATOM     10  C   UNL     1       7.208   5.805  18.476  0.00  0.00    +0.000 C 
ATOM     11  C   UNL     1       6.104   4.759  18.410  0.00  0.00    +0.000 C 
ATOM     12  C   UNL     1       5.187   5.194  17.290  0.00  0.00    +0.000 C 
ATOM     13  C   UNL     1       5.721   6.197  16.568  0.00  0.00    +0.000 C 
BRANCH  13  14
ATOM     14  O   UNL     1       5.250   6.868  15.484  0.00  0.00    +0.000 OA
ATOM     15  H   UNL     1       5.982   7.080  14.886  0.00  0.00    +0.000 HD
ENDBRANCH  13  14
ENDBRANCH   7  12
ENDBRANCH   1   7
BRANCH   5  16
ATOM     16  C   UNL     1       1.713   7.179  20.752  0.00  0.00    +0.000 C 
BRANCH  16  17
ATOM     17  C   UNL     1       1.571   8.267  19.677  0.00  0.00    +0.000 C 
BRANCH  17  18
ATOM     18  N   UNL     1       1.066   9.527  20.243  0.00  0.00    +0.000 NA
ATOM     19  H   UNL     1       1.434   9.822  21.148  0.00  0.00    +0.000 HD
BRANCH  18  20
ATOM     20  S   UNL     1       1.023  10.850  19.185  0.00  0.00    +0.000 S 
ATOM     21  O   UNL     1       1.246  12.023  19.999  0.00  0.00    +0.000 OA
ATOM     22  O   UNL     1       1.851  10.538  18.043  0.00  0.00    +0.000 OA
BRANCH  20  23
ATOM     23  C   UNL     1      -0.677  10.882  18.666  0.00  0.00    +0.000 A 
ATOM     24  C   UNL     1      -1.553  11.802  19.252  0.00  0.00    +0.000 A 
ATOM     25  C   UNL     1      -2.880  11.863  18.818  0.00  0.00    +0.000 A 
ATOM     26  C   UNL     1      -3.319  11.013  17.802  0.00  0.00    +0.000 A 
ATOM     27 CL   UNL     1      -4.954  11.095  17.272  0.00  0.00    +0.000 Cl
ATOM     28  C   UNL     1      -2.444  10.102  17.210  0.00  0.00    +0.000 A 
ATOM     29  C   UNL     1      -1.116  10.035  17.640  0.00  0.00    +0.000 A 
ENDBRANCH  20  23
ENDBRANCH  18  20
ENDBRANCH  17  18
ENDBRANCH  16  17
ENDBRANCH   5  16
TORSDOF 8
ENDMDL
MODEL 5
REMARK VINA RESULT:      -8.2      7.719     10.436
REMARK  Name = 
REMARK  8 active torsions:
REMARK  status: ('A' for Active; 'I' for Inactive)
REMARK    1  A    between atoms: C_5  and  C_6
REMARK    2  A    between atoms: C_6  and  C_7
REMARK    3  A    between atoms: C_11  and  C_12
REMARK    4  A    between atoms: C_12  and  C_13
REMARK    5  A    between atoms: C_13  and  N_14
REMARK    6  A    between atoms: N_14  and  S_15
REMARK    7  A    between atoms: S_15  and  C_18
REMARK    8  A    between atoms: C_26  and  O_27
REMARK                            x       y       z     vdW  Elec       q    Type
REMARK                         _______ _______ _______ _____ _____    ______ ____
ROOT
ATOM      1  C   UNL     1       2.486   4.354  18.336  0.00  0.00    +0.000 A 
ATOM      2  C   UNL     1       2.105   3.576  19.436  0.00  0.00    +0.000 A 
ATOM      3  C   UNL     1       1.658   4.190  20.606  0.00  0.00    +0.000 A 
ATOM      4  C   UNL     1       1.615   5.584  20.700  0.00  0.00    +0.000 A 
ATOM      5  C   UNL     1       1.996   6.378  19.610  0.00  0.00    +0.000 A 
ATOM      6  C   UNL     1       2.382   5.749  18.418  0.00  0.00    +0.000 A 
ENDROOT
BRANCH   1   7
ATOM      7  C   UNL     1       3.129   3.723  17.126  0.00  0.00    +0.000 C 
BRANCH   7  12
ATOM      8  O   UNL     1       7.950   4.615  17.447  0.00  0.00    +0.000 OA
ATOM      9  C   UNL     1       6.842   4.412  16.976  0.00  0.00    +0.000 C 
ATOM     10  C   UNL     1       6.511   4.497  15.521  0.00  0.00    +0.000 C 
ATOM     11  C   UNL     1       4.989   4.478  15.537  0.00  0.00    +0.000 C 
ATOM     12  C   UNL     1       4.595   4.023  16.924  0.00  0.00    +0.000 C 
ATOM     13  C   UNL     1       5.649   3.998  17.760  0.00  0.00    +0.000 C 
BRANCH  13  14
ATOM     14  O   UNL     1       5.740   3.668  19.075  0.00  0.00    +0.000 OA
ATOM     15  H   UNL     1       6.669   3.561  19.323  0.00  0.00    +0.000 HD
ENDBRANCH  13  14
ENDBRANCH   7  12
ENDBRANCH   1   7
BRANCH   5  16
ATOM     16  C   UNL     1       2.074   7.886  19.731  0.00  0.00    +0.000 C 
BRANCH  16  17
ATOM     17  C   UNL     1       1.444   8.352  21.051  0.00  0.00    +0.000 C 
BRANCH  17  18
ATOM     18  N   UNL     1       0.109   8.932  20.841  0.00  0.00    +0.000 NA
ATOM     19  H   UNL     1      -0.660   8.571  21.406  0.00  0.00    +0.000 HD
BRANCH  18  20
ATOM     20  S   UNL     1       0.036  10.624  20.790  0.00  0.00    +0.000 S 
ATOM     21  O   UNL     1      -0.507  11.041  22.063  0.00  0.00    +0.000 OA
ATOM     22  O   UNL     1       1.303  11.114  20.298  0.00  0.00    +0.000 OA
BRANCH  20  23
ATOM     23  C   UNL     1      -1.210  10.927  19.559  0.00  0.00    +0.000 A 
ATOM     24  C   UNL     1      -1.172  10.210  18.358  0.00  0.00    +0.000 A 
ATOM     25  C   UNL     1      -2.173  10.412  17.404  0.00  0.00    +0.000 A 
ATOM     26  C   UNL     1      -3.204  11.317  17.657  0.00  0.00    +0.000 A 
ATOM     27 CL   UNL     1      -4.433  11.557  16.478  0.00  0.00    +0.000 Cl
ATOM     28  C   UNL     1      -3.249  12.025  18.859  0.00  0.00    +0.000 A 
ATOM     29  C   UNL     1      -2.250  11.830  19.817  0.00  0.00    +0.000 A 
ENDBRANCH  20  23
ENDBRANCH  18  20
ENDBRANCH  17  18
ENDBRANCH  16  17
ENDBRANCH   5  16
TORSDOF 8
ENDMDL
MODEL 6
REMARK VINA RESULT:      -8.1      7.542      9.630
REMARK  Name = 
REMARK  8 active torsions:
REMARK  status: ('A' for Active; 'I' for Inactive)
REMARK    1  A    between atoms: C_5  and  C_6
REMARK    2  A    between atoms: C_6  and  C_7
REMARK    3  A    between atoms: C_11  and  C_12
REMARK    4  A    between atoms: C_12  and  C_13
REMARK    5  A    between atoms: C_13  and  N_14
REMARK    6  A    between atoms: N_14  and  S_15
REMARK    7  A    between atoms: S_15  and  C_18
REMARK    8  A    between atoms: C_26  and  O_27
REMARK                            x       y       z     vdW  Elec       q    Type
REMARK                         _______ _______ _______ _____ _____    ______ ____
ROOT
ATOM      1  C   UNL     1      -0.019  10.677  19.976  0.00  0.00    +0.000 A 
ATOM      2  C   UNL     1      -0.517  11.117  21.208  0.00  0.00    +0.000 A 
ATOM      3  C   UNL     1      -0.305  10.359  22.359  0.00  0.00    +0.000 A 
ATOM      4  C   UNL     1       0.381   9.143  22.288  0.00  0.00    +0.000 A 
ATOM      5  C   UNL     1       0.883   8.685  21.063  0.00  0.00    +0.000 A 
ATOM      6  C   UNL     1       0.719   9.486  19.923  0.00  0.00    +0.000 A 
ENDROOT
BRANCH   1   7
ATOM      7  C   UNL     1      -0.378  11.389  18.695  0.00  0.00    +0.000 C 
BRANCH   7  12
ATOM      8  O   UNL     1      -5.129  10.975  17.512  0.00  0.00    +0.000 OA
ATOM      9  C   UNL     1      -3.915  10.844  17.481  0.00  0.00    +0.000 C 
ATOM     10  C   UNL     1      -3.185   9.943  16.539  0.00  0.00    +0.000 C 
ATOM     11  C   UNL     1      -1.785   9.924  17.136  0.00  0.00    +0.000 C 
ATOM     12  C   UNL     1      -1.738  11.070  18.120  0.00  0.00    +0.000 C 
ATOM     13  C   UNL     1      -2.959  11.593  18.336  0.00  0.00    +0.000 C 
BRANCH  13  14
ATOM     14  O   UNL     1      -3.366  12.611  19.140  0.00  0.00    +0.000 OA
ATOM     15  H   UNL     1      -2.933  13.435  18.872  0.00  0.00    +0.000 HD
ENDBRANCH  13  14
ENDBRANCH   7  12
ENDBRANCH   1   7
BRANCH   5  16
ATOM     16  C   UNL     1       1.519   7.316  20.940  0.00  0.00    +0.000 C 
BRANCH  16  17
ATOM     17  C   UNL     1       2.319   7.211  19.634  0.00  0.00    +0.000 C 
BRANCH  17  18
ATOM     18  N   UNL     1       3.325   6.140  19.698  0.00  0.00    +0.000 NA
ATOM     19  H   UNL     1       3.680   5.877  20.618  0.00  0.00    +0.000 HD
BRANCH  18  20
ATOM     20  S   UNL     1       2.981   4.746  18.797  0.00  0.00    +0.000 S 
ATOM     21  O   UNL     1       3.355   3.627  19.632  0.00  0.00    +0.000 OA
ATOM     22  O   UNL     1       1.654   4.884  18.245  0.00  0.00    +0.000 OA
BRANCH  20  23
ATOM     23  C   UNL     1       4.162   4.834  17.472  0.00  0.00    +0.000 A 
ATOM     24  C   UNL     1       4.678   3.649  16.937  0.00  0.00    +0.000 A 
ATOM     25  C   UNL     1       5.574   3.709  15.866  0.00  0.00    +0.000 A 
ATOM     26  C   UNL     1       5.941   4.946  15.334  0.00  0.00    +0.000 A 
ATOM     27 CL   UNL     1       7.042   5.012  14.014  0.00  0.00    +0.000 Cl
ATOM     28  C   UNL     1       5.419   6.128  15.860  0.00  0.00    +0.000 A 
ATOM     29  C   UNL     1       4.524   6.076  16.933  0.00  0.00    +0.000 A 
ENDBRANCH  20  23
ENDBRANCH  18  20
ENDBRANCH  17  18
ENDBRANCH  16  17
ENDBRANCH   5  16
TORSDOF 8
ENDMDL
MODEL 7
REMARK VINA RESULT:      -8.1      7.376      9.997
REMARK  Name = 
REMARK  8 active torsions:
REMARK  status: ('A' for Active; 'I' for Inactive)
REMARK    1  A    between atoms: C_5  and  C_6
REMARK    2  A    between atoms: C_6  and  C_7
REMARK    3  A    between atoms: C_11  and  C_12
REMARK    4  A    between atoms: C_12  and  C_13
REMARK    5  A    between atoms: C_13  and  N_14
REMARK    6  A    between atoms: N_14  and  S_15
REMARK    7  A    between atoms: S_15  and  C_18
REMARK    8  A    between atoms: C_26  and  O_27
REMARK                            x       y       z     vdW  Elec       q    Type
REMARK                         _______ _______ _______ _____ _____    ______ ____
ROOT
ATOM      1  C   UNL     1       3.110   6.315  18.250  0.00  0.00    +0.000 A 
ATOM      2  C   UNL     1       2.977   4.961  18.577  0.00  0.00    +0.000 A 
ATOM      3  C   UNL     1       2.240   4.581  19.698  0.00  0.00    +0.000 A 
ATOM      4  C   UNL     1       1.652   5.548  20.519  0.00  0.00    +0.000 A 
ATOM      5  C   UNL     1       1.779   6.908  20.209  0.00  0.00    +0.000 A 
ATOM      6  C   UNL     1       2.468   7.276  19.045  0.00  0.00    +0.000 A 
ENDROOT
BRANCH   1   7
ATOM      7  C   UNL     1       4.038   6.759  17.147  0.00  0.00    +0.000 C 
BRANCH   7  12
ATOM      8  O   UNL     1       8.219   4.181  17.262  0.00  0.00    +0.000 OA
ATOM      9  C   UNL     1       7.148   4.629  16.882  0.00  0.00    +0.000 C 
ATOM     10  C   UNL     1       6.552   4.372  15.536  0.00  0.00    +0.000 C 
ATOM     11  C   UNL     1       5.428   5.396  15.484  0.00  0.00    +0.000 C 
ATOM     12  C   UNL     1       5.243   5.883  16.903  0.00  0.00    +0.000 C 
ATOM     13  C   UNL     1       6.235   5.461  17.708  0.00  0.00    +0.000 C 
BRANCH  13  14
ATOM     14  O   UNL     1       6.464   5.673  19.031  0.00  0.00    +0.000 OA
ATOM     15  H   UNL     1       7.391   5.483  19.238  0.00  0.00    +0.000 HD
ENDBRANCH  13  14
ENDBRANCH   7  12
ENDBRANCH   1   7
BRANCH   5  16
ATOM     16  C   UNL     1       1.258   7.976  21.149  0.00  0.00    +0.000 C 
BRANCH  16  17
ATOM     17  C   UNL     1       0.880   9.242  20.366  0.00  0.00    +0.000 C 
BRANCH  17  18
ATOM     18  N   UNL     1      -0.344   9.863  20.895  0.00  0.00    +0.000 NA
ATOM     19  H   UNL     1      -0.482   9.854  21.905  0.00  0.00    +0.000 HD
BRANCH  18  20
ATOM     20  S   UNL     1      -0.723  11.396  20.279  0.00  0.00    +0.000 S 
ATOM     21  O   UNL     1      -1.646  11.989  21.220  0.00  0.00    +0.000 OA
ATOM     22  O   UNL     1       0.511  12.045  19.901  0.00  0.00    +0.000 OA
BRANCH  20  23
ATOM     23  C   UNL     1      -1.641  11.012  18.807  0.00  0.00    +0.000 A 
ATOM     24  C   UNL     1      -2.841  11.688  18.555  0.00  0.00    +0.000 A 
ATOM     25  C   UNL     1      -3.546  11.422  17.379  0.00  0.00    +0.000 A 
ATOM     26  C   UNL     1      -3.048  10.495  16.462  0.00  0.00    +0.000 A 
ATOM     27 CL   UNL     1      -3.921  10.176  15.015  0.00  0.00    +0.000 Cl
ATOM     28  C   UNL     1      -1.847   9.829  16.708  0.00  0.00    +0.000 A 
ATOM     29  C   UNL     1      -1.137  10.088  17.884  0.00  0.00    +0.000 A 
ENDBRANCH  20  23
ENDBRANCH  18  20
ENDBRANCH  17  18
ENDBRANCH  16  17
ENDBRANCH   5  16
TORSDOF 8
ENDMDL
MODEL 8
REMARK VINA RESULT:      -8.1      7.216     10.873
REMARK  Name = 
REMARK  8 active torsions:
REMARK  status: ('A' for Active; 'I' for Inactive)
REMARK    1  A    between atoms: C_5  and  C_6
REMARK    2  A    between atoms: C_6  and  C_7
REMARK    3  A    between atoms: C_11  and  C_12
REMARK    4  A    between atoms: C_12  and  C_13
REMARK    5  A    between atoms: C_13  and  N_14
REMARK    6  A    between atoms: N_14  and  S_15
REMARK    7  A    between atoms: S_15  and  C_18
REMARK    8  A    between atoms: C_26  and  O_27
REMARK                            x       y       z     vdW  Elec       q    Type
REMARK                         _______ _______ _______ _____ _____    ______ ____
ROOT
ATOM      1  C   UNL     1       4.138   4.152  17.092  0.00  0.00    +0.000 A 
ATOM      2  C   UNL     1       5.104   4.164  16.079  0.00  0.00    +0.000 A 
ATOM      3  C   UNL     1       5.603   5.375  15.601  0.00  0.00    +0.000 A 
ATOM      4  C   UNL     1       5.123   6.586  16.108  0.00  0.00    +0.000 A 
ATOM      5  C   UNL     1       4.153   6.594  17.119  0.00  0.00    +0.000 A 
ATOM      6  C   UNL     1       3.706   5.370  17.636  0.00  0.00    +0.000 A 
ENDROOT
BRANCH   1   7
ATOM      7  C   UNL     1       3.463   2.869  17.506  0.00  0.00    +0.000 C 
BRANCH   7  12
ATOM      8  O   UNL     1       2.577   2.362  22.312  0.00  0.00    +0.000 OA
ATOM      9  C   UNL     1       2.436   2.663  21.137  0.00  0.00    +0.000 C 
ATOM     10  C   UNL     1       1.188   3.242  20.555  0.00  0.00    +0.000 C 
ATOM     11  C   UNL     1       1.444   3.116  19.060  0.00  0.00    +0.000 C 
ATOM     12  C   UNL     1       2.921   2.830  18.914  0.00  0.00    +0.000 C 
ATOM     13  C   UNL     1       3.494   2.553  20.100  0.00  0.00    +0.000 C 
BRANCH  13  14
ATOM     14  O   UNL     1       4.776   2.233  20.419  0.00  0.00    +0.000 OA
ATOM     15  H   UNL     1       5.362   2.976  20.212  0.00  0.00    +0.000 HD
ENDBRANCH  13  14
ENDBRANCH   7  12
ENDBRANCH   1   7
BRANCH   5  16
ATOM     16  C   UNL     1       3.531   7.890  17.595  0.00  0.00    +0.000 C 
BRANCH  16  17
ATOM     17  C   UNL     1       2.193   7.616  18.298  0.00  0.00    +0.000 C 
BRANCH  17  18
ATOM     18  N   UNL     1       1.835   8.700  19.225  0.00  0.00    +0.000 NA
ATOM     19  H   UNL     1       2.534   8.989  19.911  0.00  0.00    +0.000 HD
BRANCH  18  20
ATOM     20  S   UNL     1       1.121  10.069  18.525  0.00  0.00    +0.000 S 
ATOM     21  O   UNL     1       2.205  10.847  17.970  0.00  0.00    +0.000 OA
ATOM     22  O   UNL     1       0.001   9.631  17.725  0.00  0.00    +0.000 OA
BRANCH  20  23
ATOM     23  C   UNL     1       0.502  10.955  19.936  0.00  0.00    +0.000 A 
ATOM     24  C   UNL     1       0.842  12.303  20.099  0.00  0.00    +0.000 A 
ATOM     25  C   UNL     1       0.323  13.017  21.182  0.00  0.00    +0.000 A 
ATOM     26  C   UNL     1      -0.531  12.386  22.087  0.00  0.00    +0.000 A 
ATOM     27 CL   UNL     1      -1.167  13.273  23.417  0.00  0.00    +0.000 Cl
ATOM     28  C   UNL     1      -0.878  11.045  21.920  0.00  0.00    +0.000 A 
ATOM     29  C   UNL     1      -0.362  10.324  20.840  0.00  0.00    +0.000 A 
ENDBRANCH  20  23
ENDBRANCH  18  20
ENDBRANCH  17  18
ENDBRANCH  16  17
ENDBRANCH   5  16
TORSDOF 8
ENDMDL
MODEL 9
REMARK VINA RESULT:      -8.0      7.024      9.855
REMARK  Name = 
REMARK  8 active torsions:
REMARK  status: ('A' for Active; 'I' for Inactive)
REMARK    1  A    between atoms: C_5  and  C_6
REMARK    2  A    between atoms: C_6  and  C_7
REMARK    3  A    between atoms: C_11  and  C_12
REMARK    4  A    between atoms: C_12  and  C_13
REMARK    5  A    between atoms: C_13  and  N_14
REMARK    6  A    between atoms: N_14  and  S_15
REMARK    7  A    between atoms: S_15  and  C_18
REMARK    8  A    between atoms: C_26  and  O_27
REMARK                            x       y       z     vdW  Elec       q    Type
REMARK                         _______ _______ _______ _____ _____    ______ ____
ROOT
ATOM      1  C   UNL     1       2.812   4.222  18.400  0.00  0.00    +0.000 A 
ATOM      2  C   UNL     1       2.985   3.126  19.253  0.00  0.00    +0.000 A 
ATOM      3  C   UNL     1       2.646   3.229  20.602  0.00  0.00    +0.000 A 
ATOM      4  C   UNL     1       2.160   4.434  21.118  0.00  0.00    +0.000 A 
ATOM      5  C   UNL     1       1.985   5.542  20.280  0.00  0.00    +0.000 A 
ATOM      6  C   UNL     1       2.268   5.408  18.913  0.00  0.00    +0.000 A 
ENDROOT
BRANCH   1   7
ATOM      7  C   UNL     1       3.326   4.190  16.982  0.00  0.00    +0.000 C 
BRANCH   7  12
ATOM      8  O   UNL     1       7.488   6.750  16.462  0.00  0.00    +0.000 OA
ATOM      9  C   UNL     1       6.713   5.809  16.552  0.00  0.00    +0.000 C 
ATOM     10  C   UNL     1       7.090   4.379  16.342  0.00  0.00    +0.000 C 
ATOM     11  C   UNL     1       5.731   3.700  16.253  0.00  0.00    +0.000 C 
ATOM     12  C   UNL     1       4.729   4.705  16.775  0.00  0.00    +0.000 C 
ATOM     13  C   UNL     1       5.281   5.922  16.933  0.00  0.00    +0.000 C 
BRANCH  13  14
ATOM     14  O   UNL     1       4.747   7.097  17.360  0.00  0.00    +0.000 OA
ATOM     15  H   UNL     1       5.135   7.343  18.213  0.00  0.00    +0.000 HD
ENDBRANCH  13  14
ENDBRANCH   7  12
ENDBRANCH   1   7
BRANCH   5  16
ATOM     16  C   UNL     1       1.578   6.889  20.839  0.00  0.00    +0.000 C 
BRANCH  16  17
ATOM     17  C   UNL     1       1.887   8.005  19.831  0.00  0.00    +0.000 C 
BRANCH  17  18
ATOM     18  N   UNL     1       0.906   9.098  19.912  0.00  0.00    +0.000 NA
ATOM     19  H   UNL     1       0.789   9.565  20.811  0.00  0.00    +0.000 HD
BRANCH  18  20
ATOM     20  S   UNL     1       0.977  10.251  18.672  0.00  0.00    +0.000 S 
ATOM     21  O   UNL     1       1.516  11.451  19.271  0.00  0.00    +0.000 OA
ATOM     22  O   UNL     1       1.582   9.631  17.516  0.00  0.00    +0.000 OA
BRANCH  20  23
ATOM     23  C   UNL     1      -0.738  10.559  18.323  0.00  0.00    +0.000 A 
ATOM     24  C   UNL     1      -1.377   9.813  17.325  0.00  0.00    +0.000 A 
ATOM     25  C   UNL     1      -2.736  10.020  17.075  0.00  0.00    +0.000 A 
ATOM     26  C   UNL     1      -3.447  10.959  17.824  0.00  0.00    +0.000 A 
ATOM     27 CL   UNL     1      -5.120  11.205  17.511  0.00  0.00    +0.000 Cl
ATOM     28  C   UNL     1      -2.813  11.696  18.825  0.00  0.00    +0.000 A 
ATOM     29  C   UNL     1      -1.453  11.496  19.079  0.00  0.00    +0.000 A 
ENDBRANCH  20  23
ENDBRANCH  18  20
ENDBRANCH  17  18
ENDBRANCH  16  17
ENDBRANCH   5  16
TORSDOF 8
ENDMDL
