MODEL 1
REMARK VINA RESULT:      -7.8      0.000      0.000
REMARK  Name = 
REMARK  5 active torsions:
REMARK  status: ('A' for Active; 'I' for Inactive)
REMARK    1  A    between atoms: C_2  and  C_3
REMARK    2  A    between atoms: C_2  and  O_17
REMARK    3  A    between atoms: C_4  and  N_5
REMARK    4  A    between atoms: C_8  and  C_9
REMARK    5  A    between atoms: O_17  and  C_18
REMARK                            x       y       z     vdW  Elec       q    Type
REMARK                         _______ _______ _______ _____ _____    ______ ____
ROOT
ATOM      1  N   UNL     1       5.964   5.073  17.936  0.00  0.00    +0.000 N 
ATOM      2  C   UNL     1       7.304   4.749  18.030  0.00  0.00    +0.000 A 
ATOM      3  N   UNL     1       7.805   4.449  16.858  0.00  0.00    +0.000 NA
ATOM      4  C   UNL     1       6.722   4.560  16.030  0.00  0.00    +0.000 A 
ATOM      5  N   UNL     1       5.566   4.788  16.669  0.00  0.00    +0.000 NA
ENDROOT
BRANCH   4   6
ATOM      6  C   UNL     1       6.848   4.469  14.582  0.00  0.00    +0.000 A 
ATOM      7  C   UNL     1       7.728   5.320  13.894  0.00  0.00    +0.000 A 
ATOM      8  C   UNL     1       7.825   5.268  12.502  0.00  0.00    +0.000 A 
ATOM      9  C   UNL     1       7.039   4.367  11.785  0.00  0.00    +0.000 A 
ATOM     10  C   UNL     1       6.158   3.526  12.462  0.00  0.00    +0.000 A 
ATOM     11 CL   UNL     1       5.174   2.427  11.574  0.00  0.00    +0.000 Cl
ATOM     12  C   UNL     1       6.059   3.571  13.851  0.00  0.00    +0.000 A 
ENDBRANCH   4   6
BRANCH   1  14
ATOM     13  C   UNL     1       4.254   4.858  19.718  0.00  0.00    +0.000 C 
ATOM     14  C   UNL     1       5.109   5.539  18.938  0.00  0.00    +0.000 C 
BRANCH  13  16
ATOM     15  O   UNL     1       5.197   2.663  19.831  0.00  0.00    +0.000 OA
ATOM     16  C   UNL     1       4.217   3.385  19.828  0.00  0.00    +0.000 C 
BRANCH  16  17
ATOM     17  O   UNL     1       2.932   2.988  19.946  0.00  0.00    +0.000 OA
BRANCH  17  18
ATOM     18  C   UNL     1       2.455   2.168  18.858  0.00  0.00    +0.000 C 
ATOM     19  C   UNL     1       2.843   2.768  17.525  0.00  0.00    +0.000 C 
ATOM     20  C   UNL     1       1.799   3.848  17.344  0.00  0.00    +0.000 C 
ATOM     21  O   UNL     1       0.600   3.381  17.978  0.00  0.00    +0.000 OA
ATOM     22  C   UNL     1       0.938   2.262  18.818  0.00  0.00    +0.000 C 
ENDBRANCH  17  18
ENDBRANCH  16  17
ENDBRANCH  13  16
ENDBRANCH   1  14
TORSDOF 5
ENDMDL
MODEL 2
REMARK VINA RESULT:      -7.8      1.020      1.324
REMARK  Name = 
REMARK  5 active torsions:
REMARK  status: ('A' for Active; 'I' for Inactive)
REMARK    1  A    between atoms: C_2  and  C_3
REMARK    2  A    between atoms: C_2  and  O_17
REMARK    3  A    between atoms: C_4  and  N_5
REMARK    4  A    between atoms: C_8  and  C_9
REMARK    5  A    between atoms: O_17  and  C_18
REMARK                            x       y       z     vdW  Elec       q    Type
REMARK                         _______ _______ _______ _____ _____    ______ ____
ROOT
ATOM      1  N   UNL     1       6.086   5.017  17.857  0.00  0.00    +0.000 N 
ATOM      2  C   UNL     1       7.452   4.809  17.897  0.00  0.00    +0.000 A 
ATOM      3  N   UNL     1       7.927   4.543  16.706  0.00  0.00    +0.000 NA
ATOM      4  C   UNL     1       6.806   4.556  15.923  0.00  0.00    +0.000 A 
ATOM      5  N   UNL     1       5.662   4.690  16.609  0.00  0.00    +0.000 NA
ENDROOT
BRANCH   4   6
ATOM      6  C   UNL     1       6.879   4.465  14.471  0.00  0.00    +0.000 A 
ATOM      7  C   UNL     1       7.758   5.293  13.755  0.00  0.00    +0.000 A 
ATOM      8  C   UNL     1       7.805   5.243  12.360  0.00  0.00    +0.000 A 
ATOM      9  C   UNL     1       6.970   4.366  11.669  0.00  0.00    +0.000 A 
ATOM     10  C   UNL     1       6.090   3.548  12.375  0.00  0.00    +0.000 A 
ATOM     11 CL   UNL     1       5.046   2.479  11.520  0.00  0.00    +0.000 Cl
ATOM     12  C   UNL     1       6.041   3.592  13.767  0.00  0.00    +0.000 A 
ENDBRANCH   4   6
BRANCH   1  14
ATOM     13  C   UNL     1       4.357   4.693  19.605  0.00  0.00    +0.000 C 
ATOM     14  C   UNL     1       5.237   5.416  18.893  0.00  0.00    +0.000 C 
BRANCH  13  16
ATOM     15  O   UNL     1       5.084   2.470  20.107  0.00  0.00    +0.000 OA
ATOM     16  C   UNL     1       4.279   3.217  19.583  0.00  0.00    +0.000 C 
BRANCH  16  17
ATOM     17  O   UNL     1       3.166   2.849  18.913  0.00  0.00    +0.000 OA
BRANCH  17  18
ATOM     18  C   UNL     1       2.165   2.200  19.725  0.00  0.00    +0.000 C 
ATOM     19  C   UNL     1       0.781   2.694  19.364  0.00  0.00    +0.000 C 
ATOM     20  C   UNL     1       0.711   4.015  20.099  0.00  0.00    +0.000 C 
ATOM     21  O   UNL     1       1.500   3.875  21.287  0.00  0.00    +0.000 OA
ATOM     22  C   UNL     1       2.314   2.695  21.155  0.00  0.00    +0.000 C 
ENDBRANCH  17  18
ENDBRANCH  16  17
ENDBRANCH  13  16
ENDBRANCH   1  14
TORSDOF 5
ENDMDL
MODEL 3
REMARK VINA RESULT:      -7.7      1.458      2.316
REMARK  Name = 
REMARK  5 active torsions:
REMARK  status: ('A' for Active; 'I' for Inactive)
REMARK    1  A    between atoms: C_2  and  C_3
REMARK    2  A    between atoms: C_2  and  O_17
REMARK    3  A    between atoms: C_4  and  N_5
REMARK    4  A    between atoms: C_8  and  C_9
REMARK    5  A    between atoms: O_17  and  C_18
REMARK                            x       y       z     vdW  Elec       q    Type
REMARK                         _______ _______ _______ _____ _____    ______ ____
ROOT
ATOM      1  N   UNL     1       4.891   6.032  17.345  0.00  0.00    +0.000 N 
ATOM      2  C   UNL     1       6.049   5.466  17.845  0.00  0.00    +0.000 A 
ATOM      3  N   UNL     1       6.739   4.881  16.898  0.00  0.00    +0.000 NA
ATOM      4  C   UNL     1       5.956   5.070  15.793  0.00  0.00    +0.000 A 
ATOM      5  N   UNL     1       4.765   5.628  16.055  0.00  0.00    +0.000 NA
ENDROOT
BRANCH   4   6
ATOM      6  C   UNL     1       6.413   4.718  14.455  0.00  0.00    +0.000 A 
ATOM      7  C   UNL     1       7.492   5.402  13.874  0.00  0.00    +0.000 A 
ATOM      8  C   UNL     1       7.911   5.100  12.576  0.00  0.00    +0.000 A 
ATOM      9  C   UNL     1       7.251   4.112  11.847  0.00  0.00    +0.000 A 
ATOM     10  C   UNL     1       6.174   3.434  12.417  0.00  0.00    +0.000 A 
ATOM     11 CL   UNL     1       5.349   2.227  11.509  0.00  0.00    +0.000 Cl
ATOM     12  C   UNL     1       5.754   3.730  13.712  0.00  0.00    +0.000 A 
ENDBRANCH   4   6
BRANCH   1  14
ATOM     13  C   UNL     1       2.706   6.510  18.415  0.00  0.00    +0.000 C 
ATOM     14  C   UNL     1       3.950   6.819  18.014  0.00  0.00    +0.000 C 
BRANCH  13  16
ATOM     15  O   UNL     1       1.556   4.622  17.503  0.00  0.00    +0.000 OA
ATOM     16  C   UNL     1       2.150   5.141  18.429  0.00  0.00    +0.000 C 
BRANCH  16  17
ATOM     17  O   UNL     1       2.433   4.568  19.618  0.00  0.00    +0.000 OA
BRANCH  17  18
ATOM     18  C   UNL     1       2.402   3.124  19.610  0.00  0.00    +0.000 C 
ATOM     19  C   UNL     1       1.146   2.613  20.281  0.00  0.00    +0.000 C 
ATOM     20  C   UNL     1       1.498   2.729  21.748  0.00  0.00    +0.000 C 
ATOM     21  O   UNL     1       2.911   2.514  21.858  0.00  0.00    +0.000 OA
ATOM     22  C   UNL     1       3.489   2.617  20.544  0.00  0.00    +0.000 C 
ENDBRANCH  17  18
ENDBRANCH  16  17
ENDBRANCH  13  16
ENDBRANCH   1  14
TORSDOF 5
ENDMDL
MODEL 4
REMARK VINA RESULT:      -7.6      1.503      1.883
REMARK  Name = 
REMARK  5 active torsions:
REMARK  status: ('A' for Active; 'I' for Inactive)
REMARK    1  A    between atoms: C_2  and  C_3
REMARK    2  A    between atoms: C_2  and  O_17
REMARK    3  A    between atoms: C_4  and  N_5
REMARK    4  A    between atoms: C_8  and  C_9
REMARK    5  A    between atoms: O_17  and  C_18
REMARK                            x       y       z     vdW  Elec       q    Type
REMARK                         _______ _______ _______ _____ _____    ______ ____
ROOT
ATOM      1  N   UNL     1       6.403   5.333  17.932  0.00  0.00    +0.000 N 
ATOM      2  C   UNL     1       7.076   6.498  17.612  0.00  0.00    +0.000 A 
ATOM      3  N   UNL     1       7.442   6.506  16.355  0.00  0.00    +0.000 NA
ATOM      4  C   UNL     1       7.006   5.290  15.906  0.00  0.00    +0.000 A 
ATOM      5  N   UNL     1       6.510   4.498  16.867  0.00  0.00    +0.000 NA
ENDROOT
BRANCH   4   6
ATOM      6  C   UNL     1       7.056   4.926  14.496  0.00  0.00    +0.000 A 
ATOM      7  C   UNL     1       7.924   5.601  13.623  0.00  0.00    +0.000 A 
ATOM      8  C   UNL     1       7.949   5.288  12.262  0.00  0.00    +0.000 A 
ATOM      9  C   UNL     1       7.103   4.298  11.762  0.00  0.00    +0.000 A 
ATOM     10  C   UNL     1       6.235   3.630  12.624  0.00  0.00    +0.000 A 
ATOM     11 CL   UNL     1       5.178   2.422  12.003  0.00  0.00    +0.000 Cl
ATOM     12  C   UNL     1       6.207   3.937  13.983  0.00  0.00    +0.000 A 
ENDBRANCH   4   6
BRANCH   1  14
ATOM     13  C   UNL     1       4.471   5.008  19.451  0.00  0.00    +0.000 C 
ATOM     14  C   UNL     1       5.776   4.994  19.133  0.00  0.00    +0.000 C 
BRANCH  13  16
ATOM     15  O   UNL     1       3.094   6.218  17.915  0.00  0.00    +0.000 OA
ATOM     16  C   UNL     1       3.376   5.174  18.473  0.00  0.00    +0.000 C 
BRANCH  16  17
ATOM     17  O   UNL     1       2.770   3.982  18.290  0.00  0.00    +0.000 OA
BRANCH  17  18
ATOM     18  C   UNL     1       1.391   3.939  18.714  0.00  0.00    +0.000 C 
ATOM     19  C   UNL     1       1.266   4.328  20.171  0.00  0.00    +0.000 C 
ATOM     20  C   UNL     1       1.661   3.050  20.878  0.00  0.00    +0.000 C 
ATOM     21  O   UNL     1       1.246   1.963  20.040  0.00  0.00    +0.000 OA
ATOM     22  C   UNL     1       0.942   2.487  18.735  0.00  0.00    +0.000 C 
ENDBRANCH  17  18
ENDBRANCH  16  17
ENDBRANCH  13  16
ENDBRANCH   1  14
TORSDOF 5
ENDMDL
MODEL 5
REMARK VINA RESULT:      -7.3      4.633      7.021
REMARK  Name = 
REMARK  5 active torsions:
REMARK  status: ('A' for Active; 'I' for Inactive)
REMARK    1  A    between atoms: C_2  and  C_3
REMARK    2  A    between atoms: C_2  and  O_17
REMARK    3  A    between atoms: C_4  and  N_5
REMARK    4  A    between atoms: C_8  and  C_9
REMARK    5  A    between atoms: O_17  and  C_18
REMARK                            x       y       z     vdW  Elec       q    Type
REMARK                         _______ _______ _______ _____ _____    ______ ____
ROOT
ATOM      1  N   UNL     1       3.122   4.463  20.080  0.00  0.00    +0.000 N 
ATOM      2  C   UNL     1       2.001   4.488  20.888  0.00  0.00    +0.000 A 
ATOM      3  N   UNL     1       1.419   5.661  20.859  0.00  0.00    +0.000 NA
ATOM      4  C   UNL     1       2.235   6.381  20.031  0.00  0.00    +0.000 A 
ATOM      5  N   UNL     1       3.350   5.736  19.664  0.00  0.00    +0.000 NA
ENDROOT
BRANCH   4   6
ATOM      6  C   UNL     1       1.881   7.720  19.576  0.00  0.00    +0.000 A 
ATOM      7  C   UNL     1       2.251   8.149  18.292  0.00  0.00    +0.000 A 
ATOM      8  C   UNL     1       1.953   9.445  17.862  0.00  0.00    +0.000 A 
ATOM      9  C   UNL     1       1.285  10.322  18.715  0.00  0.00    +0.000 A 
ATOM     10  C   UNL     1       0.922   9.902  19.994  0.00  0.00    +0.000 A 
ATOM     11 CL   UNL     1       0.114  10.992  21.052  0.00  0.00    +0.000 Cl
ATOM     12  C   UNL     1       1.214   8.611  20.427  0.00  0.00    +0.000 A 
ENDBRANCH   4   6
BRANCH   1  14
ATOM     13  C   UNL     1       4.118   2.739  18.603  0.00  0.00    +0.000 C 
ATOM     14  C   UNL     1       3.947   3.379  19.771  0.00  0.00    +0.000 C 
BRANCH  13  16
ATOM     15  O   UNL     1       2.439   3.347  17.013  0.00  0.00    +0.000 OA
ATOM     16  C   UNL     1       3.614   3.228  17.303  0.00  0.00    +0.000 C 
BRANCH  16  17
ATOM     17  O   UNL     1       4.666   3.538  16.516  0.00  0.00    +0.000 OA
BRANCH  17  18
ATOM     18  C   UNL     1       5.512   4.589  17.031  0.00  0.00    +0.000 C 
ATOM     19  C   UNL     1       4.954   5.949  16.674  0.00  0.00    +0.000 C 
ATOM     20  C   UNL     1       5.402   6.111  15.238  0.00  0.00    +0.000 C 
ATOM     21  O   UNL     1       6.652   5.421  15.109  0.00  0.00    +0.000 OA
ATOM     22  C   UNL     1       6.821   4.571  16.258  0.00  0.00    +0.000 C 
ENDBRANCH  17  18
ENDBRANCH  16  17
ENDBRANCH  13  16
ENDBRANCH   1  14
TORSDOF 5
ENDMDL
MODEL 6
REMARK VINA RESULT:      -7.3      5.957      8.594
REMARK  Name = 
REMARK  5 active torsions:
REMARK  status: ('A' for Active; 'I' for Inactive)
REMARK    1  A    between atoms: C_2  and  C_3
REMARK    2  A    between atoms: C_2  and  O_17
REMARK    3  A    between atoms: C_4  and  N_5
REMARK    4  A    between atoms: C_8  and  C_9
REMARK    5  A    between atoms: O_17  and  C_18
REMARK                            x       y       z     vdW  Elec       q    Type
REMARK                         _______ _______ _______ _____ _____    ______ ____
ROOT
ATOM      1  N   UNL     1       2.444   8.111  18.345  0.00  0.00    +0.000 N 
ATOM      2  C   UNL     1       1.730   9.042  17.614  0.00  0.00    +0.000 A 
ATOM      3  N   UNL     1       0.897   9.706  18.376  0.00  0.00    +0.000 NA
ATOM      4  C   UNL     1       1.089   9.134  19.603  0.00  0.00    +0.000 A 
ATOM      5  N   UNL     1       1.904   8.070  19.590  0.00  0.00    +0.000 NA
ENDROOT
BRANCH   4   6
ATOM      6  C   UNL     1       0.476   9.675  20.809  0.00  0.00    +0.000 A 
ATOM      7  C   UNL     1       0.051   8.814  21.833  0.00  0.00    +0.000 A 
ATOM      8  C   UNL     1      -0.576   9.320  22.974  0.00  0.00    +0.000 A 
ATOM      9  C   UNL     1      -0.785  10.693  23.099  0.00  0.00    +0.000 A 
ATOM     10  C   UNL     1      -0.372  11.551  22.082  0.00  0.00    +0.000 A 
ATOM     11 CL   UNL     1      -0.648  13.244  22.229  0.00  0.00    +0.000 Cl
ATOM     12  C   UNL     1       0.256  11.052  20.943  0.00  0.00    +0.000 A 
ENDBRANCH   4   6
BRANCH   1  14
ATOM     13  C   UNL     1       3.597   5.947  17.973  0.00  0.00    +0.000 C 
ATOM     14  C   UNL     1       3.486   7.285  17.916  0.00  0.00    +0.000 C 
BRANCH  13  16
ATOM     15  O   UNL     1       1.534   4.801  17.586  0.00  0.00    +0.000 OA
ATOM     16  C   UNL     1       2.486   5.032  18.308  0.00  0.00    +0.000 C 
BRANCH  16  17
ATOM     17  O   UNL     1       2.719   4.488  19.521  0.00  0.00    +0.000 OA
BRANCH  17  18
ATOM     18  C   UNL     1       2.558   3.055  19.576  0.00  0.00    +0.000 C 
ATOM     19  C   UNL     1       1.224   2.689  20.189  0.00  0.00    +0.000 C 
ATOM     20  C   UNL     1       1.498   2.848  21.669  0.00  0.00    +0.000 C 
ATOM     21  O   UNL     1       2.877   2.517  21.877  0.00  0.00    +0.000 OA
ATOM     22  C   UNL     1       3.538   2.502  20.599  0.00  0.00    +0.000 C 
ENDBRANCH  17  18
ENDBRANCH  16  17
ENDBRANCH  13  16
ENDBRANCH   1  14
TORSDOF 5
ENDMDL
MODEL 7
REMARK VINA RESULT:      -7.2      1.437      1.649
REMARK  Name = 
REMARK  5 active torsions:
REMARK  status: ('A' for Active; 'I' for Inactive)
REMARK    1  A    between atoms: C_2  and  C_3
REMARK    2  A    between atoms: C_2  and  O_17
REMARK    3  A    between atoms: C_4  and  N_5
REMARK    4  A    between atoms: C_8  and  C_9
REMARK    5  A    between atoms: O_17  and  C_18
REMARK                            x       y       z     vdW  Elec       q    Type
REMARK                         _______ _______ _______ _____ _____    ______ ____
ROOT
ATOM      1  N   UNL     1       6.423   5.259  17.896  0.00  0.00    +0.000 N 
ATOM      2  C   UNL     1       7.089   6.431  17.589  0.00  0.00    +0.000 A 
ATOM      3  N   UNL     1       7.445   6.459  16.329  0.00  0.00    +0.000 NA
ATOM      4  C   UNL     1       7.010   5.248  15.866  0.00  0.00    +0.000 A 
ATOM      5  N   UNL     1       6.524   4.440  16.818  0.00  0.00    +0.000 NA
ENDROOT
BRANCH   4   6
ATOM      6  C   UNL     1       7.051   4.906  14.450  0.00  0.00    +0.000 A 
ATOM      7  C   UNL     1       7.895   5.610  13.577  0.00  0.00    +0.000 A 
ATOM      8  C   UNL     1       7.910   5.317  12.211  0.00  0.00    +0.000 A 
ATOM      9  C   UNL     1       7.077   4.318  11.707  0.00  0.00    +0.000 A 
ATOM     10  C   UNL     1       6.232   3.622  12.569  0.00  0.00    +0.000 A 
ATOM     11 CL   UNL     1       5.191   2.403  11.942  0.00  0.00    +0.000 Cl
ATOM     12  C   UNL     1       6.215   3.908  13.932  0.00  0.00    +0.000 A 
ENDBRANCH   4   6
BRANCH   1  14
ATOM     13  C   UNL     1       4.523   5.024  19.471  0.00  0.00    +0.000 C 
ATOM     14  C   UNL     1       5.807   4.900  19.098  0.00  0.00    +0.000 C 
BRANCH  13  16
ATOM     15  O   UNL     1       3.546   5.985  17.512  0.00  0.00    +0.000 OA
ATOM     16  C   UNL     1       3.417   5.372  18.555  0.00  0.00    +0.000 C 
BRANCH  16  17
ATOM     17  O   UNL     1       2.265   4.878  19.054  0.00  0.00    +0.000 OA
BRANCH  17  18
ATOM     18  C   UNL     1       2.405   3.629  19.765  0.00  0.00    +0.000 C 
ATOM     19  C   UNL     1       2.335   2.458  18.809  0.00  0.00    +0.000 C 
ATOM     20  C   UNL     1       0.845   2.316  18.587  0.00  0.00    +0.000 C 
ATOM     21  O   UNL     1       0.200   2.723  19.801  0.00  0.00    +0.000 OA
ATOM     22  C   UNL     1       1.161   3.420  20.614  0.00  0.00    +0.000 C 
ENDBRANCH  17  18
ENDBRANCH  16  17
ENDBRANCH  13  16
ENDBRANCH   1  14
TORSDOF 5
ENDMDL
MODEL 8
REMARK VINA RESULT:      -7.2      4.196      6.067
REMARK  Name = 
REMARK  5 active torsions:
REMARK  status: ('A' for Active; 'I' for Inactive)
REMARK    1  A    between atoms: C_2  and  C_3
REMARK    2  A    between atoms: C_2  and  O_17
REMARK    3  A    between atoms: C_4  and  N_5
REMARK    4  A    between atoms: C_8  and  C_9
REMARK    5  A    between atoms: O_17  and  C_18
REMARK                            x       y       z     vdW  Elec       q    Type
REMARK                         _______ _______ _______ _____ _____    ______ ____
ROOT
ATOM      1  N   UNL     1       3.640   4.532  17.482  0.00  0.00    +0.000 N 
ATOM      2  C   UNL     1       4.732   5.369  17.351  0.00  0.00    +0.000 A 
ATOM      3  N   UNL     1       4.423   6.604  17.657  0.00  0.00    +0.000 NA
ATOM      4  C   UNL     1       3.090   6.518  17.951  0.00  0.00    +0.000 A 
ATOM      5  N   UNL     1       2.554   5.314  17.710  0.00  0.00    +0.000 NA
ENDROOT
BRANCH   4   6
ATOM      6  C   UNL     1       2.350   7.643  18.508  0.00  0.00    +0.000 A 
ATOM      7  C   UNL     1       2.012   8.737  17.697  0.00  0.00    +0.000 A 
ATOM      8  C   UNL     1       1.339   9.839  18.232  0.00  0.00    +0.000 A 
ATOM      9  C   UNL     1       1.002   9.855  19.584  0.00  0.00    +0.000 A 
ATOM     10  C   UNL     1       1.343   8.774  20.396  0.00  0.00    +0.000 A 
ATOM     11 CL   UNL     1       0.942   8.804  22.069  0.00  0.00    +0.000 Cl
ATOM     12  C   UNL     1       2.011   7.672  19.867  0.00  0.00    +0.000 A 
ENDBRANCH   4   6
BRANCH   1  14
ATOM     13  C   UNL     1       3.964   2.182  18.202  0.00  0.00    +0.000 C 
ATOM     14  C   UNL     1       3.589   3.143  17.342  0.00  0.00    +0.000 C 
BRANCH  13  16
ATOM     15  O   UNL     1       5.075   1.738  20.273  0.00  0.00    +0.000 OA
ATOM     16  C   UNL     1       4.308   2.419  19.620  0.00  0.00    +0.000 C 
BRANCH  16  17
ATOM     17  O   UNL     1       3.653   3.519  20.049  0.00  0.00    +0.000 OA
BRANCH  17  18
ATOM     18  C   UNL     1       2.717   3.279  21.122  0.00  0.00    +0.000 C 
ATOM     19  C   UNL     1       1.654   2.290  20.694  0.00  0.00    +0.000 C 
ATOM     20  C   UNL     1       0.713   3.161  19.889  0.00  0.00    +0.000 C 
ATOM     21  O   UNL     1       0.758   4.472  20.468  0.00  0.00    +0.000 OA
ATOM     22  C   UNL     1       1.902   4.545  21.338  0.00  0.00    +0.000 C 
ENDBRANCH  17  18
ENDBRANCH  16  17
ENDBRANCH  13  16
ENDBRANCH   1  14
TORSDOF 5
ENDMDL
MODEL 9
REMARK VINA RESULT:      -7.2      5.120      8.085
REMARK  Name = 
REMARK  5 active torsions:
REMARK  status: ('A' for Active; 'I' for Inactive)
REMARK    1  A    between atoms: C_2  and  C_3
REMARK    2  A    between atoms: C_2  and  O_17
REMARK    3  A    between atoms: C_4  and  N_5
REMARK    4  A    between atoms: C_8  and  C_9
REMARK    5  A    between atoms: O_17  and  C_18
REMARK                            x       y       z     vdW  Elec       q    Type
REMARK                         _______ _______ _______ _____ _____    ______ ____
ROOT
ATOM      1  N   UNL     1       2.433   5.854  19.037  0.00  0.00    +0.000 N 
ATOM      2  C   UNL     1       2.037   5.373  20.271  0.00  0.00    +0.000 A 
ATOM      3  N   UNL     1       1.549   6.330  21.020  0.00  0.00    +0.000 NA
ATOM      4  C   UNL     1       1.685   7.434  20.226  0.00  0.00    +0.000 A 
ATOM      5  N   UNL     1       2.351   7.209  19.084  0.00  0.00    +0.000 NA
ENDROOT
BRANCH   4   6
ATOM      6  C   UNL     1       1.116   8.724  20.595  0.00  0.00    +0.000 A 
ATOM      7  C   UNL     1       0.601   8.925  21.885  0.00  0.00    +0.000 A 
ATOM      8  C   UNL     1       0.016  10.144  22.236  0.00  0.00    +0.000 A 
ATOM      9  C   UNL     1      -0.061  11.172  21.296  0.00  0.00    +0.000 A 
ATOM     10  C   UNL     1       0.442  10.974  20.012  0.00  0.00    +0.000 A 
ATOM     11 CL   UNL     1       0.329  12.237  18.847  0.00  0.00    +0.000 Cl
ATOM     12  C   UNL     1       1.029   9.761  19.657  0.00  0.00    +0.000 A 
ENDBRANCH   4   6
BRANCH   1  14
ATOM     13  C   UNL     1       4.103   4.553  17.747  0.00  0.00    +0.000 C 
ATOM     14  C   UNL     1       2.908   5.137  17.937  0.00  0.00    +0.000 C 
BRANCH  13  16
ATOM     15  O   UNL     1       5.254   3.328  19.448  0.00  0.00    +0.000 OA
ATOM     16  C   UNL     1       5.112   4.353  18.807  0.00  0.00    +0.000 C 
BRANCH  16  17
ATOM     17  O   UNL     1       5.852   5.476  18.923  0.00  0.00    +0.000 OA
BRANCH  17  18
ATOM     18  C   UNL     1       7.242   5.317  18.571  0.00  0.00    +0.000 C 
ATOM     19  C   UNL     1       7.987   6.625  18.728  0.00  0.00    +0.000 C 
ATOM     20  C   UNL     1       7.613   7.360  17.460  0.00  0.00    +0.000 C 
ATOM     21  O   UNL     1       7.432   6.370  16.439  0.00  0.00    +0.000 OA
ATOM     22  C   UNL     1       7.332   5.081  17.071  0.00  0.00    +0.000 C 
ENDBRANCH  17  18
ENDBRANCH  16  17
ENDBRANCH  13  16
ENDBRANCH   1  14
TORSDOF 5
ENDMDL
