MODEL 1
REMARK VINA RESULT:      -9.9      0.000      0.000
REMARK  Name = 
REMARK  5 active torsions:
REMARK  status: ('A' for Active; 'I' for Inactive)
REMARK    1  A    between atoms: C_1  and  C_2
REMARK    2  A    between atoms: C_2  and  C_4
REMARK    3  A    between atoms: C_8  and  N_9
REMARK    4  A    between atoms: C_17  and  S_18
REMARK    5  A    between atoms: S_18  and  N_21
REMARK                            x       y       z     vdW  Elec       q    Type
REMARK                         _______ _______ _______ _____ _____    ______ ____
ROOT
ATOM      1  N   UNL     1       6.692   4.521  15.986  0.00  0.00    +0.000 NA
ATOM      2  C   UNL     1       5.820   5.299  16.554  0.00  0.00    +0.000 C 
ATOM      3  C   UNL     1       5.102   6.534  15.951  0.00  0.00    +0.000 C 
ATOM      4  O   UNL     1       4.973   6.844  14.791  0.00  0.00    +0.000 OA
ATOM      5  N   UNL     1       4.601   7.196  17.052  0.00  0.00    +0.000 N 
ATOM      6  C   UNL     1       4.510   6.321  18.129  0.00  0.00    +0.000 A 
ATOM      7  C   UNL     1       3.601   6.412  19.170  0.00  0.00    +0.000 A 
ATOM      8  C   UNL     1       3.407   5.266  19.953  0.00  0.00    +0.000 A 
ATOM      9  C   UNL     1       4.161   4.107  19.719  0.00  0.00    +0.000 A 
ATOM     10  C   UNL     1       5.167   4.060  18.722  0.00  0.00    +0.000 A 
ATOM     11  C   UNL     1       5.278   5.177  17.911  0.00  0.00    +0.000 A 
ATOM     12  H   UNL     1       4.251   8.138  17.001  0.00  0.00    +0.000 HD
ENDROOT
BRANCH   1  17
ATOM     13  C   UNL     1       6.124   3.633  12.384  0.00  0.00    +0.000 A 
ATOM     14  C   UNL     1       7.209   4.346  11.851  0.00  0.00    +0.000 A 
ATOM     15  C   UNL     1       7.974   5.178  12.644  0.00  0.00    +0.000 A 
ATOM     16  C   UNL     1       7.698   5.267  13.996  0.00  0.00    +0.000 A 
ATOM     17  C   UNL     1       6.667   4.515  14.579  0.00  0.00    +0.000 A 
ATOM     18  C   UNL     1       5.822   3.753  13.759  0.00  0.00    +0.000 A 
BRANCH  13  20
ATOM     19  C   UNL     1       4.003   3.139  11.003  0.00  0.00    +0.000 C 
ATOM     20  C   UNL     1       5.342   2.689  11.527  0.00  0.00    +0.000 C 
ATOM     21  O   UNL     1       5.794   1.579  11.255  0.00  0.00    +0.000 OA
ENDBRANCH  13  20
ENDBRANCH   1  17
BRANCH   9  22
ATOM     22  S   UNL     1       3.637   2.556  20.425  0.00  0.00    +0.000 S 
ATOM     23  O   UNL     1       4.859   1.810  20.608  0.00  0.00    +0.000 OA
ATOM     24  O   UNL     1       2.743   2.833  21.523  0.00  0.00    +0.000 OA
BRANCH  22  25
ATOM     25  N   UNL     1       2.759   1.758  19.182  0.00  0.00    +0.000 NA
ATOM     26  C   UNL     1       2.956   2.229  17.779  0.00  0.00    +0.000 C 
ATOM     27  C   UNL     1       2.272   3.580  17.536  0.00  0.00    +0.000 C 
ATOM     28  O   UNL     1       0.872   3.534  17.852  0.00  0.00    +0.000 OA
ATOM     29  C   UNL     1       0.631   3.089  19.197  0.00  0.00    +0.000 C 
ATOM     30  C   UNL     1       1.268   1.716  19.447  0.00  0.00    +0.000 C 
ENDBRANCH  22  25
ENDBRANCH   9  22
TORSDOF 4
ENDMDL
MODEL 2
REMARK VINA RESULT:      -8.8      5.657      8.357
REMARK  Name = 
REMARK  5 active torsions:
REMARK  status: ('A' for Active; 'I' for Inactive)
REMARK    1  A    between atoms: C_1  and  C_2
REMARK    2  A    between atoms: C_2  and  C_4
REMARK    3  A    between atoms: C_8  and  N_9
REMARK    4  A    between atoms: C_17  and  S_18
REMARK    5  A    between atoms: S_18  and  N_21
REMARK                            x       y       z     vdW  Elec       q    Type
REMARK                         _______ _______ _______ _____ _____    ______ ____
ROOT
ATOM      1  N   UNL     1       2.306   7.031  17.794  0.00  0.00    +0.000 NA
ATOM      2  C   UNL     1       1.992   7.435  18.988  0.00  0.00    +0.000 C 
ATOM      3  C   UNL     1       2.222   6.706  20.338  0.00  0.00    +0.000 C 
ATOM      4  O   UNL     1       2.974   5.795  20.588  0.00  0.00    +0.000 OA
ATOM      5  N   UNL     1       1.388   7.365  21.216  0.00  0.00    +0.000 N 
ATOM      6  C   UNL     1       1.073   8.623  20.716  0.00  0.00    +0.000 A 
ATOM      7  C   UNL     1       0.760   9.740  21.472  0.00  0.00    +0.000 A 
ATOM      8  C   UNL     1       0.836  10.987  20.838  0.00  0.00    +0.000 A 
ATOM      9  C   UNL     1       1.150  11.075  19.474  0.00  0.00    +0.000 A 
ATOM     10  C   UNL     1       1.360   9.919  18.682  0.00  0.00    +0.000 A 
ATOM     11  C   UNL     1       1.362   8.708  19.353  0.00  0.00    +0.000 A 
ATOM     12  H   UNL     1       1.167   6.999  22.126  0.00  0.00    +0.000 HD
ENDROOT
BRANCH   1  17
ATOM     13  C   UNL     1       5.593   5.264  17.385  0.00  0.00    +0.000 A 
ATOM     14  C   UNL     1       5.076   3.992  17.092  0.00  0.00    +0.000 A 
ATOM     15  C   UNL     1       3.722   3.736  17.177  0.00  0.00    +0.000 A 
ATOM     16  C   UNL     1       2.857   4.764  17.504  0.00  0.00    +0.000 A 
ATOM     17  C   UNL     1       3.328   6.064  17.735  0.00  0.00    +0.000 A 
ATOM     18  C   UNL     1       4.710   6.304  17.755  0.00  0.00    +0.000 A 
BRANCH  13  20
ATOM     19  C   UNL     1       7.534   6.962  17.408  0.00  0.00    +0.000 C 
ATOM     20  C   UNL     1       7.054   5.545  17.231  0.00  0.00    +0.000 C 
ATOM     21  O   UNL     1       7.836   4.632  16.975  0.00  0.00    +0.000 OA
ENDBRANCH  13  20
ENDBRANCH   1  17
BRANCH   9  22
ATOM     22  S   UNL     1       1.642  12.641  18.781  0.00  0.00    +0.000 S 
ATOM     23  O   UNL     1       2.789  12.331  17.962  0.00  0.00    +0.000 OA
ATOM     24  O   UNL     1       0.472  13.288  18.237  0.00  0.00    +0.000 OA
BRANCH  22  25
ATOM     25  N   UNL     1       2.224  13.569  20.105  0.00  0.00    +0.000 NA
ATOM     26  C   UNL     1       1.288  14.546  20.735  0.00  0.00    +0.000 C 
ATOM     27  C   UNL     1       1.064  15.772  19.841  0.00  0.00    +0.000 C 
ATOM     28  O   UNL     1       2.302  16.418  19.504  0.00  0.00    +0.000 OA
ATOM     29  C   UNL     1       3.238  15.517  18.889  0.00  0.00    +0.000 C 
ATOM     30  C   UNL     1       3.510  14.305  19.789  0.00  0.00    +0.000 C 
ENDBRANCH  22  25
ENDBRANCH   9  22
TORSDOF 4
ENDMDL
MODEL 3
REMARK VINA RESULT:      -8.5      4.733      7.885
REMARK  Name = 
REMARK  5 active torsions:
REMARK  status: ('A' for Active; 'I' for Inactive)
REMARK    1  A    between atoms: C_1  and  C_2
REMARK    2  A    between atoms: C_2  and  C_4
REMARK    3  A    between atoms: C_8  and  N_9
REMARK    4  A    between atoms: C_17  and  S_18
REMARK    5  A    between atoms: S_18  and  N_21
REMARK                            x       y       z     vdW  Elec       q    Type
REMARK                         _______ _______ _______ _____ _____    ______ ____
ROOT
ATOM      1  N   UNL     1       1.567   9.547  18.679  0.00  0.00    +0.000 NA
ATOM      2  C   UNL     1       1.499   8.593  19.559  0.00  0.00    +0.000 C 
ATOM      3  C   UNL     1       0.495   8.439  20.730  0.00  0.00    +0.000 C 
ATOM      4  O   UNL     1      -0.573   8.980  20.888  0.00  0.00    +0.000 OA
ATOM      5  N   UNL     1       1.085   7.501  21.550  0.00  0.00    +0.000 N 
ATOM      6  C   UNL     1       2.015   6.761  20.831  0.00  0.00    +0.000 A 
ATOM      7  C   UNL     1       2.387   5.453  21.093  0.00  0.00    +0.000 A 
ATOM      8  C   UNL     1       3.041   4.754  20.069  0.00  0.00    +0.000 A 
ATOM      9  C   UNL     1       3.358   5.391  18.862  0.00  0.00    +0.000 A 
ATOM     10  C   UNL     1       3.072   6.761  18.644  0.00  0.00    +0.000 A 
ATOM     11  C   UNL     1       2.352   7.403  19.639  0.00  0.00    +0.000 A 
ATOM     12  H   UNL     1       0.768   7.333  22.491  0.00  0.00    +0.000 HD
ENDROOT
BRANCH   1  17
ATOM     13  C   UNL     1      -1.734  10.812  17.418  0.00  0.00    +0.000 A 
ATOM     14  C   UNL     1      -1.602  12.135  17.868  0.00  0.00    +0.000 A 
ATOM     15  C   UNL     1      -0.540  12.515  18.663  0.00  0.00    +0.000 A 
ATOM     16  C   UNL     1       0.437  11.587  18.977  0.00  0.00    +0.000 A 
ATOM     17  C   UNL     1       0.377  10.275  18.488  0.00  0.00    +0.000 A 
ATOM     18  C   UNL     1      -0.754   9.857  17.770  0.00  0.00    +0.000 A 
BRANCH  13  20
ATOM     19  C   UNL     1      -4.195  11.093  16.700  0.00  0.00    +0.000 C 
ATOM     20  C   UNL     1      -2.857  10.428  16.507  0.00  0.00    +0.000 C 
ATOM     21  O   UNL     1      -2.679   9.597  15.619  0.00  0.00    +0.000 OA
ENDBRANCH  13  20
ENDBRANCH   1  17
BRANCH   9  22
ATOM     22  S   UNL     1       3.805   4.414  17.439  0.00  0.00    +0.000 S 
ATOM     23  O   UNL     1       4.706   3.412  17.956  0.00  0.00    +0.000 OA
ATOM     24  O   UNL     1       2.598   4.060  16.731  0.00  0.00    +0.000 OA
BRANCH  22  25
ATOM     25  N   UNL     1       4.748   5.451  16.445  0.00  0.00    +0.000 NA
ATOM     26  C   UNL     1       5.226   4.915  15.137  0.00  0.00    +0.000 C 
ATOM     27  C   UNL     1       6.357   3.895  15.323  0.00  0.00    +0.000 C 
ATOM     28  O   UNL     1       7.456   4.449  16.064  0.00  0.00    +0.000 OA
ATOM     29  C   UNL     1       7.045   4.976  17.336  0.00  0.00    +0.000 C 
ATOM     30  C   UNL     1       5.946   6.032  17.168  0.00  0.00    +0.000 C 
ENDBRANCH  22  25
ENDBRANCH   9  22
TORSDOF 4
ENDMDL
MODEL 4
REMARK VINA RESULT:      -8.3      5.671      7.956
REMARK  Name = 
REMARK  5 active torsions:
REMARK  status: ('A' for Active; 'I' for Inactive)
REMARK    1  A    between atoms: C_1  and  C_2
REMARK    2  A    between atoms: C_2  and  C_4
REMARK    3  A    between atoms: C_8  and  N_9
REMARK    4  A    between atoms: C_17  and  S_18
REMARK    5  A    between atoms: S_18  and  N_21
REMARK                            x       y       z     vdW  Elec       q    Type
REMARK                         _______ _______ _______ _____ _____    ______ ____
ROOT
ATOM      1  N   UNL     1       2.292   6.960  17.872  0.00  0.00    +0.000 NA
ATOM      2  C   UNL     1       2.000   7.246  19.105  0.00  0.00    +0.000 C 
ATOM      3  C   UNL     1       2.290   6.408  20.378  0.00  0.00    +0.000 C 
ATOM      4  O   UNL     1       3.078   5.505  20.526  0.00  0.00    +0.000 OA
ATOM      5  N   UNL     1       1.461   6.958  21.332  0.00  0.00    +0.000 N 
ATOM      6  C   UNL     1       1.092   8.244  20.955  0.00  0.00    +0.000 A 
ATOM      7  C   UNL     1       0.765   9.277  21.817  0.00  0.00    +0.000 A 
ATOM      8  C   UNL     1       0.783  10.578  21.295  0.00  0.00    +0.000 A 
ATOM      9  C   UNL     1       1.056  10.797  19.937  0.00  0.00    +0.000 A 
ATOM     10  C   UNL     1       1.281   9.724  19.039  0.00  0.00    +0.000 A 
ATOM     11  C   UNL     1       1.339   8.458  19.599  0.00  0.00    +0.000 A 
ATOM     12  H   UNL     1       1.278   6.504  22.212  0.00  0.00    +0.000 HD
ENDROOT
BRANCH   1  17
ATOM     13  C   UNL     1       5.603   5.343  17.154  0.00  0.00    +0.000 A 
ATOM     14  C   UNL     1       5.114   4.062  16.851  0.00  0.00    +0.000 A 
ATOM     15  C   UNL     1       3.780   3.749  17.025  0.00  0.00    +0.000 A 
ATOM     16  C   UNL     1       2.905   4.729  17.455  0.00  0.00    +0.000 A 
ATOM     17  C   UNL     1       3.342   6.038  17.701  0.00  0.00    +0.000 A 
ATOM     18  C   UNL     1       4.712   6.333  17.628  0.00  0.00    +0.000 A 
BRANCH  13  20
ATOM     19  C   UNL     1       7.545   7.026  17.373  0.00  0.00    +0.000 C 
ATOM     20  C   UNL     1       7.037   5.687  16.903  0.00  0.00    +0.000 C 
ATOM     21  O   UNL     1       7.776   4.887  16.336  0.00  0.00    +0.000 OA
ENDBRANCH  13  20
ENDBRANCH   1  17
BRANCH   9  22
ATOM     22  S   UNL     1       1.478  12.435  19.375  0.00  0.00    +0.000 S 
ATOM     23  O   UNL     1       1.621  13.208  20.585  0.00  0.00    +0.000 OA
ATOM     24  O   UNL     1       2.546  12.326  18.410  0.00  0.00    +0.000 OA
BRANCH  22  25
ATOM     25  N   UNL     1       0.073  13.026  18.582  0.00  0.00    +0.000 NA
ATOM     26  C   UNL     1      -0.087  14.505  18.463  0.00  0.00    +0.000 C 
ATOM     27  C   UNL     1      -0.452  15.145  19.809  0.00  0.00    +0.000 C 
ATOM     28  O   UNL     1      -1.638  14.561  20.372  0.00  0.00    +0.000 OA
ATOM     29  C   UNL     1      -1.530  13.135  20.510  0.00  0.00    +0.000 C 
ATOM     30  C   UNL     1      -1.211  12.472  19.165  0.00  0.00    +0.000 C 
ENDBRANCH  22  25
ENDBRANCH   9  22
TORSDOF 4
ENDMDL
MODEL 5
REMARK VINA RESULT:      -8.3      5.824      8.241
REMARK  Name = 
REMARK  5 active torsions:
REMARK  status: ('A' for Active; 'I' for Inactive)
REMARK    1  A    between atoms: C_1  and  C_2
REMARK    2  A    between atoms: C_2  and  C_4
REMARK    3  A    between atoms: C_8  and  N_9
REMARK    4  A    between atoms: C_17  and  S_18
REMARK    5  A    between atoms: S_18  and  N_21
REMARK                            x       y       z     vdW  Elec       q    Type
REMARK                         _______ _______ _______ _____ _____    ______ ____
ROOT
ATOM      1  N   UNL     1       2.347   7.091  17.969  0.00  0.00    +0.000 NA
ATOM      2  C   UNL     1       1.978   7.288  19.200  0.00  0.00    +0.000 C 
ATOM      3  C   UNL     1       2.167   6.347  20.418  0.00  0.00    +0.000 C 
ATOM      4  O   UNL     1       2.925   5.416  20.545  0.00  0.00    +0.000 OA
ATOM      5  N   UNL     1       1.288   6.842  21.357  0.00  0.00    +0.000 N 
ATOM      6  C   UNL     1       0.970   8.162  21.060  0.00  0.00    +0.000 A 
ATOM      7  C   UNL     1       0.608   9.134  21.977  0.00  0.00    +0.000 A 
ATOM      8  C   UNL     1       0.686  10.470  21.562  0.00  0.00    +0.000 A 
ATOM      9  C   UNL     1       1.052  10.786  20.246  0.00  0.00    +0.000 A 
ATOM     10  C   UNL     1       1.315   9.781  19.283  0.00  0.00    +0.000 A 
ATOM     11  C   UNL     1       1.311   8.475  19.744  0.00  0.00    +0.000 A 
ATOM     12  H   UNL     1       1.038   6.327  22.185  0.00  0.00    +0.000 HD
ENDROOT
BRANCH   1  17
ATOM     13  C   UNL     1       5.654   5.449  17.295  0.00  0.00    +0.000 A 
ATOM     14  C   UNL     1       5.155   4.191  16.920  0.00  0.00    +0.000 A 
ATOM     15  C   UNL     1       3.812   3.894  17.036  0.00  0.00    +0.000 A 
ATOM     16  C   UNL     1       2.938   4.870  17.477  0.00  0.00    +0.000 A 
ATOM     17  C   UNL     1       3.387   6.159  17.794  0.00  0.00    +0.000 A 
ATOM     18  C   UNL     1       4.763   6.433  17.780  0.00  0.00    +0.000 A 
BRANCH  13  20
ATOM     19  C   UNL     1       7.567   7.172  17.443  0.00  0.00    +0.000 C 
ATOM     20  C   UNL     1       7.100   5.779  17.107  0.00  0.00    +0.000 C 
ATOM     21  O   UNL     1       7.883   4.925  16.698  0.00  0.00    +0.000 OA
ENDBRANCH  13  20
ENDBRANCH   1  17
BRANCH   9  22
ATOM     22  S   UNL     1       1.543  12.452  19.843  0.00  0.00    +0.000 S 
ATOM     23  O   UNL     1       2.291  12.898  20.994  0.00  0.00    +0.000 OA
ATOM     24  O   UNL     1       2.114  12.452  18.517  0.00  0.00    +0.000 OA
BRANCH  22  25
ATOM     25  N   UNL     1       0.090  13.369  19.821  0.00  0.00    +0.000 NA
ATOM     26  C   UNL     1      -0.103  14.340  18.704  0.00  0.00    +0.000 C 
ATOM     27  C   UNL     1       0.794  15.573  18.867  0.00  0.00    +0.000 C 
ATOM     28  O   UNL     1       0.583  16.223  20.131  0.00  0.00    +0.000 OA
ATOM     29  C   UNL     1       0.761  15.327  21.240  0.00  0.00    +0.000 C 
ATOM     30  C   UNL     1      -0.161  14.108  21.120  0.00  0.00    +0.000 C 
ENDBRANCH  22  25
ENDBRANCH   9  22
TORSDOF 4
ENDMDL
MODEL 6
REMARK VINA RESULT:      -8.2      5.713      8.580
REMARK  Name = 
REMARK  5 active torsions:
REMARK  status: ('A' for Active; 'I' for Inactive)
REMARK    1  A    between atoms: C_1  and  C_2
REMARK    2  A    between atoms: C_2  and  C_4
REMARK    3  A    between atoms: C_8  and  N_9
REMARK    4  A    between atoms: C_17  and  S_18
REMARK    5  A    between atoms: S_18  and  N_21
REMARK                            x       y       z     vdW  Elec       q    Type
REMARK                         _______ _______ _______ _____ _____    ______ ____
ROOT
ATOM      1  N   UNL     1       2.249   6.393  20.807  0.00  0.00    +0.000 NA
ATOM      2  C   UNL     1       2.279   7.121  19.731  0.00  0.00    +0.000 C 
ATOM      3  C   UNL     1       2.676   6.691  18.294  0.00  0.00    +0.000 C 
ATOM      4  O   UNL     1       2.744   5.580  17.828  0.00  0.00    +0.000 OA
ATOM      5  N   UNL     1       2.901   7.885  17.643  0.00  0.00    +0.000 N 
ATOM      6  C   UNL     1       2.262   8.920  18.316  0.00  0.00    +0.000 A 
ATOM      7  C   UNL     1       1.789  10.088  17.741  0.00  0.00    +0.000 A 
ATOM      8  C   UNL     1       0.861  10.835  18.479  0.00  0.00    +0.000 A 
ATOM      9  C   UNL     1       0.491  10.437  19.771  0.00  0.00    +0.000 A 
ATOM     10  C   UNL     1       1.064   9.300  20.393  0.00  0.00    +0.000 A 
ATOM     11  C   UNL     1       1.914   8.536  19.611  0.00  0.00    +0.000 A 
ATOM     12  H   UNL     1       3.363   7.932  16.750  0.00  0.00    +0.000 HD
ENDROOT
BRANCH   1  17
ATOM     13  C   UNL     1       2.919   2.804  19.937  0.00  0.00    +0.000 A 
ATOM     14  C   UNL     1       1.591   2.432  19.676  0.00  0.00    +0.000 A 
ATOM     15  C   UNL     1       0.546   3.300  19.923  0.00  0.00    +0.000 A 
ATOM     16  C   UNL     1       0.820   4.574  20.386  0.00  0.00    +0.000 A 
ATOM     17  C   UNL     1       2.137   5.006  20.592  0.00  0.00    +0.000 A 
ATOM     18  C   UNL     1       3.193   4.094  20.444  0.00  0.00    +0.000 A 
BRANCH  13  20
ATOM     19  C   UNL     1       3.974   1.089  18.325  0.00  0.00    +0.000 C 
ATOM     20  C   UNL     1       4.046   1.876  19.608  0.00  0.00    +0.000 C 
ATOM     21  O   UNL     1       5.007   1.774  20.367  0.00  0.00    +0.000 OA
ENDBRANCH  13  20
ENDBRANCH   1  17
BRANCH   9  22
ATOM     22  S   UNL     1      -0.963  11.136  20.528  0.00  0.00    +0.000 S 
ATOM     23  O   UNL     1      -1.999  10.982  19.535  0.00  0.00    +0.000 OA
ATOM     24  O   UNL     1      -1.095  10.588  21.857  0.00  0.00    +0.000 OA
BRANCH  22  25
ATOM     25  N   UNL     1      -0.653  12.822  20.652  0.00  0.00    +0.000 NA
ATOM     26  C   UNL     1      -0.084  13.332  21.934  0.00  0.00    +0.000 C 
ATOM     27  C   UNL     1      -1.131  13.338  23.055  0.00  0.00    +0.000 C 
ATOM     28  O   UNL     1      -2.295  14.097  22.692  0.00  0.00    +0.000 OA
ATOM     29  C   UNL     1      -2.883  13.640  21.463  0.00  0.00    +0.000 C 
ATOM     30  C   UNL     1      -1.863  13.670  20.318  0.00  0.00    +0.000 C 
ENDBRANCH  22  25
ENDBRANCH   9  22
TORSDOF 4
ENDMDL
MODEL 7
REMARK VINA RESULT:      -8.2      5.634      8.160
REMARK  Name = 
REMARK  5 active torsions:
REMARK  status: ('A' for Active; 'I' for Inactive)
REMARK    1  A    between atoms: C_1  and  C_2
REMARK    2  A    between atoms: C_2  and  C_4
REMARK    3  A    between atoms: C_8  and  N_9
REMARK    4  A    between atoms: C_17  and  S_18
REMARK    5  A    between atoms: S_18  and  N_21
REMARK                            x       y       z     vdW  Elec       q    Type
REMARK                         _______ _______ _______ _____ _____    ______ ____
ROOT
ATOM      1  N   UNL     1       2.364   7.516  18.112  0.00  0.00    +0.000 NA
ATOM      2  C   UNL     1       1.933   7.549  19.338  0.00  0.00    +0.000 C 
ATOM      3  C   UNL     1       2.112   6.477  20.445  0.00  0.00    +0.000 C 
ATOM      4  O   UNL     1       2.906   5.570  20.499  0.00  0.00    +0.000 OA
ATOM      5  N   UNL     1       1.169   6.820  21.391  0.00  0.00    +0.000 N 
ATOM      6  C   UNL     1       0.803   8.152  21.235  0.00  0.00    +0.000 A 
ATOM      7  C   UNL     1       0.355   8.991  22.242  0.00  0.00    +0.000 A 
ATOM      8  C   UNL     1       0.389  10.369  21.991  0.00  0.00    +0.000 A 
ATOM      9  C   UNL     1       0.798  10.855  20.741  0.00  0.00    +0.000 A 
ATOM     10  C   UNL     1       1.150   9.985  19.681  0.00  0.00    +0.000 A 
ATOM     11  C   UNL     1       1.187   8.634  19.984  0.00  0.00    +0.000 A 
ATOM     12  H   UNL     1       0.907   6.199  22.139  0.00  0.00    +0.000 HD
ENDROOT
BRANCH   1  17
ATOM     13  C   UNL     1       5.744   6.102  17.301  0.00  0.00    +0.000 A 
ATOM     14  C   UNL     1       5.313   4.828  16.898  0.00  0.00    +0.000 A 
ATOM     15  C   UNL     1       3.994   4.445  17.038  0.00  0.00    +0.000 A 
ATOM     16  C   UNL     1       3.074   5.351  17.533  0.00  0.00    +0.000 A 
ATOM     17  C   UNL     1       3.453   6.656  17.880  0.00  0.00    +0.000 A 
ATOM     18  C   UNL     1       4.809   7.014  17.841  0.00  0.00    +0.000 A 
BRANCH  13  20
ATOM     19  C   UNL     1       7.901   7.162  18.237  0.00  0.00    +0.000 C 
ATOM     20  C   UNL     1       7.163   6.525  17.088  0.00  0.00    +0.000 C 
ATOM     21  O   UNL     1       7.707   6.345  16.001  0.00  0.00    +0.000 OA
ENDBRANCH  13  20
ENDBRANCH   1  17
BRANCH   9  22
ATOM     22  S   UNL     1       1.228  12.576  20.562  0.00  0.00    +0.000 S 
ATOM     23  O   UNL     1       0.098  13.290  21.106  0.00  0.00    +0.000 OA
ATOM     24  O   UNL     1       2.566  12.768  21.068  0.00  0.00    +0.000 OA
BRANCH  22  25
ATOM     25  N   UNL     1       1.226  12.878  18.870  0.00  0.00    +0.000 NA
ATOM     26  C   UNL     1       2.545  13.025  18.188  0.00  0.00    +0.000 C 
ATOM     27  C   UNL     1       3.213  14.363  18.531  0.00  0.00    +0.000 C 
ATOM     28  O   UNL     1       2.364  15.478  18.214  0.00  0.00    +0.000 OA
ATOM     29  C   UNL     1       1.080  15.383  18.852  0.00  0.00    +0.000 C 
ATOM     30  C   UNL     1       0.375  14.072  18.485  0.00  0.00    +0.000 C 
ENDBRANCH  22  25
ENDBRANCH   9  22
TORSDOF 4
ENDMDL
MODEL 8
REMARK VINA RESULT:      -8.2      4.813      8.129
REMARK  Name = 
REMARK  5 active torsions:
REMARK  status: ('A' for Active; 'I' for Inactive)
REMARK    1  A    between atoms: C_1  and  C_2
REMARK    2  A    between atoms: C_2  and  C_4
REMARK    3  A    between atoms: C_8  and  N_9
REMARK    4  A    between atoms: C_17  and  S_18
REMARK    5  A    between atoms: S_18  and  N_21
REMARK                            x       y       z     vdW  Elec       q    Type
REMARK                         _______ _______ _______ _____ _____    ______ ____
ROOT
ATOM      1  N   UNL     1       1.492   9.741  18.921  0.00  0.00    +0.000 NA
ATOM      2  C   UNL     1       1.412   8.680  19.666  0.00  0.00    +0.000 C 
ATOM      3  C   UNL     1       0.342   8.338  20.735  0.00  0.00    +0.000 C 
ATOM      4  O   UNL     1      -0.758   8.812  20.884  0.00  0.00    +0.000 OA
ATOM      5  N   UNL     1       0.920   7.325  21.470  0.00  0.00    +0.000 N 
ATOM      6  C   UNL     1       1.930   6.720  20.730  0.00  0.00    +0.000 A 
ATOM      7  C   UNL     1       2.344   5.404  20.851  0.00  0.00    +0.000 A 
ATOM      8  C   UNL     1       3.095   4.868  19.796  0.00  0.00    +0.000 A 
ATOM      9  C   UNL     1       3.461   5.668  18.704  0.00  0.00    +0.000 A 
ATOM     10  C   UNL     1       3.126   7.043  18.641  0.00  0.00    +0.000 A 
ATOM     11  C   UNL     1       2.313   7.522  19.656  0.00  0.00    +0.000 A 
ATOM     12  H   UNL     1       0.551   7.024  22.357  0.00  0.00    +0.000 HD
ENDROOT
BRANCH   1  17
ATOM     13  C   UNL     1      -1.767  11.043  17.591  0.00  0.00    +0.000 A 
ATOM     14  C   UNL     1      -1.735  12.292  18.230  0.00  0.00    +0.000 A 
ATOM     15  C   UNL     1      -0.753  12.595  19.153  0.00  0.00    +0.000 A 
ATOM     16  C   UNL     1       0.243  11.672  19.410  0.00  0.00    +0.000 A 
ATOM     17  C   UNL     1       0.285  10.441  18.740  0.00  0.00    +0.000 A 
ATOM     18  C   UNL     1      -0.768  10.087  17.883  0.00  0.00    +0.000 A 
BRANCH  13  20
ATOM     19  C   UNL     1      -4.237  11.085  16.851  0.00  0.00    +0.000 C 
ATOM     20  C   UNL     1      -2.800  10.750  16.549  0.00  0.00    +0.000 C 
ATOM     21  O   UNL     1      -2.471  10.257  15.473  0.00  0.00    +0.000 OA
ENDBRANCH  13  20
ENDBRANCH   1  17
BRANCH   9  22
ATOM     22  S   UNL     1       4.045   4.900  17.205  0.00  0.00    +0.000 S 
ATOM     23  O   UNL     1       3.249   3.703  17.077  0.00  0.00    +0.000 OA
ATOM     24  O   UNL     1       4.087   5.901  16.166  0.00  0.00    +0.000 OA
BRANCH  22  25
ATOM     25  N   UNL     1       5.648   4.386  17.545  0.00  0.00    +0.000 NA
ATOM     26  C   UNL     1       6.510   5.289  18.363  0.00  0.00    +0.000 C 
ATOM     27  C   UNL     1       6.964   6.516  17.561  0.00  0.00    +0.000 C 
ATOM     28  O   UNL     1       7.644   6.141  16.353  0.00  0.00    +0.000 OA
ATOM     29  C   UNL     1       6.851   5.272  15.528  0.00  0.00    +0.000 C 
ATOM     30  C   UNL     1       6.426   4.015  16.298  0.00  0.00    +0.000 C 
ENDBRANCH  22  25
ENDBRANCH   9  22
TORSDOF 4
ENDMDL
MODEL 9
REMARK VINA RESULT:      -8.1      5.185      7.165
REMARK  Name = 
REMARK  5 active torsions:
REMARK  status: ('A' for Active; 'I' for Inactive)
REMARK    1  A    between atoms: C_1  and  C_2
REMARK    2  A    between atoms: C_2  and  C_4
REMARK    3  A    between atoms: C_8  and  N_9
REMARK    4  A    between atoms: C_17  and  S_18
REMARK    5  A    between atoms: S_18  and  N_21
REMARK                            x       y       z     vdW  Elec       q    Type
REMARK                         _______ _______ _______ _____ _____    ______ ____
ROOT
ATOM      1  N   UNL     1       3.255   7.585  17.190  0.00  0.00    +0.000 NA
ATOM      2  C   UNL     1       2.869   7.307  18.399  0.00  0.00    +0.000 C 
ATOM      3  C   UNL     1       3.377   6.176  19.331  0.00  0.00    +0.000 C 
ATOM      4  O   UNL     1       4.397   5.535  19.258  0.00  0.00    +0.000 OA
ATOM      5  N   UNL     1       2.404   6.088  20.305  0.00  0.00    +0.000 N 
ATOM      6  C   UNL     1       1.672   7.269  20.350  0.00  0.00    +0.000 A 
ATOM      7  C   UNL     1       1.034   7.783  21.467  0.00  0.00    +0.000 A 
ATOM      8  C   UNL     1       0.669   9.135  21.431  0.00  0.00    +0.000 A 
ATOM      9  C   UNL     1       0.886   9.902  20.277  0.00  0.00    +0.000 A 
ATOM     10  C   UNL     1       1.438   9.338  19.101  0.00  0.00    +0.000 A 
ATOM     11  C   UNL     1       1.866   8.024  19.193  0.00  0.00    +0.000 A 
ATOM     12  H   UNL     1       2.351   5.313  20.944  0.00  0.00    +0.000 HD
ENDROOT
BRANCH   1  17
ATOM     13  C   UNL     1       6.139   5.529  15.947  0.00  0.00    +0.000 A 
ATOM     14  C   UNL     1       7.129   6.095  16.766  0.00  0.00    +0.000 A 
ATOM     15  C   UNL     1       6.853   7.188  17.564  0.00  0.00    +0.000 A 
ATOM     16  C   UNL     1       5.568   7.698  17.595  0.00  0.00    +0.000 A 
ATOM     17  C   UNL     1       4.537   7.115  16.845  0.00  0.00    +0.000 A 
ATOM     18  C   UNL     1       4.836   6.074  15.953  0.00  0.00    +0.000 A 
BRANCH  13  20
ATOM     19  C   UNL     1       7.071   4.486  13.781  0.00  0.00    +0.000 C 
ATOM     20  C   UNL     1       6.434   4.308  15.134  0.00  0.00    +0.000 C 
ATOM     21  O   UNL     1       6.168   3.192  15.574  0.00  0.00    +0.000 OA
ENDBRANCH  13  20
ENDBRANCH   1  17
BRANCH   9  22
ATOM     22  S   UNL     1       0.804  11.680  20.370  0.00  0.00    +0.000 S 
ATOM     23  O   UNL     1      -0.558  11.961  20.754  0.00  0.00    +0.000 OA
ATOM     24  O   UNL     1       1.926  12.148  21.149  0.00  0.00    +0.000 OA
BRANCH  22  25
ATOM     25  N   UNL     1       0.980  12.235  18.754  0.00  0.00    +0.000 NA
ATOM     26  C   UNL     1       2.291  12.832  18.362  0.00  0.00    +0.000 C 
ATOM     27  C   UNL     1       2.481  14.227  18.971  0.00  0.00    +0.000 C 
ATOM     28  O   UNL     1       1.407  15.113  18.618  0.00  0.00    +0.000 OA
ATOM     29  C   UNL     1       0.122  14.583  18.980  0.00  0.00    +0.000 C 
ATOM     30  C   UNL     1      -0.107  13.207  18.342  0.00  0.00    +0.000 C 
ENDBRANCH  22  25
ENDBRANCH   9  22
TORSDOF 4
ENDMDL
