MODEL 1
REMARK VINA RESULT:      -7.0      0.000      0.000
REMARK  Name = 
REMARK  12 active torsions:
REMARK  status: ('A' for Active; 'I' for Inactive)
REMARK    1  A    between atoms: C_1  and  N_2
REMARK    2  A    between atoms: N_2  and  C_3
REMARK    3  A    between atoms: C_3  and  C_4
REMARK    4  A    between atoms: N_6  and  C_7
REMARK    5  A    between atoms: C_7  and  C_8
REMARK    6  A    between atoms: C_12  and  C_14
REMARK    7  A    between atoms: C_17  and  C_18
REMARK    8  A    between atoms: C_18  and  O_20
REMARK    9  A    between atoms: O_20  and  C_21
REMARK   10  A    between atoms: C_21  and  C_22
REMARK   11  A    between atoms: C_21  and  C_23
REMARK   12  A    between atoms: C_21  and  C_24
REMARK                            x       y       z     vdW  Elec       q    Type
REMARK                         _______ _______ _______ _____ _____    ______ ____
ROOT
ATOM      1  C   UNL     1       4.091   2.462  19.525  0.00  0.00    +0.000 C 
ATOM      2  N   UNL     1       3.953   3.913  19.595  0.00  0.00    +0.000 N 
ATOM      3  C   UNL     1       2.645   4.404  19.436  0.00  0.00    +0.000 C 
ATOM      4  O   UNL     1       1.666   3.662  19.502  0.00  0.00    +0.000 OA
ENDROOT
BRANCH   3   5
ATOM      5  C   UNL     1       2.381   5.852  19.196  0.00  0.00    +0.000 A 
ATOM      6  C   UNL     1       2.457   6.425  17.926  0.00  0.00    +0.000 A 
ATOM      7  C   UNL     1       2.267   7.796  17.763  0.00  0.00    +0.000 A 
ATOM      8  C   UNL     1       1.913   8.608  18.850  0.00  0.00    +0.000 A 
ATOM      9  C   UNL     1       1.740   8.027  20.110  0.00  0.00    +0.000 A 
ATOM     10  C   UNL     1       1.976   6.653  20.279  0.00  0.00    +0.000 A 
BRANCH   8  11
ATOM     11  C   UNL     1       1.742  10.056  18.563  0.00  0.00    +0.000 C 
ATOM     12  O   UNL     1       2.237  10.557  17.568  0.00  0.00    +0.000 OA
BRANCH  11  13
ATOM     13  O   UNL     1       1.007  10.697  19.503  0.00  0.00    +0.000 OA
BRANCH  13  14
ATOM     14  C   UNL     1      -0.317  11.176  19.127  0.00  0.00    +0.000 C 
ATOM     15  C   UNL     1      -1.001  10.213  18.145  0.00  0.00    +0.000 C 
ATOM     16  C   UNL     1      -1.143  11.199  20.424  0.00  0.00    +0.000 C 
ATOM     17  C   UNL     1      -0.255  12.610  18.580  0.00  0.00    +0.000 C 
ENDBRANCH  13  14
ENDBRANCH  11  13
ENDBRANCH   8  11
ENDBRANCH   3   5
BRANCH   2  18
ATOM     18  C   UNL     1       5.181   4.723  19.558  0.00  0.00    +0.000 C 
BRANCH  18  19
ATOM     19  C   UNL     1       5.762   5.124  18.200  0.00  0.00    +0.000 C 
ATOM     20  O   UNL     1       5.850   6.297  17.851  0.00  0.00    +0.000 OA
ATOM     21  N   UNL     1       6.345   4.107  17.479  0.00  0.00    +0.000 N 
ATOM     22  H   UNL     1       6.148   3.150  17.755  0.00  0.00    +0.000 HD
BRANCH  21  23
ATOM     23  C   UNL     1       6.927   4.384  16.167  0.00  0.00    +0.000 C 
BRANCH  23  24
ATOM     24  C   UNL     1       5.939   4.466  14.993  0.00  0.00    +0.000 C 
ATOM     25  F   UNL     1       6.419   3.867  13.877  0.00  0.00    +0.000 F 
ATOM     26  F   UNL     1       4.748   3.905  15.291  0.00  0.00    +0.000 F 
ATOM     27  F   UNL     1       5.707   5.764  14.673  0.00  0.00    +0.000 F 
ENDBRANCH  23  24
ENDBRANCH  21  23
ENDBRANCH  18  19
ENDBRANCH   2  18
TORSDOF 8
ENDMDL
MODEL 2
REMARK VINA RESULT:      -6.9      1.289      2.014
REMARK  Name = 
REMARK  12 active torsions:
REMARK  status: ('A' for Active; 'I' for Inactive)
REMARK    1  A    between atoms: C_1  and  N_2
REMARK    2  A    between atoms: N_2  and  C_3
REMARK    3  A    between atoms: C_3  and  C_4
REMARK    4  A    between atoms: N_6  and  C_7
REMARK    5  A    between atoms: C_7  and  C_8
REMARK    6  A    between atoms: C_12  and  C_14
REMARK    7  A    between atoms: C_17  and  C_18
REMARK    8  A    between atoms: C_18  and  O_20
REMARK    9  A    between atoms: O_20  and  C_21
REMARK   10  A    between atoms: C_21  and  C_22
REMARK   11  A    between atoms: C_21  and  C_23
REMARK   12  A    between atoms: C_21  and  C_24
REMARK                            x       y       z     vdW  Elec       q    Type
REMARK                         _______ _______ _______ _____ _____    ______ ____
ROOT
ATOM      1  C   UNL     1       3.474   1.542  18.188  0.00  0.00    +0.000 C 
ATOM      2  N   UNL     1       3.342   2.774  18.958  0.00  0.00    +0.000 N 
ATOM      3  C   UNL     1       2.194   3.538  18.686  0.00  0.00    +0.000 C 
ATOM      4  O   UNL     1       1.247   3.075  18.050  0.00  0.00    +0.000 OA
ENDROOT
BRANCH   3   5
ATOM      5  C   UNL     1       2.059   4.942  19.170  0.00  0.00    +0.000 A 
ATOM      6  C   UNL     1       1.645   5.248  20.467  0.00  0.00    +0.000 A 
ATOM      7  C   UNL     1       1.470   6.576  20.852  0.00  0.00    +0.000 A 
ATOM      8  C   UNL     1       1.787   7.626  19.979  0.00  0.00    +0.000 A 
ATOM      9  C   UNL     1       2.295   7.331  18.710  0.00  0.00    +0.000 A 
ATOM     10  C   UNL     1       2.427   5.992  18.310  0.00  0.00    +0.000 A 
BRANCH   8  11
ATOM     11  C   UNL     1       1.556   9.002  20.491  0.00  0.00    +0.000 C 
ATOM     12  O   UNL     1       1.440   9.210  21.686  0.00  0.00    +0.000 OA
BRANCH  11  13
ATOM     13  O   UNL     1       1.496   9.929  19.506  0.00  0.00    +0.000 OA
BRANCH  13  14
ATOM     14  C   UNL     1       0.189  10.471  19.155  0.00  0.00    +0.000 C 
ATOM     15  C   UNL     1      -0.806  10.325  20.316  0.00  0.00    +0.000 C 
ATOM     16  C   UNL     1       0.407  11.972  18.902  0.00  0.00    +0.000 C 
ATOM     17  C   UNL     1      -0.343   9.845  17.857  0.00  0.00    +0.000 C 
ENDBRANCH  13  14
ENDBRANCH  11  13
ENDBRANCH   8  11
ENDBRANCH   3   5
BRANCH   2  18
ATOM     18  C   UNL     1       4.510   3.230  19.729  0.00  0.00    +0.000 C 
BRANCH  18  19
ATOM     19  C   UNL     1       5.523   4.160  19.057  0.00  0.00    +0.000 C 
ATOM     20  O   UNL     1       6.072   5.072  19.666  0.00  0.00    +0.000 OA
ATOM     21  N   UNL     1       5.914   3.794  17.789  0.00  0.00    +0.000 N 
ATOM     22  H   UNL     1       5.354   3.107  17.294  0.00  0.00    +0.000 HD
BRANCH  21  23
ATOM     23  C   UNL     1       6.877   4.616  17.057  0.00  0.00    +0.000 C 
BRANCH  23  24
ATOM     24  C   UNL     1       6.308   5.457  15.904  0.00  0.00    +0.000 C 
ATOM     25  F   UNL     1       7.098   5.420  14.805  0.00  0.00    +0.000 F 
ATOM     26  F   UNL     1       5.070   5.055  15.544  0.00  0.00    +0.000 F 
ATOM     27  F   UNL     1       6.218   6.757  16.279  0.00  0.00    +0.000 F 
ENDBRANCH  23  24
ENDBRANCH  21  23
ENDBRANCH  18  19
ENDBRANCH   2  18
TORSDOF 8
ENDMDL
MODEL 3
REMARK VINA RESULT:      -6.8      0.957      1.352
REMARK  Name = 
REMARK  12 active torsions:
REMARK  status: ('A' for Active; 'I' for Inactive)
REMARK    1  A    between atoms: C_1  and  N_2
REMARK    2  A    between atoms: N_2  and  C_3
REMARK    3  A    between atoms: C_3  and  C_4
REMARK    4  A    between atoms: N_6  and  C_7
REMARK    5  A    between atoms: C_7  and  C_8
REMARK    6  A    between atoms: C_12  and  C_14
REMARK    7  A    between atoms: C_17  and  C_18
REMARK    8  A    between atoms: C_18  and  O_20
REMARK    9  A    between atoms: O_20  and  C_21
REMARK   10  A    between atoms: C_21  and  C_22
REMARK   11  A    between atoms: C_21  and  C_23
REMARK   12  A    between atoms: C_21  and  C_24
REMARK                            x       y       z     vdW  Elec       q    Type
REMARK                         _______ _______ _______ _____ _____    ______ ____
ROOT
ATOM      1  C   UNL     1       4.529   2.983  19.418  0.00  0.00    +0.000 C 
ATOM      2  N   UNL     1       4.235   4.410  19.497  0.00  0.00    +0.000 N 
ATOM      3  C   UNL     1       2.871   4.749  19.466  0.00  0.00    +0.000 C 
ATOM      4  O   UNL     1       1.992   3.903  19.631  0.00  0.00    +0.000 OA
ENDROOT
BRANCH   3   5
ATOM      5  C   UNL     1       2.422   6.155  19.249  0.00  0.00    +0.000 A 
ATOM      6  C   UNL     1       2.341   6.724  17.978  0.00  0.00    +0.000 A 
ATOM      7  C   UNL     1       1.981   8.062  17.831  0.00  0.00    +0.000 A 
ATOM      8  C   UNL     1       1.612   8.835  18.942  0.00  0.00    +0.000 A 
ATOM      9  C   UNL     1       1.597   8.245  20.210  0.00  0.00    +0.000 A 
ATOM     10  C   UNL     1       2.004   6.910  20.359  0.00  0.00    +0.000 A 
BRANCH   8  11
ATOM     11  C   UNL     1       1.252  10.251  18.671  0.00  0.00    +0.000 C 
ATOM     12  O   UNL     1       1.883  11.162  19.177  0.00  0.00    +0.000 OA
BRANCH  11  13
ATOM     13  O   UNL     1       0.192  10.376  17.837  0.00  0.00    +0.000 OA
BRANCH  13  14
ATOM     14  C   UNL     1      -1.080  10.801  18.406  0.00  0.00    +0.000 C 
ATOM     15  C   UNL     1      -1.081  10.666  19.936  0.00  0.00    +0.000 C 
ATOM     16  C   UNL     1      -1.221  12.293  18.061  0.00  0.00    +0.000 C 
ATOM     17  C   UNL     1      -2.256  10.053  17.760  0.00  0.00    +0.000 C 
ENDBRANCH  13  14
ENDBRANCH  11  13
ENDBRANCH   8  11
ENDBRANCH   3   5
BRANCH   2  18
ATOM     18  C   UNL     1       5.354   5.352  19.336  0.00  0.00    +0.000 C 
BRANCH  18  19
ATOM     19  C   UNL     1       6.442   5.039  18.306  0.00  0.00    +0.000 C 
ATOM     20  O   UNL     1       7.518   4.547  18.626  0.00  0.00    +0.000 OA
ATOM     21  N   UNL     1       6.067   5.170  16.988  0.00  0.00    +0.000 N 
ATOM     22  H   UNL     1       5.215   5.682  16.780  0.00  0.00    +0.000 HD
BRANCH  21  23
ATOM     23  C   UNL     1       7.033   4.897  15.924  0.00  0.00    +0.000 C 
BRANCH  23  24
ATOM     24  C   UNL     1       6.445   4.625  14.531  0.00  0.00    +0.000 C 
ATOM     25  F   UNL     1       7.232   5.109  13.540  0.00  0.00    +0.000 F 
ATOM     26  F   UNL     1       6.254   3.307  14.308  0.00  0.00    +0.000 F 
ATOM     27  F   UNL     1       5.240   5.234  14.408  0.00  0.00    +0.000 F 
ENDBRANCH  23  24
ENDBRANCH  21  23
ENDBRANCH  18  19
ENDBRANCH   2  18
TORSDOF 8
ENDMDL
MODEL 4
REMARK VINA RESULT:      -6.8      0.802      1.346
REMARK  Name = 
REMARK  12 active torsions:
REMARK  status: ('A' for Active; 'I' for Inactive)
REMARK    1  A    between atoms: C_1  and  N_2
REMARK    2  A    between atoms: N_2  and  C_3
REMARK    3  A    between atoms: C_3  and  C_4
REMARK    4  A    between atoms: N_6  and  C_7
REMARK    5  A    between atoms: C_7  and  C_8
REMARK    6  A    between atoms: C_12  and  C_14
REMARK    7  A    between atoms: C_17  and  C_18
REMARK    8  A    between atoms: C_18  and  O_20
REMARK    9  A    between atoms: O_20  and  C_21
REMARK   10  A    between atoms: C_21  and  C_22
REMARK   11  A    between atoms: C_21  and  C_23
REMARK   12  A    between atoms: C_21  and  C_24
REMARK                            x       y       z     vdW  Elec       q    Type
REMARK                         _______ _______ _______ _____ _____    ______ ____
ROOT
ATOM      1  C   UNL     1       4.220   2.777  19.253  0.00  0.00    +0.000 C 
ATOM      2  N   UNL     1       4.031   4.214  19.422  0.00  0.00    +0.000 N 
ATOM      3  C   UNL     1       2.705   4.666  19.307  0.00  0.00    +0.000 C 
ATOM      4  O   UNL     1       1.753   3.886  19.329  0.00  0.00    +0.000 OA
ENDROOT
BRANCH   3   5
ATOM      5  C   UNL     1       2.386   6.117  19.169  0.00  0.00    +0.000 A 
ATOM      6  C   UNL     1       2.456   6.783  17.945  0.00  0.00    +0.000 A 
ATOM      7  C   UNL     1       2.215   8.154  17.878  0.00  0.00    +0.000 A 
ATOM      8  C   UNL     1       1.815   8.870  19.015  0.00  0.00    +0.000 A 
ATOM      9  C   UNL     1       1.648   8.193  20.227  0.00  0.00    +0.000 A 
ATOM     10  C   UNL     1       1.936   6.820  20.300  0.00  0.00    +0.000 A 
BRANCH   8  11
ATOM     11  C   UNL     1       1.589  10.328  18.831  0.00  0.00    +0.000 C 
ATOM     12  O   UNL     1       2.159  10.938  17.944  0.00  0.00    +0.000 OA
BRANCH  11  13
ATOM     13  O   UNL     1       0.720  10.845  19.731  0.00  0.00    +0.000 OA
BRANCH  13  14
ATOM     14  C   UNL     1      -0.521  11.424  19.229  0.00  0.00    +0.000 C 
ATOM     15  C   UNL     1      -0.253  12.697  18.413  0.00  0.00    +0.000 C 
ATOM     16  C   UNL     1      -1.127  10.372  18.285  0.00  0.00    +0.000 C 
ATOM     17  C   UNL     1      -1.521  11.669  20.369  0.00  0.00    +0.000 C 
ENDBRANCH  13  14
ENDBRANCH  11  13
ENDBRANCH   8  11
ENDBRANCH   3   5
BRANCH   2  18
ATOM     18  C   UNL     1       5.229   5.068  19.432  0.00  0.00    +0.000 C 
BRANCH  18  19
ATOM     19  C   UNL     1       6.167   5.039  18.224  0.00  0.00    +0.000 C 
ATOM     20  O   UNL     1       7.288   4.542  18.283  0.00  0.00    +0.000 OA
ATOM     21  N   UNL     1       5.610   5.433  17.029  0.00  0.00    +0.000 N 
ATOM     22  H   UNL     1       4.728   5.936  17.054  0.00  0.00    +0.000 HD
BRANCH  21  23
ATOM     23  C   UNL     1       6.423   5.445  15.813  0.00  0.00    +0.000 C 
BRANCH  23  24
ATOM     24  C   UNL     1       6.136   4.329  14.797  0.00  0.00    +0.000 C 
ATOM     25  F   UNL     1       4.979   4.533  14.126  0.00  0.00    +0.000 F 
ATOM     26  F   UNL     1       7.129   4.199  13.891  0.00  0.00    +0.000 F 
ATOM     27  F   UNL     1       6.015   3.139  15.437  0.00  0.00    +0.000 F 
ENDBRANCH  23  24
ENDBRANCH  21  23
ENDBRANCH  18  19
ENDBRANCH   2  18
TORSDOF 8
ENDMDL
MODEL 5
REMARK VINA RESULT:      -6.7      1.165      1.756
REMARK  Name = 
REMARK  12 active torsions:
REMARK  status: ('A' for Active; 'I' for Inactive)
REMARK    1  A    between atoms: C_1  and  N_2
REMARK    2  A    between atoms: N_2  and  C_3
REMARK    3  A    between atoms: C_3  and  C_4
REMARK    4  A    between atoms: N_6  and  C_7
REMARK    5  A    between atoms: C_7  and  C_8
REMARK    6  A    between atoms: C_12  and  C_14
REMARK    7  A    between atoms: C_17  and  C_18
REMARK    8  A    between atoms: C_18  and  O_20
REMARK    9  A    between atoms: O_20  and  C_21
REMARK   10  A    between atoms: C_21  and  C_22
REMARK   11  A    between atoms: C_21  and  C_23
REMARK   12  A    between atoms: C_21  and  C_24
REMARK                            x       y       z     vdW  Elec       q    Type
REMARK                         _______ _______ _______ _____ _____    ______ ____
ROOT
ATOM      1  C   UNL     1       3.664   1.698  18.687  0.00  0.00    +0.000 C 
ATOM      2  N   UNL     1       3.572   3.074  19.163  0.00  0.00    +0.000 N 
ATOM      3  C   UNL     1       2.340   3.711  18.936  0.00  0.00    +0.000 C 
ATOM      4  O   UNL     1       1.337   3.078  18.608  0.00  0.00    +0.000 OA
ENDROOT
BRANCH   3   5
ATOM      5  C   UNL     1       2.185   5.186  19.099  0.00  0.00    +0.000 A 
ATOM      6  C   UNL     1       1.994   5.783  20.345  0.00  0.00    +0.000 A 
ATOM      7  C   UNL     1       1.786   7.158  20.440  0.00  0.00    +0.000 A 
ATOM      8  C   UNL     1       1.850   7.975  19.302  0.00  0.00    +0.000 A 
ATOM      9  C   UNL     1       2.137   7.399  18.061  0.00  0.00    +0.000 A 
ATOM     10  C   UNL     1       2.301   6.007  17.963  0.00  0.00    +0.000 A 
BRANCH   8  11
ATOM     11  C   UNL     1       1.608   9.426  19.517  0.00  0.00    +0.000 C 
ATOM     12  O   UNL     1       1.662  10.211  18.587  0.00  0.00    +0.000 OA
BRANCH  11  13
ATOM     13  O   UNL     1       1.336   9.729  20.808  0.00  0.00    +0.000 OA
BRANCH  13  14
ATOM     14  C   UNL     1      -0.004  10.203  21.133  0.00  0.00    +0.000 C 
ATOM     15  C   UNL     1      -0.571   9.475  22.361  0.00  0.00    +0.000 C 
ATOM     16  C   UNL     1       0.147  11.691  21.490  0.00  0.00    +0.000 C 
ATOM     17  C   UNL     1      -0.939  10.099  19.918  0.00  0.00    +0.000 C 
ENDBRANCH  13  14
ENDBRANCH  11  13
ENDBRANCH   8  11
ENDBRANCH   3   5
BRANCH   2  18
ATOM     18  C   UNL     1       4.816   3.740  19.581  0.00  0.00    +0.000 C 
BRANCH  18  19
ATOM     19  C   UNL     1       5.575   4.595  18.563  0.00  0.00    +0.000 C 
ATOM     20  O   UNL     1       5.540   5.821  18.589  0.00  0.00    +0.000 OA
ATOM     21  N   UNL     1       6.442   3.910  17.742  0.00  0.00    +0.000 N 
ATOM     22  H   UNL     1       6.351   2.901  17.684  0.00  0.00    +0.000 HD
BRANCH  21  23
ATOM     23  C   UNL     1       7.214   4.633  16.732  0.00  0.00    +0.000 C 
BRANCH  23  24
ATOM     24  C   UNL     1       6.603   4.686  15.323  0.00  0.00    +0.000 C 
ATOM     25  F   UNL     1       7.510   5.047  14.385  0.00  0.00    +0.000 F 
ATOM     26  F   UNL     1       6.069   3.501  14.957  0.00  0.00    +0.000 F 
ATOM     27  F   UNL     1       5.609   5.607  15.283  0.00  0.00    +0.000 F 
ENDBRANCH  23  24
ENDBRANCH  21  23
ENDBRANCH  18  19
ENDBRANCH   2  18
TORSDOF 8
ENDMDL
MODEL 6
REMARK VINA RESULT:      -6.7      5.869      9.203
REMARK  Name = 
REMARK  12 active torsions:
REMARK  status: ('A' for Active; 'I' for Inactive)
REMARK    1  A    between atoms: C_1  and  N_2
REMARK    2  A    between atoms: N_2  and  C_3
REMARK    3  A    between atoms: C_3  and  C_4
REMARK    4  A    between atoms: N_6  and  C_7
REMARK    5  A    between atoms: C_7  and  C_8
REMARK    6  A    between atoms: C_12  and  C_14
REMARK    7  A    between atoms: C_17  and  C_18
REMARK    8  A    between atoms: C_18  and  O_20
REMARK    9  A    between atoms: O_20  and  C_21
REMARK   10  A    between atoms: C_21  and  C_22
REMARK   11  A    between atoms: C_21  and  C_23
REMARK   12  A    between atoms: C_21  and  C_24
REMARK                            x       y       z     vdW  Elec       q    Type
REMARK                         _______ _______ _______ _____ _____    ______ ____
ROOT
ATOM      1  C   UNL     1      -0.860  12.623  18.226  0.00  0.00    +0.000 C 
ATOM      2  N   UNL     1      -0.520  11.218  18.424  0.00  0.00    +0.000 N 
ATOM      3  C   UNL     1       0.702  10.978  19.075  0.00  0.00    +0.000 C 
ATOM      4  O   UNL     1       1.304  11.872  19.667  0.00  0.00    +0.000 OA
ENDROOT
BRANCH   3   5
ATOM      5  C   UNL     1       1.320   9.620  19.095  0.00  0.00    +0.000 A 
ATOM      6  C   UNL     1       2.043   9.114  18.015  0.00  0.00    +0.000 A 
ATOM      7  C   UNL     1       2.544   7.813  18.055  0.00  0.00    +0.000 A 
ATOM      8  C   UNL     1       2.407   7.024  19.206  0.00  0.00    +0.000 A 
ATOM      9  C   UNL     1       1.768   7.558  20.329  0.00  0.00    +0.000 A 
ATOM     10  C   UNL     1       1.225   8.852  20.269  0.00  0.00    +0.000 A 
BRANCH   8  11
ATOM     11  C   UNL     1       2.974   5.652  19.136  0.00  0.00    +0.000 C 
ATOM     12  O   UNL     1       4.117   5.431  19.497  0.00  0.00    +0.000 OA
BRANCH  11  13
ATOM     13  O   UNL     1       2.098   4.743  18.646  0.00  0.00    +0.000 OA
BRANCH  13  14
ATOM     14  C   UNL     1       1.827   3.554  19.443  0.00  0.00    +0.000 C 
ATOM     15  C   UNL     1       1.345   3.924  20.853  0.00  0.00    +0.000 C 
ATOM     16  C   UNL     1       0.684   2.815  18.728  0.00  0.00    +0.000 C 
ATOM     17  C   UNL     1       3.046   2.619  19.477  0.00  0.00    +0.000 C 
ENDBRANCH  13  14
ENDBRANCH  11  13
ENDBRANCH   8  11
ENDBRANCH   3   5
BRANCH   2  18
ATOM     18  C   UNL     1      -1.325  10.210  17.715  0.00  0.00    +0.000 C 
BRANCH  18  19
ATOM     19  C   UNL     1      -2.480  10.678  16.827  0.00  0.00    +0.000 C 
ATOM     20  O   UNL     1      -2.423  10.623  15.603  0.00  0.00    +0.000 OA
ATOM     21  N   UNL     1      -3.649  10.985  17.486  0.00  0.00    +0.000 N 
ATOM     22  H   UNL     1      -3.610  11.121  18.492  0.00  0.00    +0.000 HD
BRANCH  21  23
ATOM     23  C   UNL     1      -4.814  11.445  16.731  0.00  0.00    +0.000 C 
BRANCH  23  24
ATOM     24  C   UNL     1      -5.960  12.048  17.557  0.00  0.00    +0.000 C 
ATOM     25  F   UNL     1      -6.951  11.154  17.787  0.00  0.00    +0.000 F 
ATOM     26  F   UNL     1      -5.535  12.519  18.749  0.00  0.00    +0.000 F 
ATOM     27  F   UNL     1      -6.517  13.088  16.887  0.00  0.00    +0.000 F 
ENDBRANCH  23  24
ENDBRANCH  21  23
ENDBRANCH  18  19
ENDBRANCH   2  18
TORSDOF 8
ENDMDL
MODEL 7
REMARK VINA RESULT:      -6.6      1.396      1.896
REMARK  Name = 
REMARK  12 active torsions:
REMARK  status: ('A' for Active; 'I' for Inactive)
REMARK    1  A    between atoms: C_1  and  N_2
REMARK    2  A    between atoms: N_2  and  C_3
REMARK    3  A    between atoms: C_3  and  C_4
REMARK    4  A    between atoms: N_6  and  C_7
REMARK    5  A    between atoms: C_7  and  C_8
REMARK    6  A    between atoms: C_12  and  C_14
REMARK    7  A    between atoms: C_17  and  C_18
REMARK    8  A    between atoms: C_18  and  O_20
REMARK    9  A    between atoms: O_20  and  C_21
REMARK   10  A    between atoms: C_21  and  C_22
REMARK   11  A    between atoms: C_21  and  C_23
REMARK   12  A    between atoms: C_21  and  C_24
REMARK                            x       y       z     vdW  Elec       q    Type
REMARK                         _______ _______ _______ _____ _____    ______ ____
ROOT
ATOM      1  C   UNL     1       3.758   1.304  18.454  0.00  0.00    +0.000 C 
ATOM      2  N   UNL     1       3.582   2.648  18.995  0.00  0.00    +0.000 N 
ATOM      3  C   UNL     1       2.377   3.284  18.652  0.00  0.00    +0.000 C 
ATOM      4  O   UNL     1       1.435   2.662  18.162  0.00  0.00    +0.000 OA
ENDROOT
BRANCH   3   5
ATOM      5  C   UNL     1       2.175   4.744  18.881  0.00  0.00    +0.000 A 
ATOM      6  C   UNL     1       2.346   5.689  17.869  0.00  0.00    +0.000 A 
ATOM      7  C   UNL     1       2.212   7.048  18.148  0.00  0.00    +0.000 A 
ATOM      8  C   UNL     1       1.819   7.486  19.421  0.00  0.00    +0.000 A 
ATOM      9  C   UNL     1       1.550   6.541  20.416  0.00  0.00    +0.000 A 
ATOM     10  C   UNL     1       1.731   5.175  20.143  0.00  0.00    +0.000 A 
BRANCH   8  11
ATOM     11  C   UNL     1       1.712   8.956  19.610  0.00  0.00    +0.000 C 
ATOM     12  O   UNL     1       1.865   9.717  18.670  0.00  0.00    +0.000 OA
BRANCH  11  13
ATOM     13  O   UNL     1       1.441   9.306  20.889  0.00  0.00    +0.000 OA
BRANCH  13  14
ATOM     14  C   UNL     1       0.086   9.739  21.207  0.00  0.00    +0.000 C 
ATOM     15  C   UNL     1      -0.534   8.870  22.311  0.00  0.00    +0.000 C 
ATOM     16  C   UNL     1       0.216  11.173  21.748  0.00  0.00    +0.000 C 
ATOM     17  C   UNL     1      -0.793   9.786  19.948  0.00  0.00    +0.000 C 
ENDBRANCH  13  14
ENDBRANCH  11  13
ENDBRANCH   8  11
ENDBRANCH   3   5
BRANCH   2  18
ATOM     18  C   UNL     1       4.751   3.301  19.606  0.00  0.00    +0.000 C 
BRANCH  18  19
ATOM     19  C   UNL     1       5.542   4.320  18.784  0.00  0.00    +0.000 C 
ATOM     20  O   UNL     1       5.894   5.399  19.250  0.00  0.00    +0.000 OA
ATOM     21  N   UNL     1       5.991   3.877  17.560  0.00  0.00    +0.000 N 
ATOM     22  H   UNL     1       5.582   3.030  17.178  0.00  0.00    +0.000 HD
BRANCH  21  23
ATOM     23  C   UNL     1       6.755   4.775  16.695  0.00  0.00    +0.000 C 
BRANCH  23  24
ATOM     24  C   UNL     1       6.487   4.650  15.187  0.00  0.00    +0.000 C 
ATOM     25  F   UNL     1       5.411   5.373  14.796  0.00  0.00    +0.000 F 
ATOM     26  F   UNL     1       7.547   5.044  14.449  0.00  0.00    +0.000 F 
ATOM     27  F   UNL     1       6.230   3.358  14.867  0.00  0.00    +0.000 F 
ENDBRANCH  23  24
ENDBRANCH  21  23
ENDBRANCH  18  19
ENDBRANCH   2  18
TORSDOF 8
ENDMDL
MODEL 8
REMARK VINA RESULT:      -6.6      4.678      8.122
REMARK  Name = 
REMARK  12 active torsions:
REMARK  status: ('A' for Active; 'I' for Inactive)
REMARK    1  A    between atoms: C_1  and  N_2
REMARK    2  A    between atoms: N_2  and  C_3
REMARK    3  A    between atoms: C_3  and  C_4
REMARK    4  A    between atoms: N_6  and  C_7
REMARK    5  A    between atoms: C_7  and  C_8
REMARK    6  A    between atoms: C_12  and  C_14
REMARK    7  A    between atoms: C_17  and  C_18
REMARK    8  A    between atoms: C_18  and  O_20
REMARK    9  A    between atoms: O_20  and  C_21
REMARK   10  A    between atoms: C_21  and  C_22
REMARK   11  A    between atoms: C_21  and  C_23
REMARK   12  A    between atoms: C_21  and  C_24
REMARK                            x       y       z     vdW  Elec       q    Type
REMARK                         _______ _______ _______ _____ _____    ______ ____
ROOT
ATOM      1  C   UNL     1      -0.767  12.913  20.573  0.00  0.00    +0.000 C 
ATOM      2  N   UNL     1      -0.379  11.704  19.855  0.00  0.00    +0.000 N 
ATOM      3  C   UNL     1       0.333  10.756  20.609  0.00  0.00    +0.000 C 
ATOM      4  O   UNL     1       0.389  10.818  21.837  0.00  0.00    +0.000 OA
ENDROOT
BRANCH   3   5
ATOM      5  C   UNL     1       1.042   9.616  19.958  0.00  0.00    +0.000 A 
ATOM      6  C   UNL     1       1.504   9.677  18.643  0.00  0.00    +0.000 A 
ATOM      7  C   UNL     1       2.100   8.562  18.057  0.00  0.00    +0.000 A 
ATOM      8  C   UNL     1       2.325   7.393  18.798  0.00  0.00    +0.000 A 
ATOM      9  C   UNL     1       1.953   7.355  20.145  0.00  0.00    +0.000 A 
ATOM     10  C   UNL     1       1.312   8.464  20.719  0.00  0.00    +0.000 A 
BRANCH   8  11
ATOM     11  C   UNL     1       2.962   6.264  18.071  0.00  0.00    +0.000 C 
ATOM     12  O   UNL     1       4.128   6.328  17.722  0.00  0.00    +0.000 OA
BRANCH  11  13
ATOM     13  O   UNL     1       2.118   5.225  17.866  0.00  0.00    +0.000 OA
BRANCH  13  14
ATOM     14  C   UNL     1       2.446   3.945  18.482  0.00  0.00    +0.000 C 
ATOM     15  C   UNL     1       1.180   3.127  18.775  0.00  0.00    +0.000 C 
ATOM     16  C   UNL     1       3.279   3.176  17.443  0.00  0.00    +0.000 C 
ATOM     17  C   UNL     1       3.312   4.137  19.736  0.00  0.00    +0.000 C 
ENDBRANCH  13  14
ENDBRANCH  11  13
ENDBRANCH   8  11
ENDBRANCH   3   5
BRANCH   2  18
ATOM     18  C   UNL     1      -0.524  11.698  18.390  0.00  0.00    +0.000 C 
BRANCH  18  19
ATOM     19  C   UNL     1      -1.847  11.230  17.780  0.00  0.00    +0.000 C 
ATOM     20  O   UNL     1      -2.671  10.591  18.427  0.00  0.00    +0.000 OA
ATOM     21  N   UNL     1      -2.134  11.727  16.529  0.00  0.00    +0.000 N 
ATOM     22  H   UNL     1      -1.380  12.153  15.999  0.00  0.00    +0.000 HD
BRANCH  21  23
ATOM     23  C   UNL     1      -3.372  11.339  15.856  0.00  0.00    +0.000 C 
BRANCH  23  24
ATOM     24  C   UNL     1      -3.311  10.054  15.016  0.00  0.00    +0.000 C 
ATOM     25  F   UNL     1      -2.309  10.085  14.106  0.00  0.00    +0.000 F 
ATOM     26  F   UNL     1      -3.148   8.953  15.781  0.00  0.00    +0.000 F 
ATOM     27  F   UNL     1      -4.467   9.897  14.324  0.00  0.00    +0.000 F 
ENDBRANCH  23  24
ENDBRANCH  21  23
ENDBRANCH  18  19
ENDBRANCH   2  18
TORSDOF 8
ENDMDL
MODEL 9
REMARK VINA RESULT:      -6.6      1.230      1.732
REMARK  Name = 
REMARK  12 active torsions:
REMARK  status: ('A' for Active; 'I' for Inactive)
REMARK    1  A    between atoms: C_1  and  N_2
REMARK    2  A    between atoms: N_2  and  C_3
REMARK    3  A    between atoms: C_3  and  C_4
REMARK    4  A    between atoms: N_6  and  C_7
REMARK    5  A    between atoms: C_7  and  C_8
REMARK    6  A    between atoms: C_12  and  C_14
REMARK    7  A    between atoms: C_17  and  C_18
REMARK    8  A    between atoms: C_18  and  O_20
REMARK    9  A    between atoms: O_20  and  C_21
REMARK   10  A    between atoms: C_21  and  C_22
REMARK   11  A    between atoms: C_21  and  C_23
REMARK   12  A    between atoms: C_21  and  C_24
REMARK                            x       y       z     vdW  Elec       q    Type
REMARK                         _______ _______ _______ _____ _____    ______ ____
ROOT
ATOM      1  C   UNL     1       3.965   2.924  18.702  0.00  0.00    +0.000 C 
ATOM      2  N   UNL     1       3.800   4.301  19.155  0.00  0.00    +0.000 N 
ATOM      3  C   UNL     1       2.487   4.801  19.107  0.00  0.00    +0.000 C 
ATOM      4  O   UNL     1       1.519   4.057  18.952  0.00  0.00    +0.000 OA
ENDROOT
BRANCH   3   5
ATOM      5  C   UNL     1       2.202   6.257  19.259  0.00  0.00    +0.000 A 
ATOM      6  C   UNL     1       1.791   6.815  20.470  0.00  0.00    +0.000 A 
ATOM      7  C   UNL     1       1.471   8.169  20.545  0.00  0.00    +0.000 A 
ATOM      8  C   UNL     1       1.638   9.011  19.436  0.00  0.00    +0.000 A 
ATOM      9  C   UNL     1       2.141   8.480  18.245  0.00  0.00    +0.000 A 
ATOM     10  C   UNL     1       2.419   7.107  18.159  0.00  0.00    +0.000 A 
BRANCH   8  11
ATOM     11  C   UNL     1       1.261  10.436  19.627  0.00  0.00    +0.000 C 
ATOM     12  O   UNL     1       1.147  11.183  18.671  0.00  0.00    +0.000 OA
BRANCH  11  13
ATOM     13  O   UNL     1       1.076  10.763  20.928  0.00  0.00    +0.000 OA
BRANCH  13  14
ATOM     14  C   UNL     1      -0.192  11.375  21.306  0.00  0.00    +0.000 C 
ATOM     15  C   UNL     1      -1.275  11.113  20.250  0.00  0.00    +0.000 C 
ATOM     16  C   UNL     1      -0.623  10.684  22.610  0.00  0.00    +0.000 C 
ATOM     17  C   UNL     1      -0.021  12.873  21.598  0.00  0.00    +0.000 C 
ENDBRANCH  13  14
ENDBRANCH  11  13
ENDBRANCH   8  11
ENDBRANCH   3   5
BRANCH   2  18
ATOM     18  C   UNL     1       5.015   5.106  19.361  0.00  0.00    +0.000 C 
BRANCH  18  19
ATOM     19  C   UNL     1       6.095   5.107  18.277  0.00  0.00    +0.000 C 
ATOM     20  O   UNL     1       7.166   4.527  18.426  0.00  0.00    +0.000 OA
ATOM     21  N   UNL     1       5.717   5.634  17.062  0.00  0.00    +0.000 N 
ATOM     22  H   UNL     1       4.871   6.194  17.026  0.00  0.00    +0.000 HD
BRANCH  21  23
ATOM     23  C   UNL     1       6.676   5.684  15.959  0.00  0.00    +0.000 C 
BRANCH  23  24
ATOM     24  C   UNL     1       6.434   4.696  14.808  0.00  0.00    +0.000 C 
ATOM     25  F   UNL     1       6.398   3.411  15.234  0.00  0.00    +0.000 F 
ATOM     26  F   UNL     1       5.281   4.952  14.152  0.00  0.00    +0.000 F 
ATOM     27  F   UNL     1       7.440   4.782  13.903  0.00  0.00    +0.000 F 
ENDBRANCH  23  24
ENDBRANCH  21  23
ENDBRANCH  18  19
ENDBRANCH   2  18
TORSDOF 8
ENDMDL
