MODEL 1
REMARK VINA RESULT:      -7.5      0.000      0.000
REMARK  Name = 
REMARK  9 active torsions:
REMARK  status: ('A' for Active; 'I' for Inactive)
REMARK    1  A    between atoms: C_1  and  O_2
REMARK    2  A    between atoms: O_2  and  C_3
REMARK    3  A    between atoms: C_5  and  O_6
REMARK    4  A    between atoms: O_6  and  C_7
REMARK    5  A    between atoms: N_15  and  S_16
REMARK    6  A    between atoms: S_16  and  C_19
REMARK    7  A    between atoms: C_24  and  C_25
REMARK    8  A    between atoms: N_27  and  C_28
REMARK    9  A    between atoms: N_27  and  C_29
REMARK                            x       y       z     vdW  Elec       q    Type
REMARK                         _______ _______ _______ _____ _____    ______ ____
ROOT
ATOM      1  C   UNL     1       2.430   5.518  19.837  0.00  0.00    +0.000 A 
ATOM      2  C   UNL     1       3.497   4.718  19.511  0.00  0.00    +0.000 A 
ATOM      3  C   UNL     1       4.307   5.197  18.508  0.00  0.00    +0.000 A 
ATOM      4  N   UNL     1       4.055   6.346  17.856  0.00  0.00    +0.000 NA
ATOM      5  C   UNL     1       3.015   7.070  18.277  0.00  0.00    +0.000 A 
ATOM      6  N   UNL     1       2.847   8.298  17.668  0.00  0.00    +0.000 N 
ATOM      7  C   UNL     1       2.086   9.344  18.101  0.00  0.00    +0.000 C 
ATOM      8  O   UNL     1       2.127  10.405  17.484  0.00  0.00    +0.000 OA
ATOM      9  N   UNL     1       1.340   9.157  19.257  0.00  0.00    +0.000 N 
ATOM     10  N   UNL     1       2.182   6.696  19.253  0.00  0.00    +0.000 NA
ATOM     11  H   UNL     1       3.454   8.492  16.889  0.00  0.00    +0.000 HD
ATOM     12  H   UNL     1       1.283   8.227  19.657  0.00  0.00    +0.000 HD
ENDROOT
BRANCH   9  13
ATOM     13  S   UNL     1       0.414  10.316  20.013  0.00  0.00    +0.000 S 
ATOM     14  O   UNL     1      -0.162   9.628  21.158  0.00  0.00    +0.000 OA
ATOM     15  O   UNL     1       1.285  11.461  20.158  0.00  0.00    +0.000 OA
BRANCH  13  16
ATOM     16  C   UNL     1      -0.921  10.618  18.859  0.00  0.00    +0.000 A 
ATOM     17  N   UNL     1      -0.943   9.672  17.856  0.00  0.00    +0.000 NA
ATOM     18  C   UNL     1      -1.883   9.785  16.910  0.00  0.00    +0.000 A 
ATOM     19  C   UNL     1      -2.855  10.762  16.949  0.00  0.00    +0.000 A 
ATOM     20  C   UNL     1      -2.851  11.683  18.005  0.00  0.00    +0.000 A 
ATOM     21  C   UNL     1      -1.890  11.612  19.023  0.00  0.00    +0.000 A 
BRANCH  21  22
ATOM     22  C   UNL     1      -1.806  12.634  20.101  0.00  0.00    +0.000 C 
ATOM     23  O   UNL     1      -2.413  12.366  21.135  0.00  0.00    +0.000 OA
ATOM     24  N   UNL     1      -1.052  13.811  20.025  0.00  0.00    +0.000 N 
ATOM     25  C   UNL     1      -0.343  14.374  18.885  0.00  0.00    +0.000 C 
ATOM     26  C   UNL     1      -0.961  14.619  21.242  0.00  0.00    +0.000 C 
ENDBRANCH  21  22
ENDBRANCH  13  16
ENDBRANCH   9  13
BRANCH   1  28
ATOM     27  C   UNL     1       1.709   3.671  21.094  0.00  0.00    +0.000 C 
ATOM     28  O   UNL     1       1.593   5.073  20.839  0.00  0.00    +0.000 OA
ENDBRANCH   1  28
BRANCH   3  29
ATOM     29  O   UNL     1       5.429   4.578  18.047  0.00  0.00    +0.000 OA
BRANCH  29  30
ATOM     30  C   UNL     1       6.637   5.257  18.320  0.00  0.00    +0.000 C 
ATOM     31  F   UNL     1       6.699   5.491  19.654  0.00  0.00    +0.000 F 
ATOM     32  F   UNL     1       7.657   4.414  18.022  0.00  0.00    +0.000 F 
ENDBRANCH  29  30
ENDBRANCH   3  29
TORSDOF 6
ENDMDL
MODEL 2
REMARK VINA RESULT:      -7.4      0.886      1.050
REMARK  Name = 
REMARK  9 active torsions:
REMARK  status: ('A' for Active; 'I' for Inactive)
REMARK    1  A    between atoms: C_1  and  O_2
REMARK    2  A    between atoms: O_2  and  C_3
REMARK    3  A    between atoms: C_5  and  O_6
REMARK    4  A    between atoms: O_6  and  C_7
REMARK    5  A    between atoms: N_15  and  S_16
REMARK    6  A    between atoms: S_16  and  C_19
REMARK    7  A    between atoms: C_24  and  C_25
REMARK    8  A    between atoms: N_27  and  C_28
REMARK    9  A    between atoms: N_27  and  C_29
REMARK                            x       y       z     vdW  Elec       q    Type
REMARK                         _______ _______ _______ _____ _____    ______ ____
ROOT
ATOM      1  C   UNL     1       2.408   5.562  19.810  0.00  0.00    +0.000 A 
ATOM      2  C   UNL     1       3.476   4.770  19.473  0.00  0.00    +0.000 A 
ATOM      3  C   UNL     1       4.284   5.264  18.476  0.00  0.00    +0.000 A 
ATOM      4  N   UNL     1       4.029   6.421  17.840  0.00  0.00    +0.000 NA
ATOM      5  C   UNL     1       2.988   7.137  18.270  0.00  0.00    +0.000 A 
ATOM      6  N   UNL     1       2.816   8.372  17.678  0.00  0.00    +0.000 N 
ATOM      7  C   UNL     1       2.052   9.410  18.124  0.00  0.00    +0.000 C 
ATOM      8  O   UNL     1       2.090  10.480  17.522  0.00  0.00    +0.000 OA
ATOM      9  N   UNL     1       1.308   9.206  19.278  0.00  0.00    +0.000 N 
ATOM     10  N   UNL     1       2.156   6.748  19.242  0.00  0.00    +0.000 NA
ATOM     11  H   UNL     1       3.422   8.578  16.901  0.00  0.00    +0.000 HD
ATOM     12  H   UNL     1       1.253   8.270  19.666  0.00  0.00    +0.000 HD
ENDROOT
BRANCH   9  13
ATOM     13  S   UNL     1       0.379  10.352  20.051  0.00  0.00    +0.000 S 
ATOM     14  O   UNL     1      -0.196   9.647  21.185  0.00  0.00    +0.000 OA
ATOM     15  O   UNL     1       1.247  11.497  20.211  0.00  0.00    +0.000 OA
BRANCH  13  16
ATOM     16  C   UNL     1      -0.956  10.667  18.900  0.00  0.00    +0.000 A 
ATOM     17  N   UNL     1      -0.980   9.730  17.888  0.00  0.00    +0.000 NA
ATOM     18  C   UNL     1      -1.921   9.854  16.944  0.00  0.00    +0.000 A 
ATOM     19  C   UNL     1      -2.892  10.833  16.993  0.00  0.00    +0.000 A 
ATOM     20  C   UNL     1      -2.885  11.744  18.058  0.00  0.00    +0.000 A 
ATOM     21  C   UNL     1      -1.923  11.662  19.074  0.00  0.00    +0.000 A 
BRANCH  21  22
ATOM     22  C   UNL     1      -1.837  12.674  20.161  0.00  0.00    +0.000 C 
ATOM     23  O   UNL     1      -2.440  12.396  21.195  0.00  0.00    +0.000 OA
ATOM     24  N   UNL     1      -1.083  13.852  20.094  0.00  0.00    +0.000 N 
ATOM     25  C   UNL     1      -0.378  14.425  18.958  0.00  0.00    +0.000 C 
ATOM     26  C   UNL     1      -0.989  14.648  21.319  0.00  0.00    +0.000 C 
ENDBRANCH  21  22
ENDBRANCH  13  16
ENDBRANCH   9  13
BRANCH   1  28
ATOM     27  C   UNL     1       1.186   3.736  20.636  0.00  0.00    +0.000 C 
ATOM     28  O   UNL     1       1.572   5.103  20.806  0.00  0.00    +0.000 OA
ENDBRANCH   1  28
BRANCH   3  29
ATOM     29  O   UNL     1       5.408   4.654  18.006  0.00  0.00    +0.000 OA
BRANCH  29  30
ATOM     30  C   UNL     1       5.473   4.527  16.601  0.00  0.00    +0.000 C 
ATOM     31  F   UNL     1       6.655   3.944  16.282  0.00  0.00    +0.000 F 
ATOM     32  F   UNL     1       4.496   3.665  16.223  0.00  0.00    +0.000 F 
ENDBRANCH  29  30
ENDBRANCH   3  29
TORSDOF 6
ENDMDL
MODEL 3
REMARK VINA RESULT:      -7.3      5.555      7.329
REMARK  Name = 
REMARK  9 active torsions:
REMARK  status: ('A' for Active; 'I' for Inactive)
REMARK    1  A    between atoms: C_1  and  O_2
REMARK    2  A    between atoms: O_2  and  C_3
REMARK    3  A    between atoms: C_5  and  O_6
REMARK    4  A    between atoms: O_6  and  C_7
REMARK    5  A    between atoms: N_15  and  S_16
REMARK    6  A    between atoms: S_16  and  C_19
REMARK    7  A    between atoms: C_24  and  C_25
REMARK    8  A    between atoms: N_27  and  C_28
REMARK    9  A    between atoms: N_27  and  C_29
REMARK                            x       y       z     vdW  Elec       q    Type
REMARK                         _______ _______ _______ _____ _____    ______ ____
ROOT
ATOM      1  C   UNL     1      -3.952  11.479  18.273  0.00  0.00    +0.000 A 
ATOM      2  C   UNL     1      -4.112  10.794  17.095  0.00  0.00    +0.000 A 
ATOM      3  C   UNL     1      -2.973  10.207  16.595  0.00  0.00    +0.000 A 
ATOM      4  N   UNL     1      -1.772  10.327  17.191  0.00  0.00    +0.000 NA
ATOM      5  C   UNL     1      -1.731  10.979  18.355  0.00  0.00    +0.000 A 
ATOM      6  N   UNL     1      -0.511  10.989  19.001  0.00  0.00    +0.000 N 
ATOM      7  C   UNL     1      -0.263  11.297  20.305  0.00  0.00    +0.000 C 
ATOM      8  O   UNL     1       0.876  11.159  20.743  0.00  0.00    +0.000 OA
ATOM      9  N   UNL     1      -1.339  11.705  21.082  0.00  0.00    +0.000 N 
ATOM     10  N   UNL     1      -2.787  11.567  18.926  0.00  0.00    +0.000 NA
ATOM     11  H   UNL     1       0.263  10.599  18.488  0.00  0.00    +0.000 HD
ATOM     12  H   UNL     1      -2.228  11.886  20.629  0.00  0.00    +0.000 HD
ENDROOT
BRANCH   9  13
ATOM     13  S   UNL     1      -1.287  12.045  22.711  0.00  0.00    +0.000 S 
ATOM     14  O   UNL     1      -1.427  10.748  23.356  0.00  0.00    +0.000 OA
ATOM     15  O   UNL     1      -0.117  12.874  22.888  0.00  0.00    +0.000 OA
BRANCH  13  16
ATOM     16  C   UNL     1      -2.808  12.942  23.009  0.00  0.00    +0.000 A 
ATOM     17  N   UNL     1      -3.696  12.196  23.755  0.00  0.00    +0.000 NA
ATOM     18  C   UNL     1      -4.885  12.740  24.040  0.00  0.00    +0.000 A 
ATOM     19  C   UNL     1      -5.214  14.029  23.674  0.00  0.00    +0.000 A 
ATOM     20  C   UNL     1      -4.279  14.793  22.964  0.00  0.00    +0.000 A 
ATOM     21  C   UNL     1      -3.018  14.274  22.638  0.00  0.00    +0.000 A 
BRANCH  21  22
ATOM     22  C   UNL     1      -2.046  15.029  21.802  0.00  0.00    +0.000 C 
ATOM     23  O   UNL     1      -2.070  14.775  20.600  0.00  0.00    +0.000 OA
ATOM     24  N   UNL     1      -1.182  16.020  22.284  0.00  0.00    +0.000 N 
ATOM     25  C   UNL     1      -0.916  16.414  23.659  0.00  0.00    +0.000 C 
ATOM     26  C   UNL     1      -0.411  16.767  21.289  0.00  0.00    +0.000 C 
ENDBRANCH  21  22
ENDBRANCH  13  16
ENDBRANCH   9  13
BRANCH   1  28
ATOM     27  C   UNL     1      -4.852  12.624  20.113  0.00  0.00    +0.000 C 
ATOM     28  O   UNL     1      -5.071  12.082  18.808  0.00  0.00    +0.000 OA
ENDBRANCH   1  28
BRANCH   3  29
ATOM     29  O   UNL     1      -2.911   9.462  15.456  0.00  0.00    +0.000 OA
BRANCH  29  30
ATOM     30  C   UNL     1      -3.288  10.145  14.278  0.00  0.00    +0.000 C 
ATOM     31  F   UNL     1      -2.478   9.731  13.272  0.00  0.00    +0.000 F 
ATOM     32  F   UNL     1      -4.544   9.747  13.959  0.00  0.00    +0.000 F 
ENDBRANCH  29  30
ENDBRANCH   3  29
TORSDOF 6
ENDMDL
MODEL 4
REMARK VINA RESULT:      -7.3      2.494      3.751
REMARK  Name = 
REMARK  9 active torsions:
REMARK  status: ('A' for Active; 'I' for Inactive)
REMARK    1  A    between atoms: C_1  and  O_2
REMARK    2  A    between atoms: O_2  and  C_3
REMARK    3  A    between atoms: C_5  and  O_6
REMARK    4  A    between atoms: O_6  and  C_7
REMARK    5  A    between atoms: N_15  and  S_16
REMARK    6  A    between atoms: S_16  and  C_19
REMARK    7  A    between atoms: C_24  and  C_25
REMARK    8  A    between atoms: N_27  and  C_28
REMARK    9  A    between atoms: N_27  and  C_29
REMARK                            x       y       z     vdW  Elec       q    Type
REMARK                         _______ _______ _______ _____ _____    ______ ____
ROOT
ATOM      1  C   UNL     1       1.850   8.754  18.518  0.00  0.00    +0.000 A 
ATOM      2  C   UNL     1       2.241   7.494  18.141  0.00  0.00    +0.000 A 
ATOM      3  C   UNL     1       2.362   6.584  19.165  0.00  0.00    +0.000 A 
ATOM      4  N   UNL     1       2.155   6.908  20.454  0.00  0.00    +0.000 NA
ATOM      5  C   UNL     1       1.738   8.149  20.711  0.00  0.00    +0.000 A 
ATOM      6  N   UNL     1       1.422   8.422  22.027  0.00  0.00    +0.000 N 
ATOM      7  C   UNL     1       0.698   9.472  22.509  0.00  0.00    +0.000 C 
ATOM      8  O   UNL     1       0.428   9.509  23.707  0.00  0.00    +0.000 OA
ATOM      9  N   UNL     1       0.263  10.422  21.595  0.00  0.00    +0.000 N 
ATOM     10  N   UNL     1       1.575   9.097  19.782  0.00  0.00    +0.000 NA
ATOM     11  H   UNL     1       1.637   7.698  22.692  0.00  0.00    +0.000 HD
ATOM     12  H   UNL     1       0.604  10.375  20.641  0.00  0.00    +0.000 HD
ENDROOT
BRANCH   9  13
ATOM     13  S   UNL     1      -0.704  11.733  21.942  0.00  0.00    +0.000 S 
ATOM     14  O   UNL     1      -1.491  11.308  23.089  0.00  0.00    +0.000 OA
ATOM     15  O   UNL     1       0.196  12.862  21.996  0.00  0.00    +0.000 OA
BRANCH  13  16
ATOM     16  C   UNL     1      -1.822  11.821  20.545  0.00  0.00    +0.000 A 
ATOM     17  N   UNL     1      -1.311  11.159  19.449  0.00  0.00    +0.000 NA
ATOM     18  C   UNL     1      -2.038  11.158  18.325  0.00  0.00    +0.000 A 
ATOM     19  C   UNL     1      -3.292  11.730  18.256  0.00  0.00    +0.000 A 
ATOM     20  C   UNL     1      -3.819  12.351  19.396  0.00  0.00    +0.000 A 
ATOM     21  C   UNL     1      -3.101  12.382  20.600  0.00  0.00    +0.000 A 
BRANCH  21  22
ATOM     22  C   UNL     1      -3.597  13.118  21.794  0.00  0.00    +0.000 C 
ATOM     23  O   UNL     1      -4.380  12.500  22.511  0.00  0.00    +0.000 OA
ATOM     24  N   UNL     1      -3.188  14.405  22.163  0.00  0.00    +0.000 N 
ATOM     25  C   UNL     1      -2.358  15.348  21.429  0.00  0.00    +0.000 C 
ATOM     26  C   UNL     1      -3.661  14.906  23.454  0.00  0.00    +0.000 C 
ENDBRANCH  21  22
ENDBRANCH  13  16
ENDBRANCH   9  13
BRANCH   1  28
ATOM     27  C   UNL     1       2.034  11.024  17.950  0.00  0.00    +0.000 C 
ATOM     28  O   UNL     1       1.717   9.697  17.520  0.00  0.00    +0.000 OA
ENDBRANCH   1  28
BRANCH   3  29
ATOM     29  O   UNL     1       2.713   5.276  19.012  0.00  0.00    +0.000 OA
BRANCH  29  30
ATOM     30  C   UNL     1       2.582   4.775  17.697  0.00  0.00    +0.000 C 
ATOM     31  F   UNL     1       3.372   3.679  17.582  0.00  0.00    +0.000 F 
ATOM     32  F   UNL     1       1.302   4.354  17.545  0.00  0.00    +0.000 F 
ENDBRANCH  29  30
ENDBRANCH   3  29
TORSDOF 6
ENDMDL
MODEL 5
REMARK VINA RESULT:      -7.3      4.860      7.045
REMARK  Name = 
REMARK  9 active torsions:
REMARK  status: ('A' for Active; 'I' for Inactive)
REMARK    1  A    between atoms: C_1  and  O_2
REMARK    2  A    between atoms: O_2  and  C_3
REMARK    3  A    between atoms: C_5  and  O_6
REMARK    4  A    between atoms: O_6  and  C_7
REMARK    5  A    between atoms: N_15  and  S_16
REMARK    6  A    between atoms: S_16  and  C_19
REMARK    7  A    between atoms: C_24  and  C_25
REMARK    8  A    between atoms: N_27  and  C_28
REMARK    9  A    between atoms: N_27  and  C_29
REMARK                            x       y       z     vdW  Elec       q    Type
REMARK                         _______ _______ _______ _____ _____    ______ ____
ROOT
ATOM      1  C   UNL     1      -3.663  11.358  18.017  0.00  0.00    +0.000 A 
ATOM      2  C   UNL     1      -4.240  10.880  16.868  0.00  0.00    +0.000 A 
ATOM      3  C   UNL     1      -3.422  10.112  16.073  0.00  0.00    +0.000 A 
ATOM      4  N   UNL     1      -2.131   9.877  16.372  0.00  0.00    +0.000 NA
ATOM      5  C   UNL     1      -1.677  10.353  17.533  0.00  0.00    +0.000 A 
ATOM      6  N   UNL     1      -0.385  10.001  17.869  0.00  0.00    +0.000 N 
ATOM      7  C   UNL     1       0.207  10.080  19.094  0.00  0.00    +0.000 C 
ATOM      8  O   UNL     1       1.341   9.629  19.237  0.00  0.00    +0.000 OA
ATOM      9  N   UNL     1      -0.537  10.626  20.131  0.00  0.00    +0.000 N 
ATOM     10  N   UNL     1      -2.401  11.094  18.378  0.00  0.00    +0.000 NA
ATOM     11  H   UNL     1       0.136   9.509  17.162  0.00  0.00    +0.000 HD
ATOM     12  H   UNL     1      -1.428  11.062  19.916  0.00  0.00    +0.000 HD
ENDROOT
BRANCH   9  13
ATOM     13  S   UNL     1      -0.053  10.740  21.720  0.00  0.00    +0.000 S 
ATOM     14  O   UNL     1      -0.580   9.538  22.346  0.00  0.00    +0.000 OA
ATOM     15  O   UNL     1       1.362  11.026  21.664  0.00  0.00    +0.000 OA
BRANCH  13  16
ATOM     16  C   UNL     1      -1.001  12.119  22.357  0.00  0.00    +0.000 A 
ATOM     17  N   UNL     1      -2.109  11.688  23.057  0.00  0.00    +0.000 NA
ATOM     18  C   UNL     1      -2.920  12.617  23.577  0.00  0.00    +0.000 A 
ATOM     19  C   UNL     1      -2.646  13.967  23.495  0.00  0.00    +0.000 A 
ATOM     20  C   UNL     1      -1.487  14.385  22.828  0.00  0.00    +0.000 A 
ATOM     21  C   UNL     1      -0.602  13.455  22.263  0.00  0.00    +0.000 A 
BRANCH  21  22
ATOM     22  C   UNL     1       0.582  13.877  21.467  0.00  0.00    +0.000 C 
ATOM     23  O   UNL     1       1.618  14.049  22.106  0.00  0.00    +0.000 OA
ATOM     24  N   UNL     1       0.595  14.025  20.075  0.00  0.00    +0.000 N 
ATOM     25  C   UNL     1      -0.517  13.969  19.138  0.00  0.00    +0.000 C 
ATOM     26  C   UNL     1       1.891  14.291  19.449  0.00  0.00    +0.000 C 
ENDBRANCH  21  22
ENDBRANCH  13  16
ENDBRANCH   9  13
BRANCH   1  28
ATOM     27  C   UNL     1      -3.761  12.605  20.003  0.00  0.00    +0.000 C 
ATOM     28  O   UNL     1      -4.451  12.133  18.843  0.00  0.00    +0.000 OA
ENDBRANCH   1  28
BRANCH   3  29
ATOM     29  O   UNL     1      -3.797   9.520  14.905  0.00  0.00    +0.000 OA
BRANCH  29  30
ATOM     30  C   UNL     1      -3.408  10.211  13.736  0.00  0.00    +0.000 C 
ATOM     31  F   UNL     1      -2.309   9.600  13.229  0.00  0.00    +0.000 F 
ATOM     32  F   UNL     1      -4.398  10.059  12.822  0.00  0.00    +0.000 F 
ENDBRANCH  29  30
ENDBRANCH   3  29
TORSDOF 6
ENDMDL
MODEL 6
REMARK VINA RESULT:      -7.3      1.568      1.868
REMARK  Name = 
REMARK  9 active torsions:
REMARK  status: ('A' for Active; 'I' for Inactive)
REMARK    1  A    between atoms: C_1  and  O_2
REMARK    2  A    between atoms: O_2  and  C_3
REMARK    3  A    between atoms: C_5  and  O_6
REMARK    4  A    between atoms: O_6  and  C_7
REMARK    5  A    between atoms: N_15  and  S_16
REMARK    6  A    between atoms: S_16  and  C_19
REMARK    7  A    between atoms: C_24  and  C_25
REMARK    8  A    between atoms: N_27  and  C_28
REMARK    9  A    between atoms: N_27  and  C_29
REMARK                            x       y       z     vdW  Elec       q    Type
REMARK                         _______ _______ _______ _____ _____    ______ ____
ROOT
ATOM      1  C   UNL     1       2.533   5.582  19.582  0.00  0.00    +0.000 A 
ATOM      2  C   UNL     1       3.572   4.902  18.997  0.00  0.00    +0.000 A 
ATOM      3  C   UNL     1       4.227   5.577  17.994  0.00  0.00    +0.000 A 
ATOM      4  N   UNL     1       3.855   6.801  17.578  0.00  0.00    +0.000 NA
ATOM      5  C   UNL     1       2.858   7.393  18.240  0.00  0.00    +0.000 A 
ATOM      6  N   UNL     1       2.573   8.692  17.869  0.00  0.00    +0.000 N 
ATOM      7  C   UNL     1       1.844   9.614  18.561  0.00  0.00    +0.000 C 
ATOM      8  O   UNL     1       1.770  10.761  18.128  0.00  0.00    +0.000 OA
ATOM      9  N   UNL     1       1.264   9.206  19.754  0.00  0.00    +0.000 N 
ATOM     10  N   UNL     1       2.174   6.825  19.237  0.00  0.00    +0.000 NA
ATOM     11  H   UNL     1       3.066   9.040  17.063  0.00  0.00    +0.000 HD
ATOM     12  H   UNL     1       1.289   8.221  19.999  0.00  0.00    +0.000 HD
ENDROOT
BRANCH   9  13
ATOM     13  S   UNL     1       0.410  10.178  20.802  0.00  0.00    +0.000 S 
ATOM     14  O   UNL     1      -0.161   9.254  21.769  0.00  0.00    +0.000 OA
ATOM     15  O   UNL     1       1.332  11.224  21.183  0.00  0.00    +0.000 OA
BRANCH  13  16
ATOM     16  C   UNL     1      -0.944  10.795  19.806  0.00  0.00    +0.000 A 
ATOM     17  N   UNL     1      -1.296   9.896  18.822  0.00  0.00    +0.000 NA
ATOM     18  C   UNL     1      -2.287  10.236  17.990  0.00  0.00    +0.000 A 
ATOM     19  C   UNL     1      -3.001  11.408  18.131  0.00  0.00    +0.000 A 
ATOM     20  C   UNL     1      -2.666  12.285  19.171  0.00  0.00    +0.000 A 
ATOM     21  C   UNL     1      -1.636  11.980  20.072  0.00  0.00    +0.000 A 
BRANCH  21  22
ATOM     22  C   UNL     1      -1.199  12.938  21.123  0.00  0.00    +0.000 C 
ATOM     23  O   UNL     1      -0.541  13.897  20.727  0.00  0.00    +0.000 OA
ATOM     24  N   UNL     1      -1.536  12.841  22.479  0.00  0.00    +0.000 N 
ATOM     25  C   UNL     1      -2.213  11.760  23.180  0.00  0.00    +0.000 C 
ATOM     26  C   UNL     1      -1.150  13.961  23.338  0.00  0.00    +0.000 C 
ENDBRANCH  21  22
ENDBRANCH  13  16
ENDBRANCH   9  13
BRANCH   1  28
ATOM     27  C   UNL     1       1.012   3.879  20.126  0.00  0.00    +0.000 C 
ATOM     28  O   UNL     1       1.850   4.940  20.593  0.00  0.00    +0.000 OA
ENDBRANCH   1  28
BRANCH   3  29
ATOM     29  O   UNL     1       5.297   5.100  17.300  0.00  0.00    +0.000 OA
BRANCH  29  30
ATOM     30  C   UNL     1       4.977   4.436  16.094  0.00  0.00    +0.000 C 
ATOM     31  F   UNL     1       5.183   5.298  15.068  0.00  0.00    +0.000 F 
ATOM     32  F   UNL     1       5.863   3.422  15.937  0.00  0.00    +0.000 F 
ENDBRANCH  29  30
ENDBRANCH   3  29
TORSDOF 6
ENDMDL
MODEL 7
REMARK VINA RESULT:      -7.2      1.238      1.606
REMARK  Name = 
REMARK  9 active torsions:
REMARK  status: ('A' for Active; 'I' for Inactive)
REMARK    1  A    between atoms: C_1  and  O_2
REMARK    2  A    between atoms: O_2  and  C_3
REMARK    3  A    between atoms: C_5  and  O_6
REMARK    4  A    between atoms: O_6  and  C_7
REMARK    5  A    between atoms: N_15  and  S_16
REMARK    6  A    between atoms: S_16  and  C_19
REMARK    7  A    between atoms: C_24  and  C_25
REMARK    8  A    between atoms: N_27  and  C_28
REMARK    9  A    between atoms: N_27  and  C_29
REMARK                            x       y       z     vdW  Elec       q    Type
REMARK                         _______ _______ _______ _____ _____    ______ ____
ROOT
ATOM      1  C   UNL     1       2.525   5.677  19.676  0.00  0.00    +0.000 A 
ATOM      2  C   UNL     1       3.547   4.975  19.086  0.00  0.00    +0.000 A 
ATOM      3  C   UNL     1       4.183   5.618  18.051  0.00  0.00    +0.000 A 
ATOM      4  N   UNL     1       3.809   6.834  17.611  0.00  0.00    +0.000 NA
ATOM      5  C   UNL     1       2.831   7.450  18.279  0.00  0.00    +0.000 A 
ATOM      6  N   UNL     1       2.545   8.740  17.880  0.00  0.00    +0.000 N 
ATOM      7  C   UNL     1       1.837   9.685  18.562  0.00  0.00    +0.000 C 
ATOM      8  O   UNL     1       1.761  10.820  18.101  0.00  0.00    +0.000 OA
ATOM      9  N   UNL     1       1.282   9.313  19.779  0.00  0.00    +0.000 N 
ATOM     10  N   UNL     1       2.166   6.913  19.306  0.00  0.00    +0.000 NA
ATOM     11  H   UNL     1       3.022   9.063  17.054  0.00  0.00    +0.000 HD
ATOM     12  H   UNL     1       1.306   8.335  20.049  0.00  0.00    +0.000 HD
ENDROOT
BRANCH   9  13
ATOM     13  S   UNL     1       0.458  10.318  20.819  0.00  0.00    +0.000 S 
ATOM     14  O   UNL     1      -0.054   9.430  21.851  0.00  0.00    +0.000 OA
ATOM     15  O   UNL     1       1.378  11.394  21.112  0.00  0.00    +0.000 OA
BRANCH  13  16
ATOM     16  C   UNL     1      -0.949  10.868  19.858  0.00  0.00    +0.000 A 
ATOM     17  N   UNL     1      -1.272   9.960  18.872  0.00  0.00    +0.000 NA
ATOM     18  C   UNL     1      -2.298  10.252  18.065  0.00  0.00    +0.000 A 
ATOM     19  C   UNL     1      -3.071  11.383  18.232  0.00  0.00    +0.000 A 
ATOM     20  C   UNL     1      -2.762  12.268  19.273  0.00  0.00    +0.000 A 
ATOM     21  C   UNL     1      -1.698  12.012  20.149  0.00  0.00    +0.000 A 
BRANCH  21  22
ATOM     22  C   UNL     1      -1.291  12.984  21.199  0.00  0.00    +0.000 C 
ATOM     23  O   UNL     1      -0.652  13.956  20.805  0.00  0.00    +0.000 OA
ATOM     24  N   UNL     1      -1.636  12.884  22.553  0.00  0.00    +0.000 N 
ATOM     25  C   UNL     1      -2.292  11.791  23.253  0.00  0.00    +0.000 C 
ATOM     26  C   UNL     1      -1.282  14.016  23.411  0.00  0.00    +0.000 C 
ENDBRANCH  21  22
ENDBRANCH  13  16
ENDBRANCH   9  13
BRANCH   1  28
ATOM     27  C   UNL     1       1.032   3.978  20.303  0.00  0.00    +0.000 C 
ATOM     28  O   UNL     1       1.861   5.067  20.719  0.00  0.00    +0.000 OA
ENDBRANCH   1  28
BRANCH   3  29
ATOM     29  O   UNL     1       5.235   5.116  17.346  0.00  0.00    +0.000 OA
BRANCH  29  30
ATOM     30  C   UNL     1       6.334   4.703  18.132  0.00  0.00    +0.000 C 
ATOM     31  F   UNL     1       7.315   4.279  17.297  0.00  0.00    +0.000 F 
ATOM     32  F   UNL     1       6.812   5.797  18.774  0.00  0.00    +0.000 F 
ENDBRANCH  29  30
ENDBRANCH   3  29
TORSDOF 6
ENDMDL
MODEL 8
REMARK VINA RESULT:      -7.2      2.543      3.755
REMARK  Name = 
REMARK  9 active torsions:
REMARK  status: ('A' for Active; 'I' for Inactive)
REMARK    1  A    between atoms: C_1  and  O_2
REMARK    2  A    between atoms: O_2  and  C_3
REMARK    3  A    between atoms: C_5  and  O_6
REMARK    4  A    between atoms: O_6  and  C_7
REMARK    5  A    between atoms: N_15  and  S_16
REMARK    6  A    between atoms: S_16  and  C_19
REMARK    7  A    between atoms: C_24  and  C_25
REMARK    8  A    between atoms: N_27  and  C_28
REMARK    9  A    between atoms: N_27  and  C_29
REMARK                            x       y       z     vdW  Elec       q    Type
REMARK                         _______ _______ _______ _____ _____    ______ ____
ROOT
ATOM      1  C   UNL     1       2.109   8.161  18.432  0.00  0.00    +0.000 A 
ATOM      2  C   UNL     1       2.344   6.838  18.155  0.00  0.00    +0.000 A 
ATOM      3  C   UNL     1       2.307   5.993  19.239  0.00  0.00    +0.000 A 
ATOM      4  N   UNL     1       2.097   6.430  20.494  0.00  0.00    +0.000 NA
ATOM      5  C   UNL     1       1.837   7.730  20.652  0.00  0.00    +0.000 A 
ATOM      6  N   UNL     1       1.513   8.132  21.933  0.00  0.00    +0.000 N 
ATOM      7  C   UNL     1       0.916   9.297  22.313  0.00  0.00    +0.000 C 
ATOM      8  O   UNL     1       0.610   9.452  23.492  0.00  0.00    +0.000 OA
ATOM      9  N   UNL     1       0.643  10.230  21.321  0.00  0.00    +0.000 N 
ATOM     10  N   UNL     1       1.835   8.624  19.658  0.00  0.00    +0.000 NA
ATOM     11  H   UNL     1       1.607   7.433  22.651  0.00  0.00    +0.000 HD
ATOM     12  H   UNL     1       1.010  10.073  20.388  0.00  0.00    +0.000 HD
ENDROOT
BRANCH   9  13
ATOM     13  S   UNL     1      -0.155  11.675  21.539  0.00  0.00    +0.000 S 
ATOM     14  O   UNL     1      -0.883  11.501  22.786  0.00  0.00    +0.000 OA
ATOM     15  O   UNL     1       0.856  12.694  21.369  0.00  0.00    +0.000 OA
BRANCH  13  16
ATOM     16  C   UNL     1      -1.370  11.695  20.224  0.00  0.00    +0.000 A 
ATOM     17  N   UNL     1      -1.209  10.621  19.373  0.00  0.00    +0.000 NA
ATOM     18  C   UNL     1      -2.043  10.519  18.331  0.00  0.00    +0.000 A 
ATOM     19  C   UNL     1      -3.083  11.403  18.128  0.00  0.00    +0.000 A 
ATOM     20  C   UNL     1      -3.265  12.457  19.033  0.00  0.00    +0.000 A 
ATOM     21  C   UNL     1      -2.421  12.613  20.142  0.00  0.00    +0.000 A 
BRANCH  21  22
ATOM     22  C   UNL     1      -2.534  13.777  21.061  0.00  0.00    +0.000 C 
ATOM     23  O   UNL     1      -1.851  14.755  20.766  0.00  0.00    +0.000 OA
ATOM     24  N   UNL     1      -3.390  13.838  22.167  0.00  0.00    +0.000 N 
ATOM     25  C   UNL     1      -4.205  12.786  22.754  0.00  0.00    +0.000 C 
ATOM     26  C   UNL     1      -3.483  15.123  22.861  0.00  0.00    +0.000 C 
ENDBRANCH  21  22
ENDBRANCH  13  16
ENDBRANCH   9  13
BRANCH   1  28
ATOM     27  C   UNL     1       2.024  10.411  17.769  0.00  0.00    +0.000 C 
ATOM     28  O   UNL     1       2.137   9.042  17.371  0.00  0.00    +0.000 OA
ENDBRANCH   1  28
BRANCH   3  29
ATOM     29  O   UNL     1       2.487   4.644  19.187  0.00  0.00    +0.000 OA
BRANCH  29  30
ATOM     30  C   UNL     1       1.456   3.931  18.536  0.00  0.00    +0.000 C 
ATOM     31  F   UNL     1       2.018   3.160  17.572  0.00  0.00    +0.000 F 
ATOM     32  F   UNL     1       0.907   3.086  19.443  0.00  0.00    +0.000 F 
ENDBRANCH  29  30
ENDBRANCH   3  29
TORSDOF 6
ENDMDL
MODEL 9
REMARK VINA RESULT:      -7.2      2.380      3.406
REMARK  Name = 
REMARK  9 active torsions:
REMARK  status: ('A' for Active; 'I' for Inactive)
REMARK    1  A    between atoms: C_1  and  O_2
REMARK    2  A    between atoms: O_2  and  C_3
REMARK    3  A    between atoms: C_5  and  O_6
REMARK    4  A    between atoms: O_6  and  C_7
REMARK    5  A    between atoms: N_15  and  S_16
REMARK    6  A    between atoms: S_16  and  C_19
REMARK    7  A    between atoms: C_24  and  C_25
REMARK    8  A    between atoms: N_27  and  C_28
REMARK    9  A    between atoms: N_27  and  C_29
REMARK                            x       y       z     vdW  Elec       q    Type
REMARK                         _______ _______ _______ _____ _____    ______ ____
ROOT
ATOM      1  C   UNL     1       3.131   6.778  18.297  0.00  0.00    +0.000 A 
ATOM      2  C   UNL     1       3.081   5.407  18.275  0.00  0.00    +0.000 A 
ATOM      3  C   UNL     1       2.401   4.826  19.319  0.00  0.00    +0.000 A 
ATOM      4  N   UNL     1       1.855   5.541  20.319  0.00  0.00    +0.000 NA
ATOM      5  C   UNL     1       1.924   6.870  20.226  0.00  0.00    +0.000 A 
ATOM      6  N   UNL     1       1.258   7.581  21.205  0.00  0.00    +0.000 N 
ATOM      7  C   UNL     1       0.907   8.899  21.184  0.00  0.00    +0.000 C 
ATOM      8  O   UNL     1       0.227   9.349  22.102  0.00  0.00    +0.000 OA
ATOM      9  N   UNL     1       1.302   9.648  20.084  0.00  0.00    +0.000 N 
ATOM     10  N   UNL     1       2.548   7.526  19.243  0.00  0.00    +0.000 NA
ATOM     11  H   UNL     1       0.873   7.038  21.960  0.00  0.00    +0.000 HD
ATOM     12  H   UNL     1       1.939   9.233  19.412  0.00  0.00    +0.000 HD
ENDROOT
BRANCH   9  13
ATOM     13  S   UNL     1       0.912  11.242  19.804  0.00  0.00    +0.000 S 
ATOM     14  O   UNL     1       0.785  11.822  21.131  0.00  0.00    +0.000 OA
ATOM     15  O   UNL     1       1.890  11.708  18.847  0.00  0.00    +0.000 OA
BRANCH  13  16
ATOM     16  C   UNL     1      -0.736  11.164  19.108  0.00  0.00    +0.000 A 
ATOM     17  N   UNL     1      -0.890  10.057  18.301  0.00  0.00    +0.000 NA
ATOM     18  C   UNL     1      -2.073   9.881  17.700  0.00  0.00    +0.000 A 
ATOM     19  C   UNL     1      -3.144  10.723  17.917  0.00  0.00    +0.000 A 
ATOM     20  C   UNL     1      -2.987  11.812  18.784  0.00  0.00    +0.000 A 
ATOM     21  C   UNL     1      -1.770  12.045  19.440  0.00  0.00    +0.000 A 
BRANCH  21  22
ATOM     22  C   UNL     1      -1.549  13.248  20.287  0.00  0.00    +0.000 C 
ATOM     23  O   UNL     1      -1.013  14.201  19.727  0.00  0.00    +0.000 OA
ATOM     24  N   UNL     1      -1.957  13.368  21.621  0.00  0.00    +0.000 N 
ATOM     25  C   UNL     1      -2.513  12.354  22.504  0.00  0.00    +0.000 C 
ATOM     26  C   UNL     1      -1.798  14.681  22.246  0.00  0.00    +0.000 C 
ENDBRANCH  21  22
ENDBRANCH  13  16
ENDBRANCH   9  13
BRANCH   1  28
ATOM     27  C   UNL     1       4.856   6.605  16.715  0.00  0.00    +0.000 C 
ATOM     28  O   UNL     1       3.805   7.402  17.267  0.00  0.00    +0.000 OA
ENDBRANCH   1  28
BRANCH   3  29
ATOM     29  O   UNL     1       2.209   3.486  19.478  0.00  0.00    +0.000 OA
BRANCH  29  30
ATOM     30  C   UNL     1       1.050   3.134  20.204  0.00  0.00    +0.000 C 
ATOM     31  F   UNL     1       0.175   2.550  19.348  0.00  0.00    +0.000 F 
ATOM     32  F   UNL     1       1.405   2.187  21.108  0.00  0.00    +0.000 F 
ENDBRANCH  29  30
ENDBRANCH   3  29
TORSDOF 6
ENDMDL
