MODEL 1
REMARK VINA RESULT:      -6.7      0.000      0.000
REMARK  Name = 
REMARK  13 active torsions:
REMARK  status: ('A' for Active; 'I' for Inactive)
REMARK    1  A    between atoms: C_1  and  O_2
REMARK    2  A    between atoms: O_2  and  C_3
REMARK    3  A    between atoms: C_5  and  N_6
REMARK    4  A    between atoms: N_6  and  C_7
REMARK    5  A    between atoms: C_8  and  C_9
REMARK    6  A    between atoms: C_15  and  C_16
REMARK    7  A    between atoms: C_17  and  C_18
REMARK    8  A    between atoms: C_18  and  C_19
REMARK    9  A    between atoms: C_19  and  N_20
REMARK   10  A    between atoms: N_20  and  C_21
REMARK   11  A    between atoms: N_20  and  C_22
REMARK   12  A    between atoms: C_23  and  O_24
REMARK   13  A    between atoms: O_24  and  C_25
REMARK                            x       y       z     vdW  Elec       q    Type
REMARK                         _______ _______ _______ _____ _____    ______ ____
ROOT
ATOM      1  C   UNL     1      -3.785  12.194  18.843  0.00  0.00    +0.000 A 
ATOM      2  C   UNL     1      -4.800  11.429  18.242  0.00  0.00    +0.000 A 
ATOM      3  C   UNL     1      -4.477  10.185  17.723  0.00  0.00    +0.000 A 
ATOM      4  N   UNL     1      -3.234   9.678  17.722  0.00  0.00    +0.000 NA
ATOM      5  C   UNL     1      -2.243  10.430  18.213  0.00  0.00    +0.000 A 
ATOM      6  C   UNL     1      -0.970   9.902  18.134  0.00  0.00    +0.000 A 
ATOM      7  C   UNL     1       0.172  10.594  18.553  0.00  0.00    +0.000 A 
ATOM      8  C   UNL     1       0.008  11.858  19.138  0.00  0.00    +0.000 A 
ATOM      9  C   UNL     1      -1.289  12.391  19.259  0.00  0.00    +0.000 A 
ATOM     10  C   UNL     1      -2.438  11.707  18.782  0.00  0.00    +0.000 A 
ENDROOT
BRANCH   1  11
ATOM     11  N   UNL     1      -4.093  13.383  19.564  0.00  0.00    +0.000 N 
ATOM     12  H   UNL     1      -3.409  14.132  19.515  0.00  0.00    +0.000 HD
BRANCH  11  15
ATOM     13  C   UNL     1      -5.608  12.858  22.948  0.00  0.00    +0.000 A 
ATOM     14  C   UNL     1      -4.740  12.784  21.854  0.00  0.00    +0.000 A 
ATOM     15  C   UNL     1      -4.943  13.546  20.692  0.00  0.00    +0.000 A 
ATOM     16  C   UNL     1      -6.046  14.419  20.661  0.00  0.00    +0.000 A 
ATOM     17 CL   UNL     1      -6.406  15.344  19.245  0.00  0.00    +0.000 Cl
ATOM     18  C   UNL     1      -6.892  14.548  21.765  0.00  0.00    +0.000 A 
ATOM     19  C   UNL     1      -6.675  13.763  22.900  0.00  0.00    +0.000 A 
ATOM     20 CL   UNL     1      -7.740  13.965  24.247  0.00  0.00    +0.000 Cl
BRANCH  13  22
ATOM     21  C   UNL     1      -4.435  12.367  24.964  0.00  0.00    +0.000 C 
ATOM     22  O   UNL     1      -5.494  12.068  24.062  0.00  0.00    +0.000 OA
ENDBRANCH  13  22
ENDBRANCH  11  15
ENDBRANCH   1  11
BRANCH   2  23
ATOM     23  C   UNL     1      -6.158  11.859  18.100  0.00  0.00    +0.000 C 
ATOM     24  N   UNL     1      -7.264  12.178  17.947  0.00  0.00    +0.000 NA
ENDBRANCH   2  23
BRANCH   7  25
ATOM     25  C   UNL     1       1.498   9.940  18.420  0.00  0.00    +0.000 C 
ATOM     26  C   UNL     1       1.681   8.746  17.838  0.00  0.00    +0.000 C 
BRANCH  26  27
ATOM     27  C   UNL     1       2.994   8.007  17.780  0.00  0.00    +0.000 C 
BRANCH  27  28
ATOM     28  C   UNL     1       2.905   6.679  18.565  0.00  0.00    +0.000 C 
BRANCH  28  29
ATOM     29  N   UNL     1       3.233   5.473  17.778  0.00  0.00    +0.000 NA
ATOM     30  C   UNL     1       4.473   5.634  17.018  0.00  0.00    +0.000 C 
ATOM     31  C   UNL     1       3.357   4.319  18.676  0.00  0.00    +0.000 C 
ENDBRANCH  28  29
ENDBRANCH  27  28
ENDBRANCH  26  27
ENDBRANCH   7  25
BRANCH   8  32
ATOM     32  O   UNL     1       1.144  12.509  19.551  0.00  0.00    +0.000 OA
ATOM     33  C   UNL     1       1.339  13.851  19.111  0.00  0.00    +0.000 C 
ENDBRANCH   8  32
TORSDOF 9
ENDMDL
MODEL 2
REMARK VINA RESULT:      -6.6      1.618      1.870
REMARK  Name = 
REMARK  13 active torsions:
REMARK  status: ('A' for Active; 'I' for Inactive)
REMARK    1  A    between atoms: C_1  and  O_2
REMARK    2  A    between atoms: O_2  and  C_3
REMARK    3  A    between atoms: C_5  and  N_6
REMARK    4  A    between atoms: N_6  and  C_7
REMARK    5  A    between atoms: C_8  and  C_9
REMARK    6  A    between atoms: C_15  and  C_16
REMARK    7  A    between atoms: C_17  and  C_18
REMARK    8  A    between atoms: C_18  and  C_19
REMARK    9  A    between atoms: C_19  and  N_20
REMARK   10  A    between atoms: N_20  and  C_21
REMARK   11  A    between atoms: N_20  and  C_22
REMARK   12  A    between atoms: C_23  and  O_24
REMARK   13  A    between atoms: O_24  and  C_25
REMARK                            x       y       z     vdW  Elec       q    Type
REMARK                         _______ _______ _______ _____ _____    ______ ____
ROOT
ATOM      1  C   UNL     1      -3.304  11.957  18.394  0.00  0.00    +0.000 A 
ATOM      2  C   UNL     1      -4.304  11.419  17.565  0.00  0.00    +0.000 A 
ATOM      3  C   UNL     1      -4.012  10.285  16.822  0.00  0.00    +0.000 A 
ATOM      4  N   UNL     1      -2.809   9.688  16.813  0.00  0.00    +0.000 NA
ATOM      5  C   UNL     1      -1.825  10.240  17.531  0.00  0.00    +0.000 A 
ATOM      6  C   UNL     1      -0.586   9.636  17.445  0.00  0.00    +0.000 A 
ATOM      7  C   UNL     1       0.552  10.131  18.092  0.00  0.00    +0.000 A 
ATOM      8  C   UNL     1       0.413  11.257  18.916  0.00  0.00    +0.000 A 
ATOM      9  C   UNL     1      -0.853  11.858  19.043  0.00  0.00    +0.000 A 
ATOM     10  C   UNL     1      -1.991  11.384  18.341  0.00  0.00    +0.000 A 
ENDROOT
BRANCH   1  11
ATOM     11  N   UNL     1      -3.605  12.994  19.324  0.00  0.00    +0.000 N 
ATOM     12  H   UNL     1      -3.332  13.934  19.055  0.00  0.00    +0.000 HD
BRANCH  11  15
ATOM     13  C   UNL     1      -2.951  12.237  22.932  0.00  0.00    +0.000 A 
ATOM     14  C   UNL     1      -2.768  12.419  21.558  0.00  0.00    +0.000 A 
ATOM     15  C   UNL     1      -3.794  12.903  20.730  0.00  0.00    +0.000 A 
ATOM     16  C   UNL     1      -5.025  13.229  21.328  0.00  0.00    +0.000 A 
ATOM     17 CL   UNL     1      -6.361  13.769  20.372  0.00  0.00    +0.000 Cl
ATOM     18  C   UNL     1      -5.209  13.106  22.707  0.00  0.00    +0.000 A 
ATOM     19  C   UNL     1      -4.175  12.605  23.502  0.00  0.00    +0.000 A 
ATOM     20 CL   UNL     1      -4.444  12.482  25.206  0.00  0.00    +0.000 Cl
BRANCH  13  22
ATOM     21  C   UNL     1      -1.060  10.804  23.162  0.00  0.00    +0.000 C 
ATOM     22  O   UNL     1      -2.006  11.685  23.758  0.00  0.00    +0.000 OA
ENDBRANCH  13  22
ENDBRANCH  11  15
ENDBRANCH   1  11
BRANCH   2  23
ATOM     23  C   UNL     1      -5.612  11.978  17.408  0.00  0.00    +0.000 C 
ATOM     24  N   UNL     1      -6.678  12.406  17.242  0.00  0.00    +0.000 NA
ENDBRANCH   2  23
BRANCH   7  25
ATOM     25  C   UNL     1       1.841   9.411  17.931  0.00  0.00    +0.000 C 
ATOM     26  C   UNL     1       1.966   8.082  18.045  0.00  0.00    +0.000 C 
BRANCH  26  27
ATOM     27  C   UNL     1       3.274   7.330  17.992  0.00  0.00    +0.000 C 
BRANCH  27  28
ATOM     28  C   UNL     1       3.034   5.812  18.149  0.00  0.00    +0.000 C 
BRANCH  28  29
ATOM     29  N   UNL     1       3.426   5.258  19.460  0.00  0.00    +0.000 NA
ATOM     30  C   UNL     1       2.282   5.119  20.362  0.00  0.00    +0.000 C 
ATOM     31  C   UNL     1       4.060   3.948  19.271  0.00  0.00    +0.000 C 
ENDBRANCH  28  29
ENDBRANCH  27  28
ENDBRANCH  26  27
ENDBRANCH   7  25
BRANCH   8  32
ATOM     32  O   UNL     1       1.544  11.713  19.549  0.00  0.00    +0.000 OA
ATOM     33  C   UNL     1       1.452  12.937  20.273  0.00  0.00    +0.000 C 
ENDBRANCH   8  32
TORSDOF 9
ENDMDL
MODEL 3
REMARK VINA RESULT:      -6.5      1.506      1.727
REMARK  Name = 
REMARK  13 active torsions:
REMARK  status: ('A' for Active; 'I' for Inactive)
REMARK    1  A    between atoms: C_1  and  O_2
REMARK    2  A    between atoms: O_2  and  C_3
REMARK    3  A    between atoms: C_5  and  N_6
REMARK    4  A    between atoms: N_6  and  C_7
REMARK    5  A    between atoms: C_8  and  C_9
REMARK    6  A    between atoms: C_15  and  C_16
REMARK    7  A    between atoms: C_17  and  C_18
REMARK    8  A    between atoms: C_18  and  C_19
REMARK    9  A    between atoms: C_19  and  N_20
REMARK   10  A    between atoms: N_20  and  C_21
REMARK   11  A    between atoms: N_20  and  C_22
REMARK   12  A    between atoms: C_23  and  O_24
REMARK   13  A    between atoms: O_24  and  C_25
REMARK                            x       y       z     vdW  Elec       q    Type
REMARK                         _______ _______ _______ _____ _____    ______ ____
ROOT
ATOM      1  C   UNL     1      -3.634  12.167  18.864  0.00  0.00    +0.000 A 
ATOM      2  C   UNL     1      -4.645  11.492  18.158  0.00  0.00    +0.000 A 
ATOM      3  C   UNL     1      -4.346  10.270  17.576  0.00  0.00    +0.000 A 
ATOM      4  N   UNL     1      -3.129   9.705  17.611  0.00  0.00    +0.000 NA
ATOM      5  C   UNL     1      -2.137  10.376  18.206  0.00  0.00    +0.000 A 
ATOM      6  C   UNL     1      -0.886   9.794  18.164  0.00  0.00    +0.000 A 
ATOM      7  C   UNL     1       0.259  10.403  18.692  0.00  0.00    +0.000 A 
ATOM      8  C   UNL     1       0.116  11.633  19.349  0.00  0.00    +0.000 A 
ATOM      9  C   UNL     1      -1.161  12.218  19.432  0.00  0.00    +0.000 A 
ATOM     10  C   UNL     1      -2.309  11.622  18.847  0.00  0.00    +0.000 A 
ENDROOT
BRANCH   1  11
ATOM     11  N   UNL     1      -3.932  13.322  19.644  0.00  0.00    +0.000 N 
ATOM     12  H   UNL     1      -3.942  14.210  19.151  0.00  0.00    +0.000 HD
BRANCH  11  15
ATOM     13  C   UNL     1      -4.433  12.983  23.339  0.00  0.00    +0.000 A 
ATOM     14  C   UNL     1      -4.507  12.756  21.962  0.00  0.00    +0.000 A 
ATOM     15  C   UNL     1      -3.769  13.519  21.042  0.00  0.00    +0.000 A 
ATOM     16  C   UNL     1      -2.919  14.519  21.549  0.00  0.00    +0.000 A 
ATOM     17 CL   UNL     1      -2.025  15.547  20.483  0.00  0.00    +0.000 Cl
ATOM     18  C   UNL     1      -2.789  14.724  22.924  0.00  0.00    +0.000 A 
ATOM     19  C   UNL     1      -3.551  13.961  23.813  0.00  0.00    +0.000 A 
ATOM     20 CL   UNL     1      -3.348  14.241  25.508  0.00  0.00    +0.000 Cl
BRANCH  13  22
ATOM     21  C   UNL     1      -6.606  12.551  24.219  0.00  0.00    +0.000 C 
ATOM     22  O   UNL     1      -5.202  12.321  24.261  0.00  0.00    +0.000 OA
ENDBRANCH  13  22
ENDBRANCH  11  15
ENDBRANCH   1  11
BRANCH   2  23
ATOM     23  C   UNL     1      -5.971  11.994  17.968  0.00  0.00    +0.000 C 
ATOM     24  N   UNL     1      -7.038  12.435  17.846  0.00  0.00    +0.000 NA
ENDBRANCH   2  23
BRANCH   7  25
ATOM     25  C   UNL     1       1.561   9.696  18.591  0.00  0.00    +0.000 C 
ATOM     26  C   UNL     1       1.787   8.676  17.750  0.00  0.00    +0.000 C 
BRANCH  26  27
ATOM     27  C   UNL     1       3.061   7.869  17.696  0.00  0.00    +0.000 C 
BRANCH  27  28
ATOM     28  C   UNL     1       3.007   6.703  18.708  0.00  0.00    +0.000 C 
BRANCH  28  29
ATOM     29  N   UNL     1       3.579   5.433  18.217  0.00  0.00    +0.000 NA
ATOM     30  C   UNL     1       4.461   5.636  17.068  0.00  0.00    +0.000 C 
ATOM     31  C   UNL     1       4.327   4.780  19.298  0.00  0.00    +0.000 C 
ENDBRANCH  28  29
ENDBRANCH  27  28
ENDBRANCH  26  27
ENDBRANCH   7  25
BRANCH   8  32
ATOM     32  O   UNL     1       1.253  12.201  19.868  0.00  0.00    +0.000 OA
ATOM     33  C   UNL     1       1.103  13.351  20.697  0.00  0.00    +0.000 C 
ENDBRANCH   8  32
TORSDOF 9
ENDMDL
MODEL 4
REMARK VINA RESULT:      -6.4      1.633      2.031
REMARK  Name = 
REMARK  13 active torsions:
REMARK  status: ('A' for Active; 'I' for Inactive)
REMARK    1  A    between atoms: C_1  and  O_2
REMARK    2  A    between atoms: O_2  and  C_3
REMARK    3  A    between atoms: C_5  and  N_6
REMARK    4  A    between atoms: N_6  and  C_7
REMARK    5  A    between atoms: C_8  and  C_9
REMARK    6  A    between atoms: C_15  and  C_16
REMARK    7  A    between atoms: C_17  and  C_18
REMARK    8  A    between atoms: C_18  and  C_19
REMARK    9  A    between atoms: C_19  and  N_20
REMARK   10  A    between atoms: N_20  and  C_21
REMARK   11  A    between atoms: N_20  and  C_22
REMARK   12  A    between atoms: C_23  and  O_24
REMARK   13  A    between atoms: O_24  and  C_25
REMARK                            x       y       z     vdW  Elec       q    Type
REMARK                         _______ _______ _______ _____ _____    ______ ____
ROOT
ATOM      1  C   UNL     1      -3.078  12.053  18.731  0.00  0.00    +0.000 A 
ATOM      2  C   UNL     1      -4.122  11.526  17.951  0.00  0.00    +0.000 A 
ATOM      3  C   UNL     1      -3.880  10.385  17.201  0.00  0.00    +0.000 A 
ATOM      4  N   UNL     1      -2.688   9.771  17.140  0.00  0.00    +0.000 NA
ATOM      5  C   UNL     1      -1.664  10.312  17.809  0.00  0.00    +0.000 A 
ATOM      6  C   UNL     1      -0.439   9.690  17.669  0.00  0.00    +0.000 A 
ATOM      7  C   UNL     1       0.735  10.171  18.260  0.00  0.00    +0.000 A 
ATOM      8  C   UNL     1       0.650  11.302  19.085  0.00  0.00    +0.000 A 
ATOM      9  C   UNL     1      -0.601  11.922  19.266  0.00  0.00    +0.000 A 
ATOM     10  C   UNL     1      -1.777  11.462  18.619  0.00  0.00    +0.000 A 
ENDROOT
BRANCH   1  11
ATOM     11  N   UNL     1      -3.321  13.098  19.668  0.00  0.00    +0.000 N 
ATOM     12  H   UNL     1      -2.955  14.015  19.427  0.00  0.00    +0.000 HD
BRANCH  11  15
ATOM     13  C   UNL     1      -5.124  12.526  22.899  0.00  0.00    +0.000 A 
ATOM     14  C   UNL     1      -4.815  12.551  21.536  0.00  0.00    +0.000 A 
ATOM     15  C   UNL     1      -3.572  13.003  21.064  0.00  0.00    +0.000 A 
ATOM     16  C   UNL     1      -2.617  13.414  22.012  0.00  0.00    +0.000 A 
ATOM     17 CL   UNL     1      -1.086  14.045  21.513  0.00  0.00    +0.000 Cl
ATOM     18  C   UNL     1      -2.887  13.344  23.380  0.00  0.00    +0.000 A 
ATOM     19  C   UNL     1      -4.140  12.907  23.818  0.00  0.00    +0.000 A 
ATOM     20 CL   UNL     1      -4.425  12.825  25.522  0.00  0.00    +0.000 Cl
BRANCH  13  22
ATOM     21  C   UNL     1      -7.362  13.181  23.392  0.00  0.00    +0.000 C 
ATOM     22  O   UNL     1      -6.354  12.177  23.393  0.00  0.00    +0.000 OA
ENDBRANCH  13  22
ENDBRANCH  11  15
ENDBRANCH   1  11
BRANCH   2  23
ATOM     23  C   UNL     1      -5.428  12.103  17.851  0.00  0.00    +0.000 C 
ATOM     24  N   UNL     1      -6.477  12.596  17.810  0.00  0.00    +0.000 NA
ENDBRANCH   2  23
BRANCH   7  25
ATOM     25  C   UNL     1       2.005   9.432  18.044  0.00  0.00    +0.000 C 
ATOM     26  C   UNL     1       2.069   8.104  17.875  0.00  0.00    +0.000 C 
BRANCH  26  27
ATOM     27  C   UNL     1       3.347   7.311  17.759  0.00  0.00    +0.000 C 
BRANCH  27  28
ATOM     28  C   UNL     1       3.098   5.827  18.109  0.00  0.00    +0.000 C 
BRANCH  28  29
ATOM     29  N   UNL     1       4.297   4.967  18.042  0.00  0.00    +0.000 NA
ATOM     30  C   UNL     1       4.278   4.087  16.874  0.00  0.00    +0.000 C 
ATOM     31  C   UNL     1       5.502   5.805  18.003  0.00  0.00    +0.000 C 
ENDBRANCH  28  29
ENDBRANCH  27  28
ENDBRANCH  26  27
ENDBRANCH   7  25
BRANCH   8  32
ATOM     32  O   UNL     1       1.814  11.745  19.662  0.00  0.00    +0.000 OA
ATOM     33  C   UNL     1       2.028  13.153  19.732  0.00  0.00    +0.000 C 
ENDBRANCH   8  32
TORSDOF 9
ENDMDL
MODEL 5
REMARK VINA RESULT:      -6.4      1.669      1.856
REMARK  Name = 
REMARK  13 active torsions:
REMARK  status: ('A' for Active; 'I' for Inactive)
REMARK    1  A    between atoms: C_1  and  O_2
REMARK    2  A    between atoms: O_2  and  C_3
REMARK    3  A    between atoms: C_5  and  N_6
REMARK    4  A    between atoms: N_6  and  C_7
REMARK    5  A    between atoms: C_8  and  C_9
REMARK    6  A    between atoms: C_15  and  C_16
REMARK    7  A    between atoms: C_17  and  C_18
REMARK    8  A    between atoms: C_18  and  C_19
REMARK    9  A    between atoms: C_19  and  N_20
REMARK   10  A    between atoms: N_20  and  C_21
REMARK   11  A    between atoms: N_20  and  C_22
REMARK   12  A    between atoms: C_23  and  O_24
REMARK   13  A    between atoms: O_24  and  C_25
REMARK                            x       y       z     vdW  Elec       q    Type
REMARK                         _______ _______ _______ _____ _____    ______ ____
ROOT
ATOM      1  C   UNL     1      -3.172  11.903  18.286  0.00  0.00    +0.000 A 
ATOM      2  C   UNL     1      -4.180  11.407  17.440  0.00  0.00    +0.000 A 
ATOM      3  C   UNL     1      -3.918  10.269  16.692  0.00  0.00    +0.000 A 
ATOM      4  N   UNL     1      -2.738   9.630  16.694  0.00  0.00    +0.000 NA
ATOM      5  C   UNL     1      -1.744  10.141  17.429  0.00  0.00    +0.000 A 
ATOM      6  C   UNL     1      -0.526   9.493  17.355  0.00  0.00    +0.000 A 
ATOM      7  C   UNL     1       0.620   9.943  18.020  0.00  0.00    +0.000 A 
ATOM      8  C   UNL     1       0.510  11.067  18.851  0.00  0.00    +0.000 A 
ATOM      9  C   UNL     1      -0.735  11.712  18.966  0.00  0.00    +0.000 A 
ATOM     10  C   UNL     1      -1.881  11.284  18.245  0.00  0.00    +0.000 A 
ENDROOT
BRANCH   1  11
ATOM     11  N   UNL     1      -3.448  12.944  19.219  0.00  0.00    +0.000 N 
ATOM     12  H   UNL     1      -3.145  13.877  18.958  0.00  0.00    +0.000 HD
BRANCH  11  15
ATOM     13  C   UNL     1      -2.830  12.177  22.832  0.00  0.00    +0.000 A 
ATOM     14  C   UNL     1      -2.634  12.361  21.460  0.00  0.00    +0.000 A 
ATOM     15  C   UNL     1      -3.651  12.850  20.624  0.00  0.00    +0.000 A 
ATOM     16  C   UNL     1      -4.885  13.180  21.211  0.00  0.00    +0.000 A 
ATOM     17 CL   UNL     1      -6.211  13.727  20.244  0.00  0.00    +0.000 Cl
ATOM     18  C   UNL     1      -5.083  13.055  22.588  0.00  0.00    +0.000 A 
ATOM     19  C   UNL     1      -4.058  12.548  23.392  0.00  0.00    +0.000 A 
ATOM     20 CL   UNL     1      -4.343  12.423  25.093  0.00  0.00    +0.000 Cl
BRANCH  13  22
ATOM     21  C   UNL     1      -1.034  10.634  23.105  0.00  0.00    +0.000 C 
ATOM     22  O   UNL     1      -1.895  11.620  23.665  0.00  0.00    +0.000 OA
ENDBRANCH  13  22
ENDBRANCH  11  15
ENDBRANCH   1  11
BRANCH   2  23
ATOM     23  C   UNL     1      -5.464  12.014  17.270  0.00  0.00    +0.000 C 
ATOM     24  N   UNL     1      -6.506  12.518  17.178  0.00  0.00    +0.000 NA
ENDBRANCH   2  23
BRANCH   7  25
ATOM     25  C   UNL     1       1.884   9.178  17.871  0.00  0.00    +0.000 C 
ATOM     26  C   UNL     1       2.105   7.990  18.450  0.00  0.00    +0.000 C 
BRANCH  26  27
ATOM     27  C   UNL     1       3.411   7.237  18.406  0.00  0.00    +0.000 C 
BRANCH  27  28
ATOM     28  C   UNL     1       3.195   5.805  17.869  0.00  0.00    +0.000 C 
BRANCH  28  29
ATOM     29  N   UNL     1       4.354   5.231  17.157  0.00  0.00    +0.000 NA
ATOM     30  C   UNL     1       5.077   6.239  16.382  0.00  0.00    +0.000 C 
ATOM     31  C   UNL     1       5.267   4.611  18.125  0.00  0.00    +0.000 C 
ENDBRANCH  28  29
ENDBRANCH  27  28
ENDBRANCH  26  27
ENDBRANCH   7  25
BRANCH   8  32
ATOM     32  O   UNL     1       1.647  11.478  19.502  0.00  0.00    +0.000 OA
ATOM     33  C   UNL     1       2.033  12.843  19.368  0.00  0.00    +0.000 C 
ENDBRANCH   8  32
TORSDOF 9
ENDMDL
MODEL 6
REMARK VINA RESULT:      -6.3      1.806      2.007
REMARK  Name = 
REMARK  13 active torsions:
REMARK  status: ('A' for Active; 'I' for Inactive)
REMARK    1  A    between atoms: C_1  and  O_2
REMARK    2  A    between atoms: O_2  and  C_3
REMARK    3  A    between atoms: C_5  and  N_6
REMARK    4  A    between atoms: N_6  and  C_7
REMARK    5  A    between atoms: C_8  and  C_9
REMARK    6  A    between atoms: C_15  and  C_16
REMARK    7  A    between atoms: C_17  and  C_18
REMARK    8  A    between atoms: C_18  and  C_19
REMARK    9  A    between atoms: C_19  and  N_20
REMARK   10  A    between atoms: N_20  and  C_21
REMARK   11  A    between atoms: N_20  and  C_22
REMARK   12  A    between atoms: C_23  and  O_24
REMARK   13  A    between atoms: O_24  and  C_25
REMARK                            x       y       z     vdW  Elec       q    Type
REMARK                         _______ _______ _______ _____ _____    ______ ____
ROOT
ATOM      1  C   UNL     1      -3.436  11.950  18.558  0.00  0.00    +0.000 A 
ATOM      2  C   UNL     1      -4.409  11.358  17.733  0.00  0.00    +0.000 A 
ATOM      3  C   UNL     1      -4.087  10.190  17.060  0.00  0.00    +0.000 A 
ATOM      4  N   UNL     1      -2.880   9.605  17.115  0.00  0.00    +0.000 NA
ATOM      5  C   UNL     1      -1.919  10.205  17.827  0.00  0.00    +0.000 A 
ATOM      6  C   UNL     1      -0.674   9.609  17.806  0.00  0.00    +0.000 A 
ATOM      7  C   UNL     1       0.443  10.150  18.454  0.00  0.00    +0.000 A 
ATOM      8  C   UNL     1       0.273  11.316  19.213  0.00  0.00    +0.000 A 
ATOM      9  C   UNL     1      -1.002  11.911  19.274  0.00  0.00    +0.000 A 
ATOM     10  C   UNL     1      -2.117  11.389  18.569  0.00  0.00    +0.000 A 
ENDROOT
BRANCH   1  11
ATOM     11  N   UNL     1      -3.770  13.033  19.422  0.00  0.00    +0.000 N 
ATOM     12  H   UNL     1      -3.647  13.967  19.043  0.00  0.00    +0.000 HD
BRANCH  11  15
ATOM     13  C   UNL     1      -2.638  13.400  22.972  0.00  0.00    +0.000 A 
ATOM     14  C   UNL     1      -2.666  13.443  21.575  0.00  0.00    +0.000 A 
ATOM     15  C   UNL     1      -3.802  13.061  20.843  0.00  0.00    +0.000 A 
ATOM     16  C   UNL     1      -4.940  12.650  21.560  0.00  0.00    +0.000 A 
ATOM     17 CL   UNL     1      -6.358  12.101  20.735  0.00  0.00    +0.000 Cl
ATOM     18  C   UNL     1      -4.950  12.653  22.956  0.00  0.00    +0.000 A 
ATOM     19  C   UNL     1      -3.799  13.021  23.657  0.00  0.00    +0.000 A 
ATOM     20 CL   UNL     1      -3.861  13.022  25.385  0.00  0.00    +0.000 Cl
BRANCH  13  22
ATOM     21  C   UNL     1      -1.135  15.045  23.819  0.00  0.00    +0.000 C 
ATOM     22  O   UNL     1      -1.522  13.679  23.718  0.00  0.00    +0.000 OA
ENDBRANCH  13  22
ENDBRANCH  11  15
ENDBRANCH   1  11
BRANCH   2  23
ATOM     23  C   UNL     1      -5.716  11.896  17.512  0.00  0.00    +0.000 C 
ATOM     24  N   UNL     1      -6.758  12.362  17.302  0.00  0.00    +0.000 NA
ENDBRANCH   2  23
BRANCH   7  25
ATOM     25  C   UNL     1       1.742   9.435  18.366  0.00  0.00    +0.000 C 
ATOM     26  C   UNL     1       1.869   8.184  17.902  0.00  0.00    +0.000 C 
BRANCH  26  27
ATOM     27  C   UNL     1       3.153   7.392  17.896  0.00  0.00    +0.000 C 
BRANCH  27  28
ATOM     28  C   UNL     1       2.857   5.878  17.810  0.00  0.00    +0.000 C 
BRANCH  28  29
ATOM     29  N   UNL     1       3.433   5.074  18.906  0.00  0.00    +0.000 NA
ATOM     30  C   UNL     1       4.810   5.464  19.209  0.00  0.00    +0.000 C 
ATOM     31  C   UNL     1       2.607   5.220  20.111  0.00  0.00    +0.000 C 
ENDBRANCH  28  29
ENDBRANCH  27  28
ENDBRANCH  26  27
ENDBRANCH   7  25
BRANCH   8  32
ATOM     32  O   UNL     1       1.382  11.817  19.849  0.00  0.00    +0.000 OA
ATOM     33  C   UNL     1       1.178  12.774  20.886  0.00  0.00    +0.000 C 
ENDBRANCH   8  32
TORSDOF 9
ENDMDL
MODEL 7
REMARK VINA RESULT:      -6.2      2.285      3.632
REMARK  Name = 
REMARK  13 active torsions:
REMARK  status: ('A' for Active; 'I' for Inactive)
REMARK    1  A    between atoms: C_1  and  O_2
REMARK    2  A    between atoms: O_2  and  C_3
REMARK    3  A    between atoms: C_5  and  N_6
REMARK    4  A    between atoms: N_6  and  C_7
REMARK    5  A    between atoms: C_8  and  C_9
REMARK    6  A    between atoms: C_15  and  C_16
REMARK    7  A    between atoms: C_17  and  C_18
REMARK    8  A    between atoms: C_18  and  C_19
REMARK    9  A    between atoms: C_19  and  N_20
REMARK   10  A    between atoms: N_20  and  C_21
REMARK   11  A    between atoms: N_20  and  C_22
REMARK   12  A    between atoms: C_23  and  O_24
REMARK   13  A    between atoms: O_24  and  C_25
REMARK                            x       y       z     vdW  Elec       q    Type
REMARK                         _______ _______ _______ _____ _____    ______ ____
ROOT
ATOM      1  C   UNL     1      -1.455  13.429  20.447  0.00  0.00    +0.000 A 
ATOM      2  C   UNL     1      -0.725  14.122  21.428  0.00  0.00    +0.000 A 
ATOM      3  C   UNL     1       0.615  13.811  21.602  0.00  0.00    +0.000 A 
ATOM      4  N   UNL     1       1.254  12.851  20.913  0.00  0.00    +0.000 NA
ATOM      5  C   UNL     1       0.549  12.126  20.038  0.00  0.00    +0.000 A 
ATOM      6  C   UNL     1       1.224  11.106  19.397  0.00  0.00    +0.000 A 
ATOM      7  C   UNL     1       0.607  10.228  18.499  0.00  0.00    +0.000 A 
ATOM      8  C   UNL     1      -0.745  10.434  18.187  0.00  0.00    +0.000 A 
ATOM      9  C   UNL     1      -1.433  11.495  18.804  0.00  0.00    +0.000 A 
ATOM     10  C   UNL     1      -0.817  12.348  19.756  0.00  0.00    +0.000 A 
ENDROOT
BRANCH   1  11
ATOM     11  N   UNL     1      -2.772  13.840  20.090  0.00  0.00    +0.000 N 
ATOM     12  H   UNL     1      -2.854  14.738  19.623  0.00  0.00    +0.000 HD
BRANCH  11  15
ATOM     13  C   UNL     1      -5.566  13.494  22.559  0.00  0.00    +0.000 A 
ATOM     14  C   UNL     1      -4.393  13.924  21.930  0.00  0.00    +0.000 A 
ATOM     15  C   UNL     1      -4.013  13.450  20.664  0.00  0.00    +0.000 A 
ATOM     16  C   UNL     1      -4.866  12.536  20.019  0.00  0.00    +0.000 A 
ATOM     17 CL   UNL     1      -4.440  11.853  18.488  0.00  0.00    +0.000 Cl
ATOM     18  C   UNL     1      -6.068  12.137  20.607  0.00  0.00    +0.000 A 
ATOM     19  C   UNL     1      -6.410  12.612  21.876  0.00  0.00    +0.000 A 
ATOM     20 CL   UNL     1      -7.915  12.101  22.559  0.00  0.00    +0.000 Cl
BRANCH  13  22
ATOM     21  C   UNL     1      -6.327  15.216  24.021  0.00  0.00    +0.000 C 
ATOM     22  O   UNL     1      -5.926  13.865  23.829  0.00  0.00    +0.000 OA
ENDBRANCH  13  22
ENDBRANCH  11  15
ENDBRANCH   1  11
BRANCH   2  23
ATOM     23  C   UNL     1      -1.276  15.120  22.292  0.00  0.00    +0.000 C 
ATOM     24  N   UNL     1      -1.710  15.903  23.031  0.00  0.00    +0.000 NA
ENDBRANCH   2  23
BRANCH   7  25
ATOM     25  C   UNL     1       1.420   9.158  17.866  0.00  0.00    +0.000 C 
ATOM     26  C   UNL     1       2.113   8.245  18.561  0.00  0.00    +0.000 C 
BRANCH  26  27
ATOM     27  C   UNL     1       3.030   7.213  17.955  0.00  0.00    +0.000 C 
BRANCH  27  28
ATOM     28  C   UNL     1       3.216   6.019  18.918  0.00  0.00    +0.000 C 
BRANCH  28  29
ATOM     29  N   UNL     1       3.088   4.690  18.287  0.00  0.00    +0.000 NA
ATOM     30  C   UNL     1       1.734   4.448  17.788  0.00  0.00    +0.000 C 
ATOM     31  C   UNL     1       4.044   4.577  17.179  0.00  0.00    +0.000 C 
ENDBRANCH  28  29
ENDBRANCH  27  28
ENDBRANCH  26  27
ENDBRANCH   7  25
BRANCH   8  32
ATOM     32  O   UNL     1      -1.321   9.565  17.293  0.00  0.00    +0.000 OA
ATOM     33  C   UNL     1      -2.306  10.084  16.403  0.00  0.00    +0.000 C 
ENDBRANCH   8  32
TORSDOF 9
ENDMDL
MODEL 8
REMARK VINA RESULT:      -6.2      4.906      6.589
REMARK  Name = 
REMARK  13 active torsions:
REMARK  status: ('A' for Active; 'I' for Inactive)
REMARK    1  A    between atoms: C_1  and  O_2
REMARK    2  A    between atoms: O_2  and  C_3
REMARK    3  A    between atoms: C_5  and  N_6
REMARK    4  A    between atoms: N_6  and  C_7
REMARK    5  A    between atoms: C_8  and  C_9
REMARK    6  A    between atoms: C_15  and  C_16
REMARK    7  A    between atoms: C_17  and  C_18
REMARK    8  A    between atoms: C_18  and  C_19
REMARK    9  A    between atoms: C_19  and  N_20
REMARK   10  A    between atoms: N_20  and  C_21
REMARK   11  A    between atoms: N_20  and  C_22
REMARK   12  A    between atoms: C_23  and  O_24
REMARK   13  A    between atoms: O_24  and  C_25
REMARK                            x       y       z     vdW  Elec       q    Type
REMARK                         _______ _______ _______ _____ _____    ______ ____
ROOT
ATOM      1  C   UNL     1      -0.028  11.227  20.820  0.00  0.00    +0.000 A 
ATOM      2  C   UNL     1      -0.769  11.548  21.971  0.00  0.00    +0.000 A 
ATOM      3  C   UNL     1      -0.856  10.610  22.988  0.00  0.00    +0.000 A 
ATOM      4  N   UNL     1      -0.305   9.387  22.924  0.00  0.00    +0.000 NA
ATOM      5  C   UNL     1       0.329   9.037  21.800  0.00  0.00    +0.000 A 
ATOM      6  C   UNL     1       0.824   7.749  21.746  0.00  0.00    +0.000 A 
ATOM      7  C   UNL     1       1.460   7.222  20.616  0.00  0.00    +0.000 A 
ATOM      8  C   UNL     1       1.659   8.061  19.511  0.00  0.00    +0.000 A 
ATOM      9  C   UNL     1       1.193   9.388  19.569  0.00  0.00    +0.000 A 
ATOM     10  C   UNL     1       0.500   9.900  20.696  0.00  0.00    +0.000 A 
ENDROOT
BRANCH   1  11
ATOM     11  N   UNL     1       0.260  12.216  19.836  0.00  0.00    +0.000 N 
ATOM     12  H   UNL     1      -0.024  12.002  18.884  0.00  0.00    +0.000 HD
BRANCH  11  15
ATOM     13  C   UNL     1       2.060  15.390  20.673  0.00  0.00    +0.000 A 
ATOM     14  C   UNL     1       1.136  14.341  20.695  0.00  0.00    +0.000 A 
ATOM     15  C   UNL     1       1.262  13.224  19.852  0.00  0.00    +0.000 A 
ATOM     16  C   UNL     1       2.370  13.173  18.987  0.00  0.00    +0.000 A 
ATOM     17 CL   UNL     1       2.565  11.866  17.871  0.00  0.00    +0.000 Cl
ATOM     18  C   UNL     1       3.333  14.185  18.991  0.00  0.00    +0.000 A 
ATOM     19  C   UNL     1       3.171  15.292  19.828  0.00  0.00    +0.000 A 
ATOM     20 CL   UNL     1       4.393  16.515  19.808  0.00  0.00    +0.000 Cl
BRANCH  13  22
ATOM     21  C   UNL     1       2.243  16.453  22.799  0.00  0.00    +0.000 C 
ATOM     22  O   UNL     1       1.925  16.535  21.415  0.00  0.00    +0.000 OA
ENDBRANCH  13  22
ENDBRANCH  11  15
ENDBRANCH   1  11
BRANCH   2  23
ATOM     23  C   UNL     1      -1.473  12.779  22.161  0.00  0.00    +0.000 C 
ATOM     24  N   UNL     1      -2.040  13.771  22.363  0.00  0.00    +0.000 NA
ENDBRANCH   2  23
BRANCH   7  25
ATOM     25  C   UNL     1       1.953   5.821  20.657  0.00  0.00    +0.000 C 
ATOM     26  C   UNL     1       1.161   4.752  20.493  0.00  0.00    +0.000 C 
BRANCH  26  27
ATOM     27  C   UNL     1       1.607   3.318  20.633  0.00  0.00    +0.000 C 
BRANCH  27  28
ATOM     28  C   UNL     1       1.279   2.520  19.351  0.00  0.00    +0.000 C 
BRANCH  28  29
ATOM     29  N   UNL     1       2.445   2.220  18.495  0.00  0.00    +0.000 NA
ATOM     30  C   UNL     1       2.563   3.159  17.379  0.00  0.00    +0.000 C 
ATOM     31  C   UNL     1       3.671   2.263  19.301  0.00  0.00    +0.000 C 
ENDBRANCH  28  29
ENDBRANCH  27  28
ENDBRANCH  26  27
ENDBRANCH   7  25
BRANCH   8  32
ATOM     32  O   UNL     1       2.297   7.521  18.421  0.00  0.00    +0.000 OA
ATOM     33  C   UNL     1       3.025   8.404  17.572  0.00  0.00    +0.000 C 
ENDBRANCH   8  32
TORSDOF 9
ENDMDL
MODEL 9
REMARK VINA RESULT:      -6.2      2.090      2.441
REMARK  Name = 
REMARK  13 active torsions:
REMARK  status: ('A' for Active; 'I' for Inactive)
REMARK    1  A    between atoms: C_1  and  O_2
REMARK    2  A    between atoms: O_2  and  C_3
REMARK    3  A    between atoms: C_5  and  N_6
REMARK    4  A    between atoms: N_6  and  C_7
REMARK    5  A    between atoms: C_8  and  C_9
REMARK    6  A    between atoms: C_15  and  C_16
REMARK    7  A    between atoms: C_17  and  C_18
REMARK    8  A    between atoms: C_18  and  C_19
REMARK    9  A    between atoms: C_19  and  N_20
REMARK   10  A    between atoms: N_20  and  C_21
REMARK   11  A    between atoms: N_20  and  C_22
REMARK   12  A    between atoms: C_23  and  O_24
REMARK   13  A    between atoms: O_24  and  C_25
REMARK                            x       y       z     vdW  Elec       q    Type
REMARK                         _______ _______ _______ _____ _____    ______ ____
ROOT
ATOM      1  C   UNL     1      -2.712  12.299  19.041  0.00  0.00    +0.000 A 
ATOM      2  C   UNL     1      -3.906  11.678  18.633  0.00  0.00    +0.000 A 
ATOM      3  C   UNL     1      -3.842  10.397  18.106  0.00  0.00    +0.000 A 
ATOM      4  N   UNL     1      -2.696   9.723  17.921  0.00  0.00    +0.000 NA
ATOM      5  C   UNL     1      -1.546  10.335  18.225  0.00  0.00    +0.000 A 
ATOM      6  C   UNL     1      -0.386   9.635  17.960  0.00  0.00    +0.000 A 
ATOM      7  C   UNL     1       0.892  10.166  18.170  0.00  0.00    +0.000 A 
ATOM      8  C   UNL     1       0.997  11.445  18.736  0.00  0.00    +0.000 A 
ATOM      9  C   UNL     1      -0.179  12.152  19.047  0.00  0.00    +0.000 A 
ATOM     10  C   UNL     1      -1.472  11.631  18.780  0.00  0.00    +0.000 A 
ENDROOT
BRANCH   1  11
ATOM     11  N   UNL     1      -2.737  13.525  19.766  0.00  0.00    +0.000 N 
ATOM     12  H   UNL     1      -2.343  14.335  19.297  0.00  0.00    +0.000 HD
BRANCH  11  15
ATOM     13  C   UNL     1      -4.077  13.735  23.256  0.00  0.00    +0.000 A 
ATOM     14  C   UNL     1      -3.968  13.466  21.888  0.00  0.00    +0.000 A 
ATOM     15  C   UNL     1      -2.788  13.727  21.172  0.00  0.00    +0.000 A 
ATOM     16  C   UNL     1      -1.691  14.251  21.879  0.00  0.00    +0.000 A 
ATOM     17 CL   UNL     1      -0.223  14.662  21.062  0.00  0.00    +0.000 Cl
ATOM     18  C   UNL     1      -1.763  14.475  23.256  0.00  0.00    +0.000 A 
ATOM     19  C   UNL     1      -2.956  14.223  23.937  0.00  0.00    +0.000 A 
ATOM     20 CL   UNL     1      -2.996  14.502  25.643  0.00  0.00    +0.000 Cl
BRANCH  13  22
ATOM     21  C   UNL     1      -6.213  12.692  23.434  0.00  0.00    +0.000 C 
ATOM     22  O   UNL     1      -5.237  13.578  23.970  0.00  0.00    +0.000 OA
ENDBRANCH  13  22
ENDBRANCH  11  15
ENDBRANCH   1  11
BRANCH   2  23
ATOM     23  C   UNL     1      -5.198  12.289  18.696  0.00  0.00    +0.000 C 
ATOM     24  N   UNL     1      -6.265  12.743  18.756  0.00  0.00    +0.000 NA
ENDBRANCH   2  23
BRANCH   7  25
ATOM     25  C   UNL     1       2.079   9.334  17.847  0.00  0.00    +0.000 C 
ATOM     26  C   UNL     1       2.144   8.015  18.079  0.00  0.00    +0.000 C 
BRANCH  26  27
ATOM     27  C   UNL     1       3.368   7.161  17.861  0.00  0.00    +0.000 C 
BRANCH  27  28
ATOM     28  C   UNL     1       3.401   5.992  18.871  0.00  0.00    +0.000 C 
BRANCH  28  29
ATOM     29  N   UNL     1       2.078   5.426  19.203  0.00  0.00    +0.000 NA
ATOM     30  C   UNL     1       1.805   4.195  18.461  0.00  0.00    +0.000 C 
ATOM     31  C   UNL     1       2.007   5.154  20.644  0.00  0.00    +0.000 C 
ENDBRANCH  28  29
ENDBRANCH  27  28
ENDBRANCH  26  27
ENDBRANCH   7  25
BRANCH   8  32
ATOM     32  O   UNL     1       2.263  11.936  18.943  0.00  0.00    +0.000 OA
ATOM     33  C   UNL     1       2.567  13.228  18.426  0.00  0.00    +0.000 C 
ENDBRANCH   8  32
TORSDOF 9
ENDMDL
