MODEL 1
REMARK VINA RESULT:     -10.4      0.000      0.000
REMARK  Name = 
REMARK  6 active torsions:
REMARK  status: ('A' for Active; 'I' for Inactive)
REMARK    1  A    between atoms: C_1  and  C_2
REMARK    2  A    between atoms: C_6  and  N_7
REMARK    3  A    between atoms: C_8  and  C_10
REMARK    4  A    between atoms: N_13  and  S_14
REMARK    5  A    between atoms: S_14  and  C_17
REMARK    6  A    between atoms: C_27  and  C_29
REMARK                            x       y       z     vdW  Elec       q    Type
REMARK                         _______ _______ _______ _____ _____    ______ ____
ROOT
ATOM      1  S   UNL     1       2.571   5.555  19.622  0.00  0.00    +0.000 S 
ATOM      2  O   UNL     1       1.842   4.960  18.522  0.00  0.00    +0.000 OA
ATOM      3  O   UNL     1       2.614   4.934  20.929  0.00  0.00    +0.000 OA
ENDROOT
BRANCH   1   4
ATOM      4  C   UNL     1       1.898   7.199  19.836  0.00  0.00    +0.000 A 
ATOM      5  C   UNL     1       1.728   8.060  18.747  0.00  0.00    +0.000 A 
ATOM      6  C   UNL     1       1.029   9.278  18.912  0.00  0.00    +0.000 A 
ATOM      7  C   UNL     1       0.434   9.602  20.138  0.00  0.00    +0.000 A 
ATOM      8  C   UNL     1       0.660   8.738  21.222  0.00  0.00    +0.000 A 
ATOM      9  C   UNL     1       1.447   7.592  21.083  0.00  0.00    +0.000 A 
ATOM     10  C   UNL     1      -0.136   8.856  22.492  0.00  0.00    +0.000 C 
ATOM     11  C   UNL     1      -0.485  10.274  22.876  0.00  0.00    +0.000 C 
ATOM     12  C   UNL     1      -0.266  11.282  21.763  0.00  0.00    +0.000 C 
ATOM     13  N   UNL     1      -0.397  10.736  20.403  0.00  0.00    +0.000 N 
ATOM     14  C   UNL     1      -1.354  11.342  19.570  0.00  0.00    +0.000 C 
ATOM     15  O   UNL     1      -2.160  12.154  20.062  0.00  0.00    +0.000 OA
BRANCH  14  16
ATOM     16  C   UNL     1      -1.438  11.029  18.065  0.00  0.00    +0.000 C 
ATOM     17  C   UNL     1      -2.188   9.761  17.584  0.00  0.00    +0.000 C 
ATOM     18  C   UNL     1      -2.749  10.587  16.413  0.00  0.00    +0.000 C 
ATOM     19  C   UNL     1      -2.503  11.842  17.258  0.00  0.00    +0.000 C 
ENDBRANCH  14  16
ENDBRANCH   1   4
BRANCH   1  23
ATOM     20  C   UNL     1       6.885   5.906  17.920  0.00  0.00    +0.000 C 
ATOM     21  C   UNL     1       6.510   5.008  19.107  0.00  0.00    +0.000 C 
ATOM     22  C   UNL     1       5.053   4.547  19.047  0.00  0.00    +0.000 C 
ATOM     23  N   UNL     1       4.213   5.779  19.108  0.00  0.00    +0.000 NA
ATOM     24  C   UNL     1       4.350   6.510  17.816  0.00  0.00    +0.000 C 
ATOM     25  C   UNL     1       5.808   6.957  17.604  0.00  0.00    +0.000 C 
BRANCH  20  27
ATOM     26  N   UNL     1       6.548   5.381  15.565  0.00  0.00    +0.000 N 
ATOM     27  C   UNL     1       7.280   5.062  16.700  0.00  0.00    +0.000 C 
ATOM     28  O   UNL     1       8.170   4.222  16.773  0.00  0.00    +0.000 OA
ATOM     29  H   UNL     1       5.772   6.020  15.682  0.00  0.00    +0.000 HD
BRANCH  26  35
ATOM     30  C   UNL     1       5.227   2.406  11.864  0.00  0.00    +0.000 C 
ATOM     31  C   UNL     1       6.120   3.493  12.392  0.00  0.00    +0.000 A 
ATOM     32  C   UNL     1       7.126   4.035  11.599  0.00  0.00    +0.000 A 
ATOM     33  C   UNL     1       7.958   5.035  12.107  0.00  0.00    +0.000 A 
ATOM     34  C   UNL     1       7.788   5.493  13.418  0.00  0.00    +0.000 A 
ATOM     35  C   UNL     1       6.792   4.959  14.237  0.00  0.00    +0.000 A 
ATOM     36  C   UNL     1       5.956   3.961  13.709  0.00  0.00    +0.000 A 
ENDBRANCH  26  35
ENDBRANCH  20  27
ENDBRANCH   1  23
TORSDOF 5
ENDMDL
MODEL 2
REMARK VINA RESULT:      -9.2      2.799      4.640
REMARK  Name = 
REMARK  6 active torsions:
REMARK  status: ('A' for Active; 'I' for Inactive)
REMARK    1  A    between atoms: C_1  and  C_2
REMARK    2  A    between atoms: C_6  and  N_7
REMARK    3  A    between atoms: C_8  and  C_10
REMARK    4  A    between atoms: N_13  and  S_14
REMARK    5  A    between atoms: S_14  and  C_17
REMARK    6  A    between atoms: C_27  and  C_29
REMARK                            x       y       z     vdW  Elec       q    Type
REMARK                         _______ _______ _______ _____ _____    ______ ____
ROOT
ATOM      1  S   UNL     1       2.876   5.392  18.826  0.00  0.00    +0.000 S 
ATOM      2  O   UNL     1       2.070   4.780  17.792  0.00  0.00    +0.000 OA
ATOM      3  O   UNL     1       3.038   4.778  20.127  0.00  0.00    +0.000 OA
ENDROOT
BRANCH   1   4
ATOM      4  C   UNL     1       2.192   7.024  19.091  0.00  0.00    +0.000 A 
ATOM      5  C   UNL     1       1.809   7.834  18.016  0.00  0.00    +0.000 A 
ATOM      6  C   UNL     1       1.106   9.037  18.252  0.00  0.00    +0.000 A 
ATOM      7  C   UNL     1       0.717   9.397  19.549  0.00  0.00    +0.000 A 
ATOM      8  C   UNL     1       1.155   8.586  20.610  0.00  0.00    +0.000 A 
ATOM      9  C   UNL     1       1.946   7.458  20.381  0.00  0.00    +0.000 A 
ATOM     10  C   UNL     1       0.582   8.736  21.991  0.00  0.00    +0.000 C 
ATOM     11  C   UNL     1       0.254  10.159  22.377  0.00  0.00    +0.000 C 
ATOM     12  C   UNL     1       0.246  11.124  21.206  0.00  0.00    +0.000 C 
ATOM     13  N   UNL     1      -0.095  10.517  19.910  0.00  0.00    +0.000 N 
ATOM     14  C   UNL     1      -1.201  11.060  19.231  0.00  0.00    +0.000 C 
ATOM     15  O   UNL     1      -1.939  11.869  19.823  0.00  0.00    +0.000 OA
BRANCH  14  16
ATOM     16  C   UNL     1      -1.528  10.680  17.775  0.00  0.00    +0.000 C 
ATOM     17  C   UNL     1      -2.636   9.637  17.483  0.00  0.00    +0.000 C 
ATOM     18  C   UNL     1      -3.081  10.504  16.292  0.00  0.00    +0.000 C 
ATOM     19  C   UNL     1      -2.419  11.698  16.990  0.00  0.00    +0.000 C 
ENDBRANCH  14  16
ENDBRANCH   1   4
BRANCH   1  23
ATOM     20  C   UNL     1       7.214   6.313  17.424  0.00  0.00    +0.000 C 
ATOM     21  C   UNL     1       5.968   6.980  16.825  0.00  0.00    +0.000 C 
ATOM     22  C   UNL     1       4.813   7.052  17.825  0.00  0.00    +0.000 C 
ATOM     23  N   UNL     1       4.466   5.645  18.179  0.00  0.00    +0.000 NA
ATOM     24  C   UNL     1       5.560   5.086  19.024  0.00  0.00    +0.000 C 
ATOM     25  C   UNL     1       6.882   5.050  18.236  0.00  0.00    +0.000 C 
BRANCH  20  27
ATOM     26  N   UNL     1       8.047   8.592  17.632  0.00  0.00    +0.000 N 
ATOM     27  C   UNL     1       8.055   7.330  18.207  0.00  0.00    +0.000 C 
ATOM     28  O   UNL     1       8.636   7.010  19.239  0.00  0.00    +0.000 OA
ATOM     29  H   UNL     1       7.613   8.681  16.721  0.00  0.00    +0.000 HD
BRANCH  26  35
ATOM     30  C   UNL     1       8.119  13.516  17.422  0.00  0.00    +0.000 C 
ATOM     31  C   UNL     1       8.549  12.245  18.098  0.00  0.00    +0.000 A 
ATOM     32  C   UNL     1       9.380  12.280  19.214  0.00  0.00    +0.000 A 
ATOM     33  C   UNL     1       9.784  11.090  19.824  0.00  0.00    +0.000 A 
ATOM     34  C   UNL     1       9.359   9.859  19.316  0.00  0.00    +0.000 A 
ATOM     35  C   UNL     1       8.532   9.797  18.193  0.00  0.00    +0.000 A 
ATOM     36  C   UNL     1       8.126  11.002  17.595  0.00  0.00    +0.000 A 
ENDBRANCH  26  35
ENDBRANCH  20  27
ENDBRANCH   1  23
TORSDOF 5
ENDMDL
MODEL 3
REMARK VINA RESULT:      -9.1      2.884      4.729
REMARK  Name = 
REMARK  6 active torsions:
REMARK  status: ('A' for Active; 'I' for Inactive)
REMARK    1  A    between atoms: C_1  and  C_2
REMARK    2  A    between atoms: C_6  and  N_7
REMARK    3  A    between atoms: C_8  and  C_10
REMARK    4  A    between atoms: N_13  and  S_14
REMARK    5  A    between atoms: S_14  and  C_17
REMARK    6  A    between atoms: C_27  and  C_29
REMARK                            x       y       z     vdW  Elec       q    Type
REMARK                         _______ _______ _______ _____ _____    ______ ____
ROOT
ATOM      1  S   UNL     1       3.033   5.402  18.805  0.00  0.00    +0.000 S 
ATOM      2  O   UNL     1       2.254   4.779  17.757  0.00  0.00    +0.000 OA
ATOM      3  O   UNL     1       3.195   4.782  20.103  0.00  0.00    +0.000 OA
ENDROOT
BRANCH   1   4
ATOM      4  C   UNL     1       2.308   7.016  19.074  0.00  0.00    +0.000 A 
ATOM      5  C   UNL     1       1.906   7.818  18.001  0.00  0.00    +0.000 A 
ATOM      6  C   UNL     1       1.172   9.003  18.240  0.00  0.00    +0.000 A 
ATOM      7  C   UNL     1       0.774   9.349  19.538  0.00  0.00    +0.000 A 
ATOM      8  C   UNL     1       1.231   8.547  20.597  0.00  0.00    +0.000 A 
ATOM      9  C   UNL     1       2.051   7.440  20.365  0.00  0.00    +0.000 A 
ATOM     10  C   UNL     1       0.655   8.678  21.979  0.00  0.00    +0.000 C 
ATOM     11  C   UNL     1       0.290  10.092  22.368  0.00  0.00    +0.000 C 
ATOM     12  C   UNL     1       0.258  11.059  21.199  0.00  0.00    +0.000 C 
ATOM     13  N   UNL     1      -0.067  10.447  19.902  0.00  0.00    +0.000 N 
ATOM     14  C   UNL     1      -1.186  10.964  19.224  0.00  0.00    +0.000 C 
ATOM     15  O   UNL     1      -1.944  11.753  19.818  0.00  0.00    +0.000 OA
BRANCH  14  16
ATOM     16  C   UNL     1      -1.503  10.580  17.767  0.00  0.00    +0.000 C 
ATOM     17  C   UNL     1      -2.700   9.646  17.461  0.00  0.00    +0.000 C 
ATOM     18  C   UNL     1      -3.017  10.520  16.236  0.00  0.00    +0.000 C 
ATOM     19  C   UNL     1      -2.262  11.660  16.928  0.00  0.00    +0.000 C 
ENDBRANCH  14  16
ENDBRANCH   1   4
BRANCH   1  23
ATOM     20  C   UNL     1       7.343   6.478  17.426  0.00  0.00    +0.000 C 
ATOM     21  C   UNL     1       6.075   6.973  16.716  0.00  0.00    +0.000 C 
ATOM     22  C   UNL     1       4.881   7.075  17.667  0.00  0.00    +0.000 C 
ATOM     23  N   UNL     1       4.624   5.697  18.178  0.00  0.00    +0.000 NA
ATOM     24  C   UNL     1       5.723   5.327  19.115  0.00  0.00    +0.000 C 
ATOM     25  C   UNL     1       7.073   5.298  18.375  0.00  0.00    +0.000 C 
BRANCH  20  27
ATOM     26  N   UNL     1       7.976   8.830  17.397  0.00  0.00    +0.000 N 
ATOM     27  C   UNL     1       8.078   7.642  18.105  0.00  0.00    +0.000 C 
ATOM     28  O   UNL     1       8.663   7.484  19.172  0.00  0.00    +0.000 OA
ATOM     29  H   UNL     1       7.555   8.784  16.478  0.00  0.00    +0.000 HD
BRANCH  26  35
ATOM     30  C   UNL     1      10.600  11.534  20.575  0.00  0.00    +0.000 C 
ATOM     31  C   UNL     1       9.666  11.466  19.400  0.00  0.00    +0.000 A 
ATOM     32  C   UNL     1       9.203  12.628  18.792  0.00  0.00    +0.000 A 
ATOM     33  C   UNL     1       8.324  12.551  17.709  0.00  0.00    +0.000 A 
ATOM     34  C   UNL     1       7.902  11.306  17.234  0.00  0.00    +0.000 A 
ATOM     35  C   UNL     1       8.345  10.125  17.831  0.00  0.00    +0.000 A 
ATOM     36  C   UNL     1       9.237  10.218  18.913  0.00  0.00    +0.000 A 
ENDBRANCH  26  35
ENDBRANCH  20  27
ENDBRANCH   1  23
TORSDOF 5
ENDMDL
MODEL 4
REMARK VINA RESULT:      -9.1      0.372      1.187
REMARK  Name = 
REMARK  6 active torsions:
REMARK  status: ('A' for Active; 'I' for Inactive)
REMARK    1  A    between atoms: C_1  and  C_2
REMARK    2  A    between atoms: C_6  and  N_7
REMARK    3  A    between atoms: C_8  and  C_10
REMARK    4  A    between atoms: N_13  and  S_14
REMARK    5  A    between atoms: S_14  and  C_17
REMARK    6  A    between atoms: C_27  and  C_29
REMARK                            x       y       z     vdW  Elec       q    Type
REMARK                         _______ _______ _______ _____ _____    ______ ____
ROOT
ATOM      1  S   UNL     1       2.473   5.520  19.822  0.00  0.00    +0.000 S 
ATOM      2  O   UNL     1       1.758   4.918  18.717  0.00  0.00    +0.000 OA
ATOM      3  O   UNL     1       2.468   4.928  21.143  0.00  0.00    +0.000 OA
ENDROOT
BRANCH   1   4
ATOM      4  C   UNL     1       1.836   7.184  19.982  0.00  0.00    +0.000 A 
ATOM      5  C   UNL     1       1.733   8.031  18.874  0.00  0.00    +0.000 A 
ATOM      6  C   UNL     1       1.061   9.269  18.991  0.00  0.00    +0.000 A 
ATOM      7  C   UNL     1       0.427   9.630  20.186  0.00  0.00    +0.000 A 
ATOM      8  C   UNL     1       0.586   8.779  21.293  0.00  0.00    +0.000 A 
ATOM      9  C   UNL     1       1.347   7.610  21.204  0.00  0.00    +0.000 A 
ATOM     10  C   UNL     1      -0.256   8.939  22.527  0.00  0.00    +0.000 C 
ATOM     11  C   UNL     1      -0.583  10.372  22.874  0.00  0.00    +0.000 C 
ATOM     12  C   UNL     1      -0.292  11.355  21.755  0.00  0.00    +0.000 C 
ATOM     13  N   UNL     1      -0.383  10.789  20.400  0.00  0.00    +0.000 N 
ATOM     14  C   UNL     1      -1.290  11.406  19.520  0.00  0.00    +0.000 C 
ATOM     15  O   UNL     1      -2.093  12.247  19.966  0.00  0.00    +0.000 OA
BRANCH  14  16
ATOM     16  C   UNL     1      -1.322  11.069  18.018  0.00  0.00    +0.000 C 
ATOM     17  C   UNL     1      -1.972   9.746  17.540  0.00  0.00    +0.000 C 
ATOM     18  C   UNL     1      -2.566  10.516  16.348  0.00  0.00    +0.000 C 
ATOM     19  C   UNL     1      -2.426  11.796  17.180  0.00  0.00    +0.000 C 
ENDBRANCH  14  16
ENDBRANCH   1   4
BRANCH   1  23
ATOM     20  C   UNL     1       6.830   5.751  18.209  0.00  0.00    +0.000 C 
ATOM     21  C   UNL     1       6.393   4.817  19.347  0.00  0.00    +0.000 C 
ATOM     22  C   UNL     1       4.918   4.427  19.242  0.00  0.00    +0.000 C 
ATOM     23  N   UNL     1       4.133   5.692  19.346  0.00  0.00    +0.000 NA
ATOM     24  C   UNL     1       4.327   6.474  18.091  0.00  0.00    +0.000 C 
ATOM     25  C   UNL     1       5.807   6.864  17.925  0.00  0.00    +0.000 C 
BRANCH  20  27
ATOM     26  N   UNL     1       6.357   5.181  15.889  0.00  0.00    +0.000 N 
ATOM     27  C   UNL     1       7.209   4.947  16.958  0.00  0.00    +0.000 C 
ATOM     28  O   UNL     1       8.185   4.204  16.955  0.00  0.00    +0.000 OA
ATOM     29  H   UNL     1       5.530   5.735  16.071  0.00  0.00    +0.000 HD
BRANCH  26  35
ATOM     30  C   UNL     1       8.427   6.150  11.522  0.00  0.00    +0.000 C 
ATOM     31  C   UNL     1       7.581   5.253  12.380  0.00  0.00    +0.000 A 
ATOM     32  C   UNL     1       7.012   4.098  11.855  0.00  0.00    +0.000 A 
ATOM     33  C   UNL     1       6.215   3.280  12.660  0.00  0.00    +0.000 A 
ATOM     34  C   UNL     1       5.982   3.620  13.995  0.00  0.00    +0.000 A 
ATOM     35  C   UNL     1       6.534   4.779  14.544  0.00  0.00    +0.000 A 
ATOM     36  C   UNL     1       7.341   5.587  13.725  0.00  0.00    +0.000 A 
ENDBRANCH  26  35
ENDBRANCH  20  27
ENDBRANCH   1  23
TORSDOF 5
ENDMDL
MODEL 5
REMARK VINA RESULT:      -8.9      1.065      1.463
REMARK  Name = 
REMARK  6 active torsions:
REMARK  status: ('A' for Active; 'I' for Inactive)
REMARK    1  A    between atoms: C_1  and  C_2
REMARK    2  A    between atoms: C_6  and  N_7
REMARK    3  A    between atoms: C_8  and  C_10
REMARK    4  A    between atoms: N_13  and  S_14
REMARK    5  A    between atoms: S_14  and  C_17
REMARK    6  A    between atoms: C_27  and  C_29
REMARK                            x       y       z     vdW  Elec       q    Type
REMARK                         _______ _______ _______ _____ _____    ______ ____
ROOT
ATOM      1  S   UNL     1       2.873   5.334  18.947  0.00  0.00    +0.000 S 
ATOM      2  O   UNL     1       2.002   4.751  17.949  0.00  0.00    +0.000 OA
ATOM      3  O   UNL     1       3.084   4.703  20.232  0.00  0.00    +0.000 OA
ENDROOT
BRANCH   1   4
ATOM      4  C   UNL     1       2.242   6.979  19.259  0.00  0.00    +0.000 A 
ATOM      5  C   UNL     1       2.004   7.875  18.212  0.00  0.00    +0.000 A 
ATOM      6  C   UNL     1       1.338   9.096  18.464  0.00  0.00    +0.000 A 
ATOM      7  C   UNL     1       0.842   9.392  19.741  0.00  0.00    +0.000 A 
ATOM      8  C   UNL     1       1.137   8.492  20.780  0.00  0.00    +0.000 A 
ATOM      9  C   UNL     1       1.894   7.341  20.548  0.00  0.00    +0.000 A 
ATOM     10  C   UNL     1       0.442   8.582  22.109  0.00  0.00    +0.000 C 
ATOM     11  C   UNL     1       0.144   9.993  22.560  0.00  0.00    +0.000 C 
ATOM     12  C   UNL     1       0.294  11.030  21.463  0.00  0.00    +0.000 C 
ATOM     13  N   UNL     1       0.052  10.527  20.102  0.00  0.00    +0.000 N 
ATOM     14  C   UNL     1      -0.957  11.170  19.362  0.00  0.00    +0.000 C 
ATOM     15  O   UNL     1      -1.711  11.977  19.938  0.00  0.00    +0.000 OA
BRANCH  14  16
ATOM     16  C   UNL     1      -1.160  10.903  17.860  0.00  0.00    +0.000 C 
ATOM     17  C   UNL     1      -1.972   9.667  17.401  0.00  0.00    +0.000 C 
ATOM     18  C   UNL     1      -2.599  10.538  16.299  0.00  0.00    +0.000 C 
ATOM     19  C   UNL     1      -2.262  11.762  17.158  0.00  0.00    +0.000 C 
ENDBRANCH  14  16
ENDBRANCH   1   4
BRANCH   1  23
ATOM     20  C   UNL     1       6.898   5.763  16.656  0.00  0.00    +0.000 C 
ATOM     21  C   UNL     1       6.611   4.646  17.669  0.00  0.00    +0.000 C 
ATOM     22  C   UNL     1       5.121   4.313  17.759  0.00  0.00    +0.000 C 
ATOM     23  N   UNL     1       4.434   5.554  18.223  0.00  0.00    +0.000 NA
ATOM     24  C   UNL     1       4.454   6.549  17.113  0.00  0.00    +0.000 C 
ATOM     25  C   UNL     1       5.902   6.931  16.758  0.00  0.00    +0.000 C 
BRANCH  20  27
ATOM     26  N   UNL     1       5.960   4.358  14.901  0.00  0.00    +0.000 N 
ATOM     27  C   UNL     1       7.015   5.194  15.235  0.00  0.00    +0.000 C 
ATOM     28  O   UNL     1       7.956   5.496  14.508  0.00  0.00    +0.000 OA
ATOM     29  H   UNL     1       5.313   4.115  15.640  0.00  0.00    +0.000 HD
BRANCH  26  35
ATOM     30  C   UNL     1       7.487   1.776  10.990  0.00  0.00    +0.000 C 
ATOM     31  C   UNL     1       6.399   2.541  11.688  0.00  0.00    +0.000 A 
ATOM     32  C   UNL     1       5.157   2.719  11.087  0.00  0.00    +0.000 A 
ATOM     33  C   UNL     1       4.158   3.444  11.741  0.00  0.00    +0.000 A 
ATOM     34  C   UNL     1       4.403   3.999  13.001  0.00  0.00    +0.000 A 
ATOM     35  C   UNL     1       5.643   3.842  13.622  0.00  0.00    +0.000 A 
ATOM     36  C   UNL     1       6.635   3.102  12.956  0.00  0.00    +0.000 A 
ENDBRANCH  26  35
ENDBRANCH  20  27
ENDBRANCH   1  23
TORSDOF 5
ENDMDL
MODEL 6
REMARK VINA RESULT:      -8.8      3.378      5.111
REMARK  Name = 
REMARK  6 active torsions:
REMARK  status: ('A' for Active; 'I' for Inactive)
REMARK    1  A    between atoms: C_1  and  C_2
REMARK    2  A    between atoms: C_6  and  N_7
REMARK    3  A    between atoms: C_8  and  C_10
REMARK    4  A    between atoms: N_13  and  S_14
REMARK    5  A    between atoms: S_14  and  C_17
REMARK    6  A    between atoms: C_27  and  C_29
REMARK                            x       y       z     vdW  Elec       q    Type
REMARK                         _______ _______ _______ _____ _____    ______ ____
ROOT
ATOM      1  S   UNL     1       3.392   5.452  18.622  0.00  0.00    +0.000 S 
ATOM      2  O   UNL     1       2.764   4.893  17.444  0.00  0.00    +0.000 OA
ATOM      3  O   UNL     1       3.452   4.720  19.870  0.00  0.00    +0.000 OA
ENDROOT
BRANCH   1   4
ATOM      4  C   UNL     1       2.551   6.996  18.952  0.00  0.00    +0.000 A 
ATOM      5  C   UNL     1       2.124   7.826  17.910  0.00  0.00    +0.000 A 
ATOM      6  C   UNL     1       1.305   8.944  18.187  0.00  0.00    +0.000 A 
ATOM      7  C   UNL     1       0.850   9.194  19.488  0.00  0.00    +0.000 A 
ATOM      8  C   UNL     1       1.332   8.369  20.518  0.00  0.00    +0.000 A 
ATOM      9  C   UNL     1       2.232   7.333  20.255  0.00  0.00    +0.000 A 
ATOM     10  C   UNL     1       0.712   8.387  21.887  0.00  0.00    +0.000 C 
ATOM     11  C   UNL     1       0.241   9.751  22.337  0.00  0.00    +0.000 C 
ATOM     12  C   UNL     1       0.174  10.775  21.219  0.00  0.00    +0.000 C 
ATOM     13  N   UNL     1      -0.074  10.212  19.882  0.00  0.00    +0.000 N 
ATOM     14  C   UNL     1      -1.207  10.688  19.199  0.00  0.00    +0.000 C 
ATOM     15  O   UNL     1      -2.033  11.392  19.809  0.00  0.00    +0.000 OA
BRANCH  14  16
ATOM     16  C   UNL     1      -1.458  10.362  17.715  0.00  0.00    +0.000 C 
ATOM     17  C   UNL     1      -2.725   9.569  17.306  0.00  0.00    +0.000 C 
ATOM     18  C   UNL     1      -2.855  10.491  16.080  0.00  0.00    +0.000 C 
ATOM     19  C   UNL     1      -2.032  11.531  16.848  0.00  0.00    +0.000 C 
ENDBRANCH  14  16
ENDBRANCH   1   4
BRANCH   1  23
ATOM     20  C   UNL     1       7.672   6.982  17.638  0.00  0.00    +0.000 C 
ATOM     21  C   UNL     1       6.575   6.790  16.583  0.00  0.00    +0.000 C 
ATOM     22  C   UNL     1       5.172   6.946  17.171  0.00  0.00    +0.000 C 
ATOM     23  N   UNL     1       5.020   5.879  18.203  0.00  0.00    +0.000 NA
ATOM     24  C   UNL     1       5.877   6.227  19.373  0.00  0.00    +0.000 C 
ATOM     25  C   UNL     1       7.360   6.262  18.961  0.00  0.00    +0.000 C 
BRANCH  20  27
ATOM     26  N   UNL     1       8.763   8.717  18.955  0.00  0.00    +0.000 N 
ATOM     27  C   UNL     1       7.997   8.470  17.825  0.00  0.00    +0.000 C 
ATOM     28  O   UNL     1       7.610   9.309  17.017  0.00  0.00    +0.000 OA
ATOM     29  H   UNL     1       8.916   7.941  19.586  0.00  0.00    +0.000 HD
BRANCH  26  35
ATOM     30  C   UNL     1      11.707  12.402  17.525  0.00  0.00    +0.000 C 
ATOM     31  C   UNL     1      10.859  11.765  18.588  0.00  0.00    +0.000 A 
ATOM     32  C   UNL     1      10.736  12.349  19.844  0.00  0.00    +0.000 A 
ATOM     33  C   UNL     1       9.955  11.739  20.829  0.00  0.00    +0.000 A 
ATOM     34  C   UNL     1       9.297  10.535  20.558  0.00  0.00    +0.000 A 
ATOM     35  C   UNL     1       9.411   9.924  19.309  0.00  0.00    +0.000 A 
ATOM     36  C   UNL     1      10.192  10.554  18.325  0.00  0.00    +0.000 A 
ENDBRANCH  26  35
ENDBRANCH  20  27
ENDBRANCH   1  23
TORSDOF 5
ENDMDL
MODEL 7
REMARK VINA RESULT:      -8.7      3.096     10.774
REMARK  Name = 
REMARK  6 active torsions:
REMARK  status: ('A' for Active; 'I' for Inactive)
REMARK    1  A    between atoms: C_1  and  C_2
REMARK    2  A    between atoms: C_6  and  N_7
REMARK    3  A    between atoms: C_8  and  C_10
REMARK    4  A    between atoms: N_13  and  S_14
REMARK    5  A    between atoms: S_14  and  C_17
REMARK    6  A    between atoms: C_27  and  C_29
REMARK                            x       y       z     vdW  Elec       q    Type
REMARK                         _______ _______ _______ _____ _____    ______ ____
ROOT
ATOM      1  S   UNL     1       0.913   9.151  21.837  0.00  0.00    +0.000 S 
ATOM      2  O   UNL     1       2.140   9.532  22.505  0.00  0.00    +0.000 OA
ATOM      3  O   UNL     1      -0.239   8.681  22.576  0.00  0.00    +0.000 OA
ENDROOT
BRANCH   1   4
ATOM      4  C   UNL     1       1.357   7.868  20.672  0.00  0.00    +0.000 A 
ATOM      5  C   UNL     1       2.036   8.168  19.486  0.00  0.00    +0.000 A 
ATOM      6  C   UNL     1       2.535   7.125  18.673  0.00  0.00    +0.000 A 
ATOM      7  C   UNL     1       2.426   5.787  19.077  0.00  0.00    +0.000 A 
ATOM      8  C   UNL     1       1.700   5.517  20.249  0.00  0.00    +0.000 A 
ATOM      9  C   UNL     1       1.111   6.544  20.990  0.00  0.00    +0.000 A 
ATOM     10  C   UNL     1       1.747   4.162  20.899  0.00  0.00    +0.000 C 
ATOM     11  C   UNL     1       1.829   3.010  19.926  0.00  0.00    +0.000 C 
ATOM     12  C   UNL     1       2.181   3.427  18.510  0.00  0.00    +0.000 C 
ATOM     13  N   UNL     1       2.989   4.653  18.413  0.00  0.00    +0.000 N 
ATOM     14  C   UNL     1       4.224   4.542  17.749  0.00  0.00    +0.000 C 
ATOM     15  O   UNL     1       4.658   3.412  17.458  0.00  0.00    +0.000 OA
BRANCH  14  16
ATOM     16  C   UNL     1       5.060   5.780  17.375  0.00  0.00    +0.000 C 
ATOM     17  C   UNL     1       6.287   6.169  18.238  0.00  0.00    +0.000 C 
ATOM     18  C   UNL     1       7.034   6.525  16.941  0.00  0.00    +0.000 C 
ATOM     19  C   UNL     1       6.074   5.587  16.200  0.00  0.00    +0.000 C 
ENDBRANCH  14  16
ENDBRANCH   1   4
BRANCH   1  23
ATOM     20  C   UNL     1      -0.827  12.787  19.517  0.00  0.00    +0.000 C 
ATOM     21  C   UNL     1      -0.894  11.341  19.006  0.00  0.00    +0.000 C 
ATOM     22  C   UNL     1      -0.897  10.322  20.147  0.00  0.00    +0.000 C 
ATOM     23  N   UNL     1       0.391  10.500  20.880  0.00  0.00    +0.000 NA
ATOM     24  C   UNL     1       0.335  11.789  21.628  0.00  0.00    +0.000 C 
ATOM     25  C   UNL     1       0.195  12.971  20.652  0.00  0.00    +0.000 C 
BRANCH  20  27
ATOM     26  N   UNL     1      -3.241  12.481  19.413  0.00  0.00    +0.000 N 
ATOM     27  C   UNL     1      -2.226  13.305  19.877  0.00  0.00    +0.000 C 
ATOM     28  O   UNL     1      -2.372  14.336  20.525  0.00  0.00    +0.000 OA
ATOM     29  H   UNL     1      -2.974  11.722  18.799  0.00  0.00    +0.000 HD
BRANCH  26  35
ATOM     30  C   UNL     1      -6.632  12.731  22.981  0.00  0.00    +0.000 C 
ATOM     31  C   UNL     1      -6.298  12.685  21.517  0.00  0.00    +0.000 A 
ATOM     32  C   UNL     1      -7.305  12.699  20.558  0.00  0.00    +0.000 A 
ATOM     33  C   UNL     1      -6.982  12.642  19.200  0.00  0.00    +0.000 A 
ATOM     34  C   UNL     1      -5.645  12.565  18.798  0.00  0.00    +0.000 A 
ATOM     35  C   UNL     1      -4.616  12.540  19.741  0.00  0.00    +0.000 A 
ATOM     36  C   UNL     1      -4.956  12.609  21.103  0.00  0.00    +0.000 A 
ENDBRANCH  26  35
ENDBRANCH  20  27
ENDBRANCH   1  23
TORSDOF 5
ENDMDL
MODEL 8
REMARK VINA RESULT:      -8.7      3.375     11.096
REMARK  Name = 
REMARK  6 active torsions:
REMARK  status: ('A' for Active; 'I' for Inactive)
REMARK    1  A    between atoms: C_1  and  C_2
REMARK    2  A    between atoms: C_6  and  N_7
REMARK    3  A    between atoms: C_8  and  C_10
REMARK    4  A    between atoms: N_13  and  S_14
REMARK    5  A    between atoms: S_14  and  C_17
REMARK    6  A    between atoms: C_27  and  C_29
REMARK                            x       y       z     vdW  Elec       q    Type
REMARK                         _______ _______ _______ _____ _____    ______ ____
ROOT
ATOM      1  S   UNL     1       0.813   9.160  21.910  0.00  0.00    +0.000 S 
ATOM      2  O   UNL     1       2.036   9.687  22.479  0.00  0.00    +0.000 OA
ATOM      3  O   UNL     1      -0.227   8.591  22.740  0.00  0.00    +0.000 OA
ENDROOT
BRANCH   1   4
ATOM      4  C   UNL     1       1.309   7.900  20.741  0.00  0.00    +0.000 A 
ATOM      5  C   UNL     1       2.049   8.222  19.598  0.00  0.00    +0.000 A 
ATOM      6  C   UNL     1       2.583   7.193  18.790  0.00  0.00    +0.000 A 
ATOM      7  C   UNL     1       2.446   5.848  19.157  0.00  0.00    +0.000 A 
ATOM      8  C   UNL     1       1.660   5.557  20.285  0.00  0.00    +0.000 A 
ATOM      9  C   UNL     1       1.039   6.572  21.017  0.00  0.00    +0.000 A 
ATOM     10  C   UNL     1       1.665   4.188  20.906  0.00  0.00    +0.000 C 
ATOM     11  C   UNL     1       1.791   3.056  19.913  0.00  0.00    +0.000 C 
ATOM     12  C   UNL     1       2.218   3.502  18.527  0.00  0.00    +0.000 C 
ATOM     13  N   UNL     1       3.036   4.724  18.498  0.00  0.00    +0.000 N 
ATOM     14  C   UNL     1       4.303   4.620  17.897  0.00  0.00    +0.000 C 
ATOM     15  O   UNL     1       4.745   3.494  17.603  0.00  0.00    +0.000 OA
BRANCH  14  16
ATOM     16  C   UNL     1       5.164   5.860  17.593  0.00  0.00    +0.000 C 
ATOM     17  C   UNL     1       6.493   6.080  18.358  0.00  0.00    +0.000 C 
ATOM     18  C   UNL     1       7.122   6.572  17.043  0.00  0.00    +0.000 C 
ATOM     19  C   UNL     1       6.039   5.782  16.299  0.00  0.00    +0.000 C 
ENDBRANCH  14  16
ENDBRANCH   1   4
BRANCH   1  23
ATOM     20  C   UNL     1      -1.518  12.372  19.484  0.00  0.00    +0.000 C 
ATOM     21  C   UNL     1      -0.808  11.172  18.843  0.00  0.00    +0.000 C 
ATOM     22  C   UNL     1      -0.721   9.975  19.792  0.00  0.00    +0.000 C 
ATOM     23  N   UNL     1       0.082  10.420  20.968  0.00  0.00    +0.000 NA
ATOM     24  C   UNL     1      -0.737  11.377  21.765  0.00  0.00    +0.000 C 
ATOM     25  C   UNL     1      -1.064  12.629  20.932  0.00  0.00    +0.000 C 
BRANCH  20  27
ATOM     26  N   UNL     1      -3.728  12.814  20.406  0.00  0.00    +0.000 N 
ATOM     27  C   UNL     1      -3.041  12.245  19.344  0.00  0.00    +0.000 C 
ATOM     28  O   UNL     1      -3.543  11.705  18.365  0.00  0.00    +0.000 OA
ATOM     29  H   UNL     1      -3.179  13.128  21.196  0.00  0.00    +0.000 HD
BRANCH  26  35
ATOM     30  C   UNL     1      -7.390  16.073  19.883  0.00  0.00    +0.000 C 
ATOM     31  C   UNL     1      -6.938  14.679  20.216  0.00  0.00    +0.000 A 
ATOM     32  C   UNL     1      -7.857  13.705  20.593  0.00  0.00    +0.000 A 
ATOM     33  C   UNL     1      -7.423  12.417  20.915  0.00  0.00    +0.000 A 
ATOM     34  C   UNL     1      -6.062  12.101  20.864  0.00  0.00    +0.000 A 
ATOM     35  C   UNL     1      -5.119  13.062  20.497  0.00  0.00    +0.000 A 
ATOM     36  C   UNL     1      -5.571  14.351  20.167  0.00  0.00    +0.000 A 
ENDBRANCH  26  35
ENDBRANCH  20  27
ENDBRANCH   1  23
TORSDOF 5
ENDMDL
MODEL 9
REMARK VINA RESULT:      -8.7      3.339     10.975
REMARK  Name = 
REMARK  6 active torsions:
REMARK  status: ('A' for Active; 'I' for Inactive)
REMARK    1  A    between atoms: C_1  and  C_2
REMARK    2  A    between atoms: C_6  and  N_7
REMARK    3  A    between atoms: C_8  and  C_10
REMARK    4  A    between atoms: N_13  and  S_14
REMARK    5  A    between atoms: S_14  and  C_17
REMARK    6  A    between atoms: C_27  and  C_29
REMARK                            x       y       z     vdW  Elec       q    Type
REMARK                         _______ _______ _______ _____ _____    ______ ____
ROOT
ATOM      1  S   UNL     1       0.974   9.125  21.708  0.00  0.00    +0.000 S 
ATOM      2  O   UNL     1       2.221   9.644  22.228  0.00  0.00    +0.000 OA
ATOM      3  O   UNL     1      -0.060   8.615  22.584  0.00  0.00    +0.000 OA
ENDROOT
BRANCH   1   4
ATOM      4  C   UNL     1       1.413   7.808  20.580  0.00  0.00    +0.000 A 
ATOM      5  C   UNL     1       2.075   8.074  19.377  0.00  0.00    +0.000 A 
ATOM      6  C   UNL     1       2.571   7.008  18.592  0.00  0.00    +0.000 A 
ATOM      7  C   UNL     1       2.477   5.684  19.040  0.00  0.00    +0.000 A 
ATOM      8  C   UNL     1       1.767   5.447  20.230  0.00  0.00    +0.000 A 
ATOM      9  C   UNL     1       1.180   6.494  20.944  0.00  0.00    +0.000 A 
ATOM     10  C   UNL     1       1.831   4.115  20.923  0.00  0.00    +0.000 C 
ATOM     11  C   UNL     1       1.910   2.932  19.987  0.00  0.00    +0.000 C 
ATOM     12  C   UNL     1       2.242   3.305  18.554  0.00  0.00    +0.000 C 
ATOM     13  N   UNL     1       3.040   4.533  18.407  0.00  0.00    +0.000 N 
ATOM     14  C   UNL     1       4.268   4.409  17.732  0.00  0.00    +0.000 C 
ATOM     15  O   UNL     1       4.706   3.273  17.472  0.00  0.00    +0.000 OA
BRANCH  14  16
ATOM     16  C   UNL     1       5.090   5.640  17.308  0.00  0.00    +0.000 C 
ATOM     17  C   UNL     1       6.225   6.160  18.226  0.00  0.00    +0.000 C 
ATOM     18  C   UNL     1       7.068   6.422  16.966  0.00  0.00    +0.000 C 
ATOM     19  C   UNL     1       6.207   5.378  16.244  0.00  0.00    +0.000 C 
ENDBRANCH  14  16
ENDBRANCH   1   4
BRANCH   1  23
ATOM     20  C   UNL     1      -1.337  12.318  19.238  0.00  0.00    +0.000 C 
ATOM     21  C   UNL     1      -0.776  11.021  18.638  0.00  0.00    +0.000 C 
ATOM     22  C   UNL     1      -0.687   9.896  19.670  0.00  0.00    +0.000 C 
ATOM     23  N   UNL     1       0.250  10.364  20.732  0.00  0.00    +0.000 NA
ATOM     24  C   UNL     1      -0.422  11.439  21.517  0.00  0.00    +0.000 C 
ATOM     25  C   UNL     1      -0.735  12.647  20.615  0.00  0.00    +0.000 C 
BRANCH  20  27
ATOM     26  N   UNL     1      -3.417  13.018  20.294  0.00  0.00    +0.000 N 
ATOM     27  C   UNL     1      -2.871  12.300  19.240  0.00  0.00    +0.000 C 
ATOM     28  O   UNL     1      -3.499  11.713  18.365  0.00  0.00    +0.000 OA
ATOM     29  H   UNL     1      -2.776  13.359  21.000  0.00  0.00    +0.000 HD
BRANCH  26  35
ATOM     30  C   UNL     1      -7.915  11.623  21.747  0.00  0.00    +0.000 C 
ATOM     31  C   UNL     1      -7.002  12.692  21.219  0.00  0.00    +0.000 A 
ATOM     32  C   UNL     1      -7.488  13.964  20.931  0.00  0.00    +0.000 A 
ATOM     33  C   UNL     1      -6.631  14.945  20.427  0.00  0.00    +0.000 A 
ATOM     34  C   UNL     1      -5.282  14.654  20.205  0.00  0.00    +0.000 A 
ATOM     35  C   UNL     1      -4.772  13.383  20.477  0.00  0.00    +0.000 A 
ATOM     36  C   UNL     1      -5.643  12.410  20.993  0.00  0.00    +0.000 A 
ENDBRANCH  26  35
ENDBRANCH  20  27
ENDBRANCH   1  23
TORSDOF 5
ENDMDL
