MODEL 1
REMARK VINA RESULT:      -6.7      0.000      0.000
REMARK  Name = 
REMARK  10 active torsions:
REMARK  status: ('A' for Active; 'I' for Inactive)
REMARK    1  A    between atoms: C_1  and  O_2
REMARK    2  A    between atoms: O_2  and  C_3
REMARK    3  A    between atoms: C_6  and  C_7
REMARK    4  A    between atoms: N_9  and  C_10
REMARK    5  A    between atoms: C_10  and  C_11
REMARK    6  A    between atoms: C_10  and  C_12
REMARK    7  A    between atoms: C_12  and  C_13
REMARK    8  A    between atoms: C_13  and  C_14
REMARK    9  A    between atoms: C_20  and  O_21
REMARK   10  A    between atoms: O_21  and  C_22
REMARK                            x       y       z     vdW  Elec       q    Type
REMARK                         _______ _______ _______ _____ _____    ______ ____
ROOT
ATOM      1  C   UNL     1       4.654   5.676  18.590  0.00  0.00    +0.000 C 
ATOM      2  O   UNL     1       5.318   5.681  19.615  0.00  0.00    +0.000 OA
ATOM      3  N   UNL     1       3.319   6.058  18.548  0.00  0.00    +0.000 N 
ATOM      4  H   UNL     1       2.799   5.946  17.691  0.00  0.00    +0.000 HD
ENDROOT
BRANCH   1   8
ATOM      5  C   UNL     1       6.283   4.512  14.775  0.00  0.00    +0.000 A 
ATOM      6  C   UNL     1       5.456   3.651  15.494  0.00  0.00    +0.000 A 
ATOM      7  C   UNL     1       4.941   4.035  16.730  0.00  0.00    +0.000 A 
ATOM      8  C   UNL     1       5.258   5.290  17.276  0.00  0.00    +0.000 A 
ATOM      9  C   UNL     1       6.089   6.171  16.553  0.00  0.00    +0.000 A 
ATOM     10  C   UNL     1       6.597   5.765  15.308  0.00  0.00    +0.000 A 
BRANCH   5  12
ATOM     11  C   UNL     1       5.703   3.490  12.707  0.00  0.00    +0.000 C 
ATOM     12  O   UNL     1       6.700   4.023  13.569  0.00  0.00    +0.000 OA
ENDBRANCH   5  12
BRANCH   9  13
ATOM     13  O   UNL     1       6.377   7.387  17.119  0.00  0.00    +0.000 OA
ATOM     14  C   UNL     1       7.690   7.608  17.617  0.00  0.00    +0.000 C 
ENDBRANCH   9  13
ENDBRANCH   1   8
BRANCH   3  15
ATOM     15  C   UNL     1       2.581   6.533  19.714  0.00  0.00    +0.000 C 
ATOM     16  C   UNL     1       2.047   7.948  19.492  0.00  0.00    +0.000 C 
BRANCH  15  17
ATOM     17  C   UNL     1       1.473   5.559  20.152  0.00  0.00    +0.000 C 
BRANCH  17  18
ATOM     18  C   UNL     1       2.027   4.382  20.967  0.00  0.00    +0.000 C 
BRANCH  18  19
ATOM     19  C   UNL     1       2.539   3.274  20.080  0.00  0.00    +0.000 A 
ATOM     20  C   UNL     1       3.750   2.632  20.376  0.00  0.00    +0.000 A 
ATOM     21  C   UNL     1       4.247   1.636  19.535  0.00  0.00    +0.000 A 
ATOM     22  C   UNL     1       3.543   1.275  18.389  0.00  0.00    +0.000 A 
ATOM     23  C   UNL     1       2.335   1.902  18.088  0.00  0.00    +0.000 A 
ATOM     24  C   UNL     1       1.834   2.897  18.930  0.00  0.00    +0.000 A 
ENDBRANCH  18  19
ENDBRANCH  17  18
ENDBRANCH  15  17
ENDBRANCH   3  15
TORSDOF 7
ENDMDL
MODEL 2
REMARK VINA RESULT:      -6.6      1.900      4.484
REMARK  Name = 
REMARK  10 active torsions:
REMARK  status: ('A' for Active; 'I' for Inactive)
REMARK    1  A    between atoms: C_1  and  O_2
REMARK    2  A    between atoms: O_2  and  C_3
REMARK    3  A    between atoms: C_6  and  C_7
REMARK    4  A    between atoms: N_9  and  C_10
REMARK    5  A    between atoms: C_10  and  C_11
REMARK    6  A    between atoms: C_10  and  C_12
REMARK    7  A    between atoms: C_12  and  C_13
REMARK    8  A    between atoms: C_13  and  C_14
REMARK    9  A    between atoms: C_20  and  O_21
REMARK   10  A    between atoms: O_21  and  C_22
REMARK                            x       y       z     vdW  Elec       q    Type
REMARK                         _______ _______ _______ _____ _____    ______ ____
ROOT
ATOM      1  C   UNL     1       3.798   3.666  17.690  0.00  0.00    +0.000 C 
ATOM      2  O   UNL     1       3.217   2.613  17.474  0.00  0.00    +0.000 OA
ATOM      3  N   UNL     1       3.482   4.503  18.752  0.00  0.00    +0.000 N 
ATOM      4  H   UNL     1       3.934   5.402  18.825  0.00  0.00    +0.000 HD
ENDROOT
BRANCH   1   8
ATOM      5  C   UNL     1       7.002   5.021  15.149  0.00  0.00    +0.000 A 
ATOM      6  C   UNL     1       5.760   4.679  14.617  0.00  0.00    +0.000 A 
ATOM      7  C   UNL     1       4.734   4.234  15.446  0.00  0.00    +0.000 A 
ATOM      8  C   UNL     1       4.939   4.112  16.830  0.00  0.00    +0.000 A 
ATOM      9  C   UNL     1       6.189   4.463  17.380  0.00  0.00    +0.000 A 
ATOM     10  C   UNL     1       7.212   4.909  16.526  0.00  0.00    +0.000 A 
BRANCH   5  12
ATOM     11  C   UNL     1       7.745   5.021  12.889  0.00  0.00    +0.000 C 
ATOM     12  O   UNL     1       7.912   5.464  14.230  0.00  0.00    +0.000 OA
ENDBRANCH   5  12
BRANCH   9  13
ATOM     13  O   UNL     1       6.352   4.328  18.736  0.00  0.00    +0.000 OA
ATOM     14  C   UNL     1       6.905   5.417  19.463  0.00  0.00    +0.000 C 
ENDBRANCH   9  13
ENDBRANCH   1   8
BRANCH   3  15
ATOM     15  C   UNL     1       2.448   4.200  19.736  0.00  0.00    +0.000 C 
ATOM     16  C   UNL     1       2.947   3.190  20.769  0.00  0.00    +0.000 C 
BRANCH  15  17
ATOM     17  C   UNL     1       1.868   5.464  20.396  0.00  0.00    +0.000 C 
BRANCH  17  18
ATOM     18  C   UNL     1       2.505   6.747  19.845  0.00  0.00    +0.000 C 
BRANCH  18  19
ATOM     19  C   UNL     1       1.629   7.954  20.074  0.00  0.00    +0.000 A 
ATOM     20  C   UNL     1       1.481   8.921  19.071  0.00  0.00    +0.000 A 
ATOM     21  C   UNL     1       0.704  10.059  19.294  0.00  0.00    +0.000 A 
ATOM     22  C   UNL     1       0.073  10.244  20.522  0.00  0.00    +0.000 A 
ATOM     23  C   UNL     1       0.209   9.284  21.524  0.00  0.00    +0.000 A 
ATOM     24  C   UNL     1       0.983   8.144  21.302  0.00  0.00    +0.000 A 
ENDBRANCH  18  19
ENDBRANCH  17  18
ENDBRANCH  15  17
ENDBRANCH   3  15
TORSDOF 7
ENDMDL
MODEL 3
REMARK VINA RESULT:      -6.6      1.938      4.489
REMARK  Name = 
REMARK  10 active torsions:
REMARK  status: ('A' for Active; 'I' for Inactive)
REMARK    1  A    between atoms: C_1  and  O_2
REMARK    2  A    between atoms: O_2  and  C_3
REMARK    3  A    between atoms: C_6  and  C_7
REMARK    4  A    between atoms: N_9  and  C_10
REMARK    5  A    between atoms: C_10  and  C_11
REMARK    6  A    between atoms: C_10  and  C_12
REMARK    7  A    between atoms: C_12  and  C_13
REMARK    8  A    between atoms: C_13  and  C_14
REMARK    9  A    between atoms: C_20  and  O_21
REMARK   10  A    between atoms: O_21  and  C_22
REMARK                            x       y       z     vdW  Elec       q    Type
REMARK                         _______ _______ _______ _____ _____    ______ ____
ROOT
ATOM      1  C   UNL     1       3.668   3.774  17.678  0.00  0.00    +0.000 C 
ATOM      2  O   UNL     1       2.997   2.793  17.400  0.00  0.00    +0.000 OA
ATOM      3  N   UNL     1       3.421   4.575  18.785  0.00  0.00    +0.000 N 
ATOM      4  H   UNL     1       3.951   5.424  18.912  0.00  0.00    +0.000 HD
ENDROOT
BRANCH   1   8
ATOM      5  C   UNL     1       6.998   4.969  15.219  0.00  0.00    +0.000 A 
ATOM      6  C   UNL     1       5.768   4.643  14.651  0.00  0.00    +0.000 A 
ATOM      7  C   UNL     1       4.700   4.250  15.455  0.00  0.00    +0.000 A 
ATOM      8  C   UNL     1       4.852   4.165  16.849  0.00  0.00    +0.000 A 
ATOM      9  C   UNL     1       6.090   4.499  17.434  0.00  0.00    +0.000 A 
ATOM     10  C   UNL     1       7.155   4.893  16.606  0.00  0.00    +0.000 A 
BRANCH   5  12
ATOM     11  C   UNL     1       7.708   5.073  12.951  0.00  0.00    +0.000 C 
ATOM     12  O   UNL     1       7.953   5.359  14.323  0.00  0.00    +0.000 OA
ENDBRANCH   5  12
BRANCH   9  13
ATOM     13  O   UNL     1       6.200   4.402  18.798  0.00  0.00    +0.000 OA
ATOM     14  C   UNL     1       6.874   5.438  19.500  0.00  0.00    +0.000 C 
ENDBRANCH   9  13
ENDBRANCH   1   8
BRANCH   3  15
ATOM     15  C   UNL     1       2.356   4.310  19.748  0.00  0.00    +0.000 C 
ATOM     16  C   UNL     1       2.788   3.267  20.778  0.00  0.00    +0.000 C 
BRANCH  15  17
ATOM     17  C   UNL     1       1.823   5.593  20.412  0.00  0.00    +0.000 C 
BRANCH  17  18
ATOM     18  C   UNL     1       2.389   6.860  19.756  0.00  0.00    +0.000 C 
BRANCH  18  19
ATOM     19  C   UNL     1       1.605   8.091  20.139  0.00  0.00    +0.000 A 
ATOM     20  C   UNL     1       1.083   8.222  21.434  0.00  0.00    +0.000 A 
ATOM     21  C   UNL     1       0.322   9.340  21.780  0.00  0.00    +0.000 A 
ATOM     22  C   UNL     1       0.071  10.332  20.836  0.00  0.00    +0.000 A 
ATOM     23  C   UNL     1       0.591  10.215  19.547  0.00  0.00    +0.000 A 
ATOM     24  C   UNL     1       1.355   9.099  19.200  0.00  0.00    +0.000 A 
ENDBRANCH  18  19
ENDBRANCH  17  18
ENDBRANCH  15  17
ENDBRANCH   3  15
TORSDOF 7
ENDMDL
MODEL 4
REMARK VINA RESULT:      -6.6      1.776      4.079
REMARK  Name = 
REMARK  10 active torsions:
REMARK  status: ('A' for Active; 'I' for Inactive)
REMARK    1  A    between atoms: C_1  and  O_2
REMARK    2  A    between atoms: O_2  and  C_3
REMARK    3  A    between atoms: C_6  and  C_7
REMARK    4  A    between atoms: N_9  and  C_10
REMARK    5  A    between atoms: C_10  and  C_11
REMARK    6  A    between atoms: C_10  and  C_12
REMARK    7  A    between atoms: C_12  and  C_13
REMARK    8  A    between atoms: C_13  and  C_14
REMARK    9  A    between atoms: C_20  and  O_21
REMARK   10  A    between atoms: O_21  and  C_22
REMARK                            x       y       z     vdW  Elec       q    Type
REMARK                         _______ _______ _______ _____ _____    ______ ____
ROOT
ATOM      1  C   UNL     1       3.995   3.721  18.010  0.00  0.00    +0.000 C 
ATOM      2  O   UNL     1       4.181   2.895  18.890  0.00  0.00    +0.000 OA
ATOM      3  N   UNL     1       2.781   4.370  17.823  0.00  0.00    +0.000 N 
ATOM      4  H   UNL     1       2.660   4.973  17.023  0.00  0.00    +0.000 HD
ENDROOT
BRANCH   1   8
ATOM      5  C   UNL     1       7.079   4.948  15.263  0.00  0.00    +0.000 A 
ATOM      6  C   UNL     1       5.856   4.466  14.800  0.00  0.00    +0.000 A 
ATOM      7  C   UNL     1       4.868   4.065  15.697  0.00  0.00    +0.000 A 
ATOM      8  C   UNL     1       5.096   4.128  17.081  0.00  0.00    +0.000 A 
ATOM      9  C   UNL     1       6.327   4.620  17.561  0.00  0.00    +0.000 A 
ATOM     10  C   UNL     1       7.310   5.019  16.640  0.00  0.00    +0.000 A 
BRANCH   5  12
ATOM     11  C   UNL     1       7.572   5.048  12.939  0.00  0.00    +0.000 C 
ATOM     12  O   UNL     1       7.949   5.328  14.281  0.00  0.00    +0.000 OA
ENDBRANCH   5  12
BRANCH   9  13
ATOM     13  O   UNL     1       6.513   4.664  18.920  0.00  0.00    +0.000 OA
ATOM     14  C   UNL     1       7.390   5.648  19.452  0.00  0.00    +0.000 C 
ENDBRANCH   9  13
ENDBRANCH   1   8
BRANCH   3  15
ATOM     15  C   UNL     1       1.615   4.157  18.674  0.00  0.00    +0.000 C 
ATOM     16  C   UNL     1       1.300   2.668  18.817  0.00  0.00    +0.000 C 
BRANCH  15  17
ATOM     17  C   UNL     1       1.741   4.855  20.039  0.00  0.00    +0.000 C 
BRANCH  17  18
ATOM     18  C   UNL     1       2.771   5.993  20.014  0.00  0.00    +0.000 C 
BRANCH  18  19
ATOM     19  C   UNL     1       2.141   7.315  19.653  0.00  0.00    +0.000 A 
ATOM     20  C   UNL     1       2.273   7.831  18.356  0.00  0.00    +0.000 A 
ATOM     21  C   UNL     1       1.728   9.073  18.030  0.00  0.00    +0.000 A 
ATOM     22  C   UNL     1       1.050   9.813  18.996  0.00  0.00    +0.000 A 
ATOM     23  C   UNL     1       0.908   9.307  20.287  0.00  0.00    +0.000 A 
ATOM     24  C   UNL     1       1.451   8.062  20.614  0.00  0.00    +0.000 A 
ENDBRANCH  18  19
ENDBRANCH  17  18
ENDBRANCH  15  17
ENDBRANCH   3  15
TORSDOF 7
ENDMDL
MODEL 5
REMARK VINA RESULT:      -6.5      1.661      4.008
REMARK  Name = 
REMARK  10 active torsions:
REMARK  status: ('A' for Active; 'I' for Inactive)
REMARK    1  A    between atoms: C_1  and  O_2
REMARK    2  A    between atoms: O_2  and  C_3
REMARK    3  A    between atoms: C_6  and  C_7
REMARK    4  A    between atoms: N_9  and  C_10
REMARK    5  A    between atoms: C_10  and  C_11
REMARK    6  A    between atoms: C_10  and  C_12
REMARK    7  A    between atoms: C_12  and  C_13
REMARK    8  A    between atoms: C_13  and  C_14
REMARK    9  A    between atoms: C_20  and  O_21
REMARK   10  A    between atoms: O_21  and  C_22
REMARK                            x       y       z     vdW  Elec       q    Type
REMARK                         _______ _______ _______ _____ _____    ______ ____
ROOT
ATOM      1  C   UNL     1       4.013   3.781  17.751  0.00  0.00    +0.000 C 
ATOM      2  O   UNL     1       4.208   2.909  18.584  0.00  0.00    +0.000 OA
ATOM      3  N   UNL     1       2.797   4.435  17.607  0.00  0.00    +0.000 N 
ATOM      4  H   UNL     1       2.668   5.080  16.841  0.00  0.00    +0.000 HD
ENDROOT
BRANCH   1   8
ATOM      5  C   UNL     1       7.077   5.108  15.028  0.00  0.00    +0.000 A 
ATOM      6  C   UNL     1       6.110   4.189  14.626  0.00  0.00    +0.000 A 
ATOM      7  C   UNL     1       5.128   3.760  15.517  0.00  0.00    +0.000 A 
ATOM      8  C   UNL     1       5.107   4.239  16.837  0.00  0.00    +0.000 A 
ATOM      9  C   UNL     1       6.076   5.175  17.252  0.00  0.00    +0.000 A 
ATOM     10  C   UNL     1       7.058   5.595  16.337  0.00  0.00    +0.000 A 
BRANCH   5  12
ATOM     11  C   UNL     1       7.673   5.038  12.726  0.00  0.00    +0.000 C 
ATOM     12  O   UNL     1       7.965   5.462  14.052  0.00  0.00    +0.000 OA
ENDBRANCH   5  12
BRANCH   9  13
ATOM     13  O   UNL     1       6.023   5.619  18.549  0.00  0.00    +0.000 OA
ATOM     14  C   UNL     1       7.221   5.618  19.315  0.00  0.00    +0.000 C 
ENDBRANCH   9  13
ENDBRANCH   1   8
BRANCH   3  15
ATOM     15  C   UNL     1       1.637   4.173  18.453  0.00  0.00    +0.000 C 
ATOM     16  C   UNL     1       1.373   2.673  18.581  0.00  0.00    +0.000 C 
BRANCH  15  17
ATOM     17  C   UNL     1       1.737   4.862  19.826  0.00  0.00    +0.000 C 
BRANCH  17  18
ATOM     18  C   UNL     1       2.800   5.970  19.841  0.00  0.00    +0.000 C 
BRANCH  18  19
ATOM     19  C   UNL     1       2.205   7.325  19.548  0.00  0.00    +0.000 A 
ATOM     20  C   UNL     1       1.523   8.030  20.549  0.00  0.00    +0.000 A 
ATOM     21  C   UNL     1       0.936   9.265  20.271  0.00  0.00    +0.000 A 
ATOM     22  C   UNL     1       1.020   9.804  18.989  0.00  0.00    +0.000 A 
ATOM     23  C   UNL     1       1.701   9.114  17.988  0.00  0.00    +0.000 A 
ATOM     24  C   UNL     1       2.292   7.880  18.265  0.00  0.00    +0.000 A 
ENDBRANCH  18  19
ENDBRANCH  17  18
ENDBRANCH  15  17
ENDBRANCH   3  15
TORSDOF 7
ENDMDL
MODEL 6
REMARK VINA RESULT:      -6.5      1.680      3.905
REMARK  Name = 
REMARK  10 active torsions:
REMARK  status: ('A' for Active; 'I' for Inactive)
REMARK    1  A    between atoms: C_1  and  O_2
REMARK    2  A    between atoms: O_2  and  C_3
REMARK    3  A    between atoms: C_6  and  C_7
REMARK    4  A    between atoms: N_9  and  C_10
REMARK    5  A    between atoms: C_10  and  C_11
REMARK    6  A    between atoms: C_10  and  C_12
REMARK    7  A    between atoms: C_12  and  C_13
REMARK    8  A    between atoms: C_13  and  C_14
REMARK    9  A    between atoms: C_20  and  O_21
REMARK   10  A    between atoms: O_21  and  C_22
REMARK                            x       y       z     vdW  Elec       q    Type
REMARK                         _______ _______ _______ _____ _____    ______ ____
ROOT
ATOM      1  C   UNL     1       3.597   3.669  17.370  0.00  0.00    +0.000 C 
ATOM      2  O   UNL     1       2.571   3.376  16.775  0.00  0.00    +0.000 OA
ATOM      3  N   UNL     1       3.730   3.570  18.749  0.00  0.00    +0.000 N 
ATOM      4  H   UNL     1       4.570   3.914  19.191  0.00  0.00    +0.000 HD
ENDROOT
BRANCH   1   8
ATOM      5  C   UNL     1       7.036   5.031  15.161  0.00  0.00    +0.000 A 
ATOM      6  C   UNL     1       5.932   4.489  14.506  0.00  0.00    +0.000 A 
ATOM      7  C   UNL     1       4.828   4.045  15.230  0.00  0.00    +0.000 A 
ATOM      8  C   UNL     1       4.818   4.124  16.633  0.00  0.00    +0.000 A 
ATOM      9  C   UNL     1       5.928   4.677  17.305  0.00  0.00    +0.000 A 
ATOM     10  C   UNL     1       7.031   5.120  16.555  0.00  0.00    +0.000 A 
BRANCH   5  12
ATOM     11  C   UNL     1       7.864   5.226  12.939  0.00  0.00    +0.000 C 
ATOM     12  O   UNL     1       8.039   5.449  14.333  0.00  0.00    +0.000 OA
ENDBRANCH   5  12
BRANCH   9  13
ATOM     13  O   UNL     1       5.881   4.735  18.675  0.00  0.00    +0.000 OA
ATOM     14  C   UNL     1       6.829   5.551  19.351  0.00  0.00    +0.000 C 
ENDBRANCH   9  13
ENDBRANCH   1   8
BRANCH   3  15
ATOM     15  C   UNL     1       2.672   3.079  19.626  0.00  0.00    +0.000 C 
ATOM     16  C   UNL     1       3.248   2.520  20.927  0.00  0.00    +0.000 C 
BRANCH  15  17
ATOM     17  C   UNL     1       1.578   4.130  19.883  0.00  0.00    +0.000 C 
BRANCH  17  18
ATOM     18  C   UNL     1       2.077   5.279  20.770  0.00  0.00    +0.000 C 
BRANCH  18  19
ATOM     19  C   UNL     1       1.922   6.620  20.095  0.00  0.00    +0.000 A 
ATOM     20  C   UNL     1       2.452   6.833  18.815  0.00  0.00    +0.000 A 
ATOM     21  C   UNL     1       2.347   8.084  18.206  0.00  0.00    +0.000 A 
ATOM     22  C   UNL     1       1.717   9.133  18.870  0.00  0.00    +0.000 A 
ATOM     23  C   UNL     1       1.181   8.930  20.141  0.00  0.00    +0.000 A 
ATOM     24  C   UNL     1       1.282   7.678  20.751  0.00  0.00    +0.000 A 
ENDBRANCH  18  19
ENDBRANCH  17  18
ENDBRANCH  15  17
ENDBRANCH   3  15
TORSDOF 7
ENDMDL
MODEL 7
REMARK VINA RESULT:      -6.5      2.233      6.443
REMARK  Name = 
REMARK  10 active torsions:
REMARK  status: ('A' for Active; 'I' for Inactive)
REMARK    1  A    between atoms: C_1  and  O_2
REMARK    2  A    between atoms: O_2  and  C_3
REMARK    3  A    between atoms: C_6  and  C_7
REMARK    4  A    between atoms: N_9  and  C_10
REMARK    5  A    between atoms: C_10  and  C_11
REMARK    6  A    between atoms: C_10  and  C_12
REMARK    7  A    between atoms: C_12  and  C_13
REMARK    8  A    between atoms: C_13  and  C_14
REMARK    9  A    between atoms: C_20  and  O_21
REMARK   10  A    between atoms: O_21  and  C_22
REMARK                            x       y       z     vdW  Elec       q    Type
REMARK                         _______ _______ _______ _____ _____    ______ ____
ROOT
ATOM      1  C   UNL     1       3.763   5.953  18.623  0.00  0.00    +0.000 C 
ATOM      2  O   UNL     1       4.632   5.661  19.430  0.00  0.00    +0.000 OA
ATOM      3  N   UNL     1       3.511   5.213  17.476  0.00  0.00    +0.000 N 
ATOM      4  H   UNL     1       2.843   5.555  16.801  0.00  0.00    +0.000 HD
ENDROOT
BRANCH   1   8
ATOM      5  C   UNL     1       1.148   9.340  19.134  0.00  0.00    +0.000 A 
ATOM      6  C   UNL     1       1.991   9.244  18.028  0.00  0.00    +0.000 A 
ATOM      7  C   UNL     1       2.838   8.149  17.876  0.00  0.00    +0.000 A 
ATOM      8  C   UNL     1       2.864   7.131  18.843  0.00  0.00    +0.000 A 
ATOM      9  C   UNL     1       2.011   7.214  19.963  0.00  0.00    +0.000 A 
ATOM     10  C   UNL     1       1.164   8.327  20.097  0.00  0.00    +0.000 A 
BRANCH   5  12
ATOM     11  C   UNL     1      -0.793  10.439  18.308  0.00  0.00    +0.000 C 
ATOM     12  O   UNL     1       0.354  10.451  19.149  0.00  0.00    +0.000 OA
ENDBRANCH   5  12
BRANCH   9  13
ATOM     13  O   UNL     1       2.067   6.201  20.886  0.00  0.00    +0.000 OA
ATOM     14  C   UNL     1       1.311   5.022  20.645  0.00  0.00    +0.000 C 
ENDBRANCH   9  13
ENDBRANCH   1   8
BRANCH   3  15
ATOM     15  C   UNL     1       4.237   3.995  17.130  0.00  0.00    +0.000 C 
ATOM     16  C   UNL     1       3.333   2.765  17.232  0.00  0.00    +0.000 C 
BRANCH  15  17
ATOM     17  C   UNL     1       4.934   4.087  15.761  0.00  0.00    +0.000 C 
BRANCH  17  18
ATOM     18  C   UNL     1       6.463   4.036  15.886  0.00  0.00    +0.000 C 
BRANCH  18  19
ATOM     19  C   UNL     1       6.982   5.061  16.864  0.00  0.00    +0.000 A 
ATOM     20  C   UNL     1       6.884   6.429  16.575  0.00  0.00    +0.000 A 
ATOM     21  C   UNL     1       7.401   7.378  17.458  0.00  0.00    +0.000 A 
ATOM     22  C   UNL     1       8.023   6.970  18.635  0.00  0.00    +0.000 A 
ATOM     23  C   UNL     1       8.120   5.612  18.936  0.00  0.00    +0.000 A 
ATOM     24  C   UNL     1       7.602   4.661  18.055  0.00  0.00    +0.000 A 
ENDBRANCH  18  19
ENDBRANCH  17  18
ENDBRANCH  15  17
ENDBRANCH   3  15
TORSDOF 7
ENDMDL
MODEL 8
REMARK VINA RESULT:      -6.5      5.269      7.970
REMARK  Name = 
REMARK  10 active torsions:
REMARK  status: ('A' for Active; 'I' for Inactive)
REMARK    1  A    between atoms: C_1  and  O_2
REMARK    2  A    between atoms: O_2  and  C_3
REMARK    3  A    between atoms: C_6  and  C_7
REMARK    4  A    between atoms: N_9  and  C_10
REMARK    5  A    between atoms: C_10  and  C_11
REMARK    6  A    between atoms: C_10  and  C_12
REMARK    7  A    between atoms: C_12  and  C_13
REMARK    8  A    between atoms: C_13  and  C_14
REMARK    9  A    between atoms: C_20  and  O_21
REMARK   10  A    between atoms: O_21  and  C_22
REMARK                            x       y       z     vdW  Elec       q    Type
REMARK                         _______ _______ _______ _____ _____    ______ ____
ROOT
ATOM      1  C   UNL     1       0.137   9.890  19.015  0.00  0.00    +0.000 C 
ATOM      2  O   UNL     1       1.194   9.985  18.410  0.00  0.00    +0.000 OA
ATOM      3  N   UNL     1       0.034   9.339  20.285  0.00  0.00    +0.000 N 
ATOM      4  H   UNL     1      -0.878   9.204  20.695  0.00  0.00    +0.000 HD
ENDROOT
BRANCH   1   8
ATOM      5  C   UNL     1      -3.570  11.267  17.302  0.00  0.00    +0.000 A 
ATOM      6  C   UNL     1      -2.814  10.278  16.675  0.00  0.00    +0.000 A 
ATOM      7  C   UNL     1      -1.613   9.846  17.234  0.00  0.00    +0.000 A 
ATOM      8  C   UNL     1      -1.140  10.410  18.430  0.00  0.00    +0.000 A 
ATOM      9  C   UNL     1      -1.900  11.406  19.076  0.00  0.00    +0.000 A 
ATOM     10  C   UNL     1      -3.109  11.828  18.496  0.00  0.00    +0.000 A 
BRANCH   5  12
ATOM     11  C   UNL     1      -5.765  12.170  17.448  0.00  0.00    +0.000 C 
ATOM     12  O   UNL     1      -4.735  11.582  16.663  0.00  0.00    +0.000 OA
ENDBRANCH   5  12
BRANCH   9  13
ATOM     13  O   UNL     1      -1.405  11.934  20.242  0.00  0.00    +0.000 OA
ATOM     14  C   UNL     1      -0.946  13.279  20.235  0.00  0.00    +0.000 C 
ENDBRANCH   9  13
ENDBRANCH   1   8
BRANCH   3  15
ATOM     15  C   UNL     1       1.180   8.846  21.042  0.00  0.00    +0.000 C 
ATOM     16  C   UNL     1       1.184   9.402  22.466  0.00  0.00    +0.000 C 
BRANCH  15  17
ATOM     17  C   UNL     1       1.289   7.311  21.021  0.00  0.00    +0.000 C 
BRANCH  17  18
ATOM     18  C   UNL     1       2.255   6.814  19.937  0.00  0.00    +0.000 C 
BRANCH  18  19
ATOM     19  C   UNL     1       1.927   5.411  19.489  0.00  0.00    +0.000 A 
ATOM     20  C   UNL     1       2.206   5.004  18.177  0.00  0.00    +0.000 A 
ATOM     21  C   UNL     1       1.866   3.721  17.747  0.00  0.00    +0.000 A 
ATOM     22  C   UNL     1       1.240   2.835  18.621  0.00  0.00    +0.000 A 
ATOM     23  C   UNL     1       0.964   3.228  19.930  0.00  0.00    +0.000 A 
ATOM     24  C   UNL     1       1.307   4.511  20.363  0.00  0.00    +0.000 A 
ENDBRANCH  18  19
ENDBRANCH  17  18
ENDBRANCH  15  17
ENDBRANCH   3  15
TORSDOF 7
ENDMDL
MODEL 9
REMARK VINA RESULT:      -6.3      5.168      7.868
REMARK  Name = 
REMARK  10 active torsions:
REMARK  status: ('A' for Active; 'I' for Inactive)
REMARK    1  A    between atoms: C_1  and  O_2
REMARK    2  A    between atoms: O_2  and  C_3
REMARK    3  A    between atoms: C_6  and  C_7
REMARK    4  A    between atoms: N_9  and  C_10
REMARK    5  A    between atoms: C_10  and  C_11
REMARK    6  A    between atoms: C_10  and  C_12
REMARK    7  A    between atoms: C_12  and  C_13
REMARK    8  A    between atoms: C_13  and  C_14
REMARK    9  A    between atoms: C_20  and  O_21
REMARK   10  A    between atoms: O_21  and  C_22
REMARK                            x       y       z     vdW  Elec       q    Type
REMARK                         _______ _______ _______ _____ _____    ______ ____
ROOT
ATOM      1  C   UNL     1       0.307   9.922  19.104  0.00  0.00    +0.000 C 
ATOM      2  O   UNL     1       1.372  10.111  18.537  0.00  0.00    +0.000 OA
ATOM      3  N   UNL     1       0.200   9.251  20.315  0.00  0.00    +0.000 N 
ATOM      4  H   UNL     1      -0.714   9.045  20.688  0.00  0.00    +0.000 HD
ENDROOT
BRANCH   1   8
ATOM      5  C   UNL     1      -3.419  11.317  17.451  0.00  0.00    +0.000 A 
ATOM      6  C   UNL     1      -2.679  10.323  16.813  0.00  0.00    +0.000 A 
ATOM      7  C   UNL     1      -1.472   9.885  17.352  0.00  0.00    +0.000 A 
ATOM      8  C   UNL     1      -0.976  10.448  18.540  0.00  0.00    +0.000 A 
ATOM      9  C   UNL     1      -1.720  11.449  19.197  0.00  0.00    +0.000 A 
ATOM     10  C   UNL     1      -2.936  11.876  18.637  0.00  0.00    +0.000 A 
BRANCH   5  12
ATOM     11  C   UNL     1      -5.772  11.617  17.626  0.00  0.00    +0.000 C 
ATOM     12  O   UNL     1      -4.594  11.637  16.831  0.00  0.00    +0.000 OA
ENDBRANCH   5  12
BRANCH   9  13
ATOM     13  O   UNL     1      -1.203  11.975  20.354  0.00  0.00    +0.000 OA
ATOM     14  C   UNL     1      -0.707  13.307  20.330  0.00  0.00    +0.000 C 
ENDBRANCH   9  13
ENDBRANCH   1   8
BRANCH   3  15
ATOM     15  C   UNL     1       1.349   8.730  21.050  0.00  0.00    +0.000 C 
ATOM     16  C   UNL     1       1.377   9.265  22.482  0.00  0.00    +0.000 C 
BRANCH  15  17
ATOM     17  C   UNL     1       1.435   7.194  21.004  0.00  0.00    +0.000 C 
BRANCH  17  18
ATOM     18  C   UNL     1       2.234   6.696  19.791  0.00  0.00    +0.000 C 
BRANCH  18  19
ATOM     19  C   UNL     1       1.851   5.290  19.404  0.00  0.00    +0.000 A 
ATOM     20  C   UNL     1       1.254   4.435  20.341  0.00  0.00    +0.000 A 
ATOM     21  C   UNL     1       0.936   3.120  19.998  0.00  0.00    +0.000 A 
ATOM     22  C   UNL     1       1.217   2.645  18.719  0.00  0.00    +0.000 A 
ATOM     23  C   UNL     1       1.806   3.489  17.778  0.00  0.00    +0.000 A 
ATOM     24  C   UNL     1       2.121   4.806  18.118  0.00  0.00    +0.000 A 
ENDBRANCH  18  19
ENDBRANCH  17  18
ENDBRANCH  15  17
ENDBRANCH   3  15
TORSDOF 7
ENDMDL
