MODEL 1
REMARK VINA RESULT:      -6.2      0.000      0.000
REMARK  Name = 
REMARK  7 active torsions:
REMARK  status: ('A' for Active; 'I' for Inactive)
REMARK    1  A    between atoms: C_1  and  O_2
REMARK    2  A    between atoms: O_2  and  C_3
REMARK    3  A    between atoms: C_7  and  C_8
REMARK    4  A    between atoms: C_10  and  S_11
REMARK    5  A    between atoms: S_11  and  C_12
REMARK    6  A    between atoms: N_13  and  C_14
REMARK    7  A    between atoms: C_17  and  C_18
REMARK                            x       y       z     vdW  Elec       q    Type
REMARK                         _______ _______ _______ _____ _____    ______ ____
ROOT
ATOM      1  C   UNL     1       4.431   4.781  18.521  0.00  0.00    +0.000 A 
ATOM      2  N   UNL     1       3.631   4.819  19.634  0.00  0.00    +0.000 NA
ATOM      3  C   UNL     1       2.527   4.141  19.617  0.00  0.00    +0.000 A 
ATOM      4  N   UNL     1       2.110   3.390  18.532  0.00  0.00    +0.000 N 
ATOM      5  C   UNL     1       0.880   2.607  18.452  0.00  0.00    +0.000 C 
ATOM      6  C   UNL     1       2.891   3.336  17.385  0.00  0.00    +0.000 A 
ATOM      7  O   UNL     1       2.569   2.696  16.385  0.00  0.00    +0.000 OA
ATOM      8  C   UNL     1       4.152   4.094  17.404  0.00  0.00    +0.000 A 
ENDROOT
BRANCH   1  13
ATOM      9  C   UNL     1       7.145   7.317  17.808  0.00  0.00    +0.000 A 
ATOM     10  C   UNL     1       8.176   6.813  18.604  0.00  0.00    +0.000 A 
ATOM     11  C   UNL     1       7.977   5.689  19.406  0.00  0.00    +0.000 A 
ATOM     12  C   UNL     1       6.741   5.050  19.408  0.00  0.00    +0.000 A 
ATOM     13  C   UNL     1       5.700   5.537  18.605  0.00  0.00    +0.000 A 
ATOM     14  C   UNL     1       5.900   6.686  17.821  0.00  0.00    +0.000 A 
BRANCH   9  16
ATOM     15  C   UNL     1       8.191   9.455  17.710  0.00  0.00    +0.000 C 
ATOM     16  O   UNL     1       7.489   8.406  17.056  0.00  0.00    +0.000 OA
ENDBRANCH   9  16
ENDBRANCH   1  13
BRANCH   3  17
ATOM     17  S   UNL     1       1.503   4.175  21.042  0.00  0.00    +0.000 S 
ATOM     18  C   UNL     1       1.894   2.609  21.856  0.00  0.00    +0.000 C 
ENDBRANCH   3  17
BRANCH   8  19
ATOM     19  C   UNL     1       4.995   4.041  16.260  0.00  0.00    +0.000 C 
ATOM     20  N   UNL     1       5.666   3.985  15.316  0.00  0.00    +0.000 NA
ENDBRANCH   8  19
TORSDOF 4
ENDMDL
MODEL 2
REMARK VINA RESULT:      -6.1      3.627      4.636
REMARK  Name = 
REMARK  7 active torsions:
REMARK  status: ('A' for Active; 'I' for Inactive)
REMARK    1  A    between atoms: C_1  and  O_2
REMARK    2  A    between atoms: O_2  and  C_3
REMARK    3  A    between atoms: C_7  and  C_8
REMARK    4  A    between atoms: C_10  and  S_11
REMARK    5  A    between atoms: S_11  and  C_12
REMARK    6  A    between atoms: N_13  and  C_14
REMARK    7  A    between atoms: C_17  and  C_18
REMARK                            x       y       z     vdW  Elec       q    Type
REMARK                         _______ _______ _______ _____ _____    ______ ____
ROOT
ATOM      1  C   UNL     1       2.651   5.768  18.601  0.00  0.00    +0.000 A 
ATOM      2  N   UNL     1       1.834   4.825  19.169  0.00  0.00    +0.000 NA
ATOM      3  C   UNL     1       2.160   3.577  19.045  0.00  0.00    +0.000 A 
ATOM      4  N   UNL     1       3.283   3.147  18.360  0.00  0.00    +0.000 N 
ATOM      5  C   UNL     1       3.703   1.760  18.185  0.00  0.00    +0.000 C 
ATOM      6  C   UNL     1       4.128   4.074  17.764  0.00  0.00    +0.000 A 
ATOM      7  O   UNL     1       5.135   3.754  17.133  0.00  0.00    +0.000 OA
ATOM      8  C   UNL     1       3.769   5.493  17.914  0.00  0.00    +0.000 A 
ENDROOT
BRANCH   1  13
ATOM      9  C   UNL     1       1.461   8.951  20.260  0.00  0.00    +0.000 A 
ATOM     10  C   UNL     1       1.298   9.772  19.142  0.00  0.00    +0.000 A 
ATOM     11  C   UNL     1       1.621   9.314  17.864  0.00  0.00    +0.000 A 
ATOM     12  C   UNL     1       2.101   8.019  17.695  0.00  0.00    +0.000 A 
ATOM     13  C   UNL     1       2.258   7.179  18.806  0.00  0.00    +0.000 A 
ATOM     14  C   UNL     1       1.957   7.657  20.092  0.00  0.00    +0.000 A 
BRANCH   9  16
ATOM     15  C   UNL     1      -0.158   9.104  22.000  0.00  0.00    +0.000 C 
ATOM     16  O   UNL     1       1.081   9.522  21.444  0.00  0.00    +0.000 OA
ENDBRANCH   9  16
ENDBRANCH   1  13
BRANCH   3  17
ATOM     17  S   UNL     1       1.125   2.365  19.780  0.00  0.00    +0.000 S 
ATOM     18  C   UNL     1       1.467   2.561  21.544  0.00  0.00    +0.000 C 
ENDBRANCH   3  17
BRANCH   8  19
ATOM     19  C   UNL     1       4.625   6.475  17.343  0.00  0.00    +0.000 C 
ATOM     20  N   UNL     1       5.340   7.266  16.888  0.00  0.00    +0.000 NA
ENDBRANCH   8  19
TORSDOF 4
ENDMDL
MODEL 3
REMARK VINA RESULT:      -6.0      3.891      5.518
REMARK  Name = 
REMARK  7 active torsions:
REMARK  status: ('A' for Active; 'I' for Inactive)
REMARK    1  A    between atoms: C_1  and  O_2
REMARK    2  A    between atoms: O_2  and  C_3
REMARK    3  A    between atoms: C_7  and  C_8
REMARK    4  A    between atoms: C_10  and  S_11
REMARK    5  A    between atoms: S_11  and  C_12
REMARK    6  A    between atoms: N_13  and  C_14
REMARK    7  A    between atoms: C_17  and  C_18
REMARK                            x       y       z     vdW  Elec       q    Type
REMARK                         _______ _______ _______ _____ _____    ______ ____
ROOT
ATOM      1  C   UNL     1       3.681   6.458  18.050  0.00  0.00    +0.000 A 
ATOM      2  N   UNL     1       4.907   7.056  17.906  0.00  0.00    +0.000 NA
ATOM      3  C   UNL     1       5.845   6.392  17.307  0.00  0.00    +0.000 A 
ATOM      4  N   UNL     1       5.677   5.109  16.816  0.00  0.00    +0.000 N 
ATOM      5  C   UNL     1       6.693   4.312  16.135  0.00  0.00    +0.000 C 
ATOM      6  C   UNL     1       4.453   4.470  16.953  0.00  0.00    +0.000 A 
ATOM      7  O   UNL     1       4.245   3.327  16.548  0.00  0.00    +0.000 OA
ATOM      8  C   UNL     1       3.380   5.224  17.620  0.00  0.00    +0.000 A 
ENDROOT
BRANCH   1  13
ATOM      9  C   UNL     1       1.151   9.194  18.694  0.00  0.00    +0.000 A 
ATOM     10  C   UNL     1       0.829   8.930  20.028  0.00  0.00    +0.000 A 
ATOM     11  C   UNL     1       1.389   7.842  20.697  0.00  0.00    +0.000 A 
ATOM     12  C   UNL     1       2.290   7.012  20.037  0.00  0.00    +0.000 A 
ATOM     13  C   UNL     1       2.632   7.271  18.702  0.00  0.00    +0.000 A 
ATOM     14  C   UNL     1       2.043   8.353  18.027  0.00  0.00    +0.000 A 
BRANCH   9  16
ATOM     15  C   UNL     1      -0.659  10.740  18.785  0.00  0.00    +0.000 C 
ATOM     16  O   UNL     1       0.549  10.306  18.174  0.00  0.00    +0.000 OA
ENDBRANCH   9  16
ENDBRANCH   1  13
BRANCH   3  17
ATOM     17  S   UNL     1       7.412   7.156  17.108  0.00  0.00    +0.000 S 
ATOM     18  C   UNL     1       8.186   6.911  18.724  0.00  0.00    +0.000 C 
ENDBRANCH   3  17
BRANCH   8  19
ATOM     19  C   UNL     1       2.102   4.615  17.754  0.00  0.00    +0.000 C 
ATOM     20  N   UNL     1       1.070   4.099  17.872  0.00  0.00    +0.000 NA
ENDBRANCH   8  19
TORSDOF 4
ENDMDL
MODEL 4
REMARK VINA RESULT:      -5.8      3.050      4.362
REMARK  Name = 
REMARK  7 active torsions:
REMARK  status: ('A' for Active; 'I' for Inactive)
REMARK    1  A    between atoms: C_1  and  O_2
REMARK    2  A    between atoms: O_2  and  C_3
REMARK    3  A    between atoms: C_7  and  C_8
REMARK    4  A    between atoms: C_10  and  S_11
REMARK    5  A    between atoms: S_11  and  C_12
REMARK    6  A    between atoms: N_13  and  C_14
REMARK    7  A    between atoms: C_17  and  C_18
REMARK                            x       y       z     vdW  Elec       q    Type
REMARK                         _______ _______ _______ _____ _____    ______ ____
ROOT
ATOM      1  C   UNL     1       3.816   6.135  18.364  0.00  0.00    +0.000 A 
ATOM      2  N   UNL     1       3.148   7.326  18.228  0.00  0.00    +0.000 NA
ATOM      3  C   UNL     1       2.238   7.621  19.102  0.00  0.00    +0.000 A 
ATOM      4  N   UNL     1       1.898   6.793  20.157  0.00  0.00    +0.000 N 
ATOM      5  C   UNL     1       0.884   7.068  21.171  0.00  0.00    +0.000 C 
ATOM      6  C   UNL     1       2.545   5.576  20.320  0.00  0.00    +0.000 A 
ATOM      7  O   UNL     1       2.280   4.792  21.231  0.00  0.00    +0.000 OA
ATOM      8  C   UNL     1       3.590   5.242  19.338  0.00  0.00    +0.000 A 
ENDROOT
BRANCH   1  13
ATOM      9  C   UNL     1       5.684   4.623  15.445  0.00  0.00    +0.000 A 
ATOM     10  C   UNL     1       6.948   5.187  15.636  0.00  0.00    +0.000 A 
ATOM     11  C   UNL     1       7.179   6.092  16.672  0.00  0.00    +0.000 A 
ATOM     12  C   UNL     1       6.144   6.431  17.538  0.00  0.00    +0.000 A 
ATOM     13  C   UNL     1       4.874   5.863  17.367  0.00  0.00    +0.000 A 
ATOM     14  C   UNL     1       4.642   4.974  16.304  0.00  0.00    +0.000 A 
BRANCH   9  16
ATOM     15  C   UNL     1       6.454   3.969  13.287  0.00  0.00    +0.000 C 
ATOM     16  O   UNL     1       5.610   3.735  14.407  0.00  0.00    +0.000 OA
ENDBRANCH   9  16
ENDBRANCH   1  13
BRANCH   3  17
ATOM     17  S   UNL     1       1.389   9.148  18.940  0.00  0.00    +0.000 S 
ATOM     18  C   UNL     1       2.406  10.049  17.749  0.00  0.00    +0.000 C 
ENDBRANCH   3  17
BRANCH   8  19
ATOM     19  C   UNL     1       4.297   4.017  19.487  0.00  0.00    +0.000 C 
ATOM     20  N   UNL     1       4.888   3.029  19.625  0.00  0.00    +0.000 NA
ENDBRANCH   8  19
TORSDOF 4
ENDMDL
MODEL 5
REMARK VINA RESULT:      -5.7      3.173      6.419
REMARK  Name = 
REMARK  7 active torsions:
REMARK  status: ('A' for Active; 'I' for Inactive)
REMARK    1  A    between atoms: C_1  and  O_2
REMARK    2  A    between atoms: O_2  and  C_3
REMARK    3  A    between atoms: C_7  and  C_8
REMARK    4  A    between atoms: C_10  and  S_11
REMARK    5  A    between atoms: S_11  and  C_12
REMARK    6  A    between atoms: N_13  and  C_14
REMARK    7  A    between atoms: C_17  and  C_18
REMARK                            x       y       z     vdW  Elec       q    Type
REMARK                         _______ _______ _______ _____ _____    ______ ____
ROOT
ATOM      1  C   UNL     1       5.133   3.950  16.120  0.00  0.00    +0.000 A 
ATOM      2  N   UNL     1       5.148   3.487  14.829  0.00  0.00    +0.000 NA
ATOM      3  C   UNL     1       6.040   3.962  14.019  0.00  0.00    +0.000 A 
ATOM      4  N   UNL     1       6.969   4.920  14.385  0.00  0.00    +0.000 N 
ATOM      5  C   UNL     1       7.996   5.494  13.520  0.00  0.00    +0.000 C 
ATOM      6  C   UNL     1       6.977   5.418  15.681  0.00  0.00    +0.000 A 
ATOM      7  O   UNL     1       7.771   6.277  16.064  0.00  0.00    +0.000 OA
ATOM      8  C   UNL     1       5.975   4.871  16.609  0.00  0.00    +0.000 A 
ENDROOT
BRANCH   1  13
ATOM      9  C   UNL     1       2.161   3.567  18.428  0.00  0.00    +0.000 A 
ATOM     10  C   UNL     1       2.364   2.263  18.886  0.00  0.00    +0.000 A 
ATOM     11  C   UNL     1       3.427   1.494  18.410  0.00  0.00    +0.000 A 
ATOM     12  C   UNL     1       4.307   2.034  17.477  0.00  0.00    +0.000 A 
ATOM     13  C   UNL     1       4.123   3.345  17.017  0.00  0.00    +0.000 A 
ATOM     14  C   UNL     1       3.035   4.103  17.480  0.00  0.00    +0.000 A 
BRANCH   9  16
ATOM     15  C   UNL     1       0.983   4.150  20.414  0.00  0.00    +0.000 C 
ATOM     16  O   UNL     1       1.098   4.210  18.999  0.00  0.00    +0.000 OA
ENDBRANCH   9  16
ENDBRANCH   1  13
BRANCH   3  17
ATOM     17  S   UNL     1       6.072   3.366  12.369  0.00  0.00    +0.000 S 
ATOM     18  C   UNL     1       4.327   3.387  11.900  0.00  0.00    +0.000 C 
ENDBRANCH   3  17
BRANCH   8  19
ATOM     19  C   UNL     1       5.969   5.334  17.954  0.00  0.00    +0.000 C 
ATOM     20  N   UNL     1       5.949   5.694  19.056  0.00  0.00    +0.000 NA
ENDBRANCH   8  19
TORSDOF 4
ENDMDL
MODEL 6
REMARK VINA RESULT:      -5.5      3.725      4.740
REMARK  Name = 
REMARK  7 active torsions:
REMARK  status: ('A' for Active; 'I' for Inactive)
REMARK    1  A    between atoms: C_1  and  O_2
REMARK    2  A    between atoms: O_2  and  C_3
REMARK    3  A    between atoms: C_7  and  C_8
REMARK    4  A    between atoms: C_10  and  S_11
REMARK    5  A    between atoms: S_11  and  C_12
REMARK    6  A    between atoms: N_13  and  C_14
REMARK    7  A    between atoms: C_17  and  C_18
REMARK                            x       y       z     vdW  Elec       q    Type
REMARK                         _______ _______ _______ _____ _____    ______ ____
ROOT
ATOM      1  C   UNL     1       3.000   5.916  19.162  0.00  0.00    +0.000 A 
ATOM      2  N   UNL     1       2.183   5.003  19.779  0.00  0.00    +0.000 NA
ATOM      3  C   UNL     1       2.634   3.802  19.960  0.00  0.00    +0.000 A 
ATOM      4  N   UNL     1       3.891   3.390  19.553  0.00  0.00    +0.000 N 
ATOM      5  C   UNL     1       4.454   2.055  19.727  0.00  0.00    +0.000 C 
ATOM      6  C   UNL     1       4.741   4.284  18.916  0.00  0.00    +0.000 A 
ATOM      7  O   UNL     1       5.865   3.976  18.522  0.00  0.00    +0.000 OA
ATOM      8  C   UNL     1       4.239   5.654  18.721  0.00  0.00    +0.000 A 
ENDROOT
BRANCH   1  13
ATOM      9  C   UNL     1       1.279   9.190  19.949  0.00  0.00    +0.000 A 
ATOM     10  C   UNL     1       1.229   9.761  18.675  0.00  0.00    +0.000 A 
ATOM     11  C   UNL     1       1.796   9.113  17.578  0.00  0.00    +0.000 A 
ATOM     12  C   UNL     1       2.409   7.875  17.746  0.00  0.00    +0.000 A 
ATOM     13  C   UNL     1       2.456   7.284  19.017  0.00  0.00    +0.000 A 
ATOM     14  C   UNL     1       1.908   7.956  20.121  0.00  0.00    +0.000 A 
BRANCH   9  16
ATOM     15  C   UNL     1       0.714   9.418  22.252  0.00  0.00    +0.000 C 
ATOM     16  O   UNL     1       0.662   9.924  20.925  0.00  0.00    +0.000 OA
ENDBRANCH   9  16
ENDBRANCH   1  13
BRANCH   3  17
ATOM     17  S   UNL     1       1.598   2.633  20.760  0.00  0.00    +0.000 S 
ATOM     18  C   UNL     1       0.610   1.974  19.397  0.00  0.00    +0.000 C 
ENDBRANCH   3  17
BRANCH   8  19
ATOM     19  C   UNL     1       5.091   6.608  18.099  0.00  0.00    +0.000 C 
ATOM     20  N   UNL     1       5.797   7.369  17.583  0.00  0.00    +0.000 NA
ENDBRANCH   8  19
TORSDOF 4
ENDMDL
MODEL 7
REMARK VINA RESULT:      -5.5      2.943      4.000
REMARK  Name = 
REMARK  7 active torsions:
REMARK  status: ('A' for Active; 'I' for Inactive)
REMARK    1  A    between atoms: C_1  and  O_2
REMARK    2  A    between atoms: O_2  and  C_3
REMARK    3  A    between atoms: C_7  and  C_8
REMARK    4  A    between atoms: C_10  and  S_11
REMARK    5  A    between atoms: S_11  and  C_12
REMARK    6  A    between atoms: N_13  and  C_14
REMARK    7  A    between atoms: C_17  and  C_18
REMARK                            x       y       z     vdW  Elec       q    Type
REMARK                         _______ _______ _______ _____ _____    ______ ____
ROOT
ATOM      1  C   UNL     1       3.883   4.877  17.838  0.00  0.00    +0.000 A 
ATOM      2  N   UNL     1       3.507   6.161  18.141  0.00  0.00    +0.000 NA
ATOM      3  C   UNL     1       2.594   6.334  19.043  0.00  0.00    +0.000 A 
ATOM      4  N   UNL     1       1.970   5.292  19.707  0.00  0.00    +0.000 N 
ATOM      5  C   UNL     1       0.936   5.423  20.729  0.00  0.00    +0.000 C 
ATOM      6  C   UNL     1       2.318   3.979  19.418  0.00  0.00    +0.000 A 
ATOM      7  O   UNL     1       1.793   3.011  19.966  0.00  0.00    +0.000 OA
ATOM      8  C   UNL     1       3.365   3.777  18.404  0.00  0.00    +0.000 A 
ENDROOT
BRANCH   1  13
ATOM      9  C   UNL     1       5.672   4.192  14.577  0.00  0.00    +0.000 A 
ATOM     10  C   UNL     1       7.001   4.236  15.005  0.00  0.00    +0.000 A 
ATOM     11  C   UNL     1       7.317   4.538  16.330  0.00  0.00    +0.000 A 
ATOM     12  C   UNL     1       6.297   4.786  17.245  0.00  0.00    +0.000 A 
ATOM     13  C   UNL     1       4.959   4.733  16.833  0.00  0.00    +0.000 A 
ATOM     14  C   UNL     1       4.650   4.456  15.491  0.00  0.00    +0.000 A 
BRANCH   9  16
ATOM     15  C   UNL     1       6.683   3.770  12.462  0.00  0.00    +0.000 C 
ATOM     16  O   UNL     1       5.510   3.859  13.260  0.00  0.00    +0.000 OA
ENDBRANCH   9  16
ENDBRANCH   1  13
BRANCH   3  17
ATOM     17  S   UNL     1       2.117   7.974  19.445  0.00  0.00    +0.000 S 
ATOM     18  C   UNL     1       2.042   8.778  17.828  0.00  0.00    +0.000 C 
ENDBRANCH   3  17
BRANCH   8  19
ATOM     19  C   UNL     1       3.771   2.448  18.101  0.00  0.00    +0.000 C 
ATOM     20  N   UNL     1       4.112   1.363  17.874  0.00  0.00    +0.000 NA
ENDBRANCH   8  19
TORSDOF 4
ENDMDL
MODEL 8
REMARK VINA RESULT:      -5.5      3.449      6.531
REMARK  Name = 
REMARK  7 active torsions:
REMARK  status: ('A' for Active; 'I' for Inactive)
REMARK    1  A    between atoms: C_1  and  O_2
REMARK    2  A    between atoms: O_2  and  C_3
REMARK    3  A    between atoms: C_7  and  C_8
REMARK    4  A    between atoms: C_10  and  S_11
REMARK    5  A    between atoms: S_11  and  C_12
REMARK    6  A    between atoms: N_13  and  C_14
REMARK    7  A    between atoms: C_17  and  C_18
REMARK                            x       y       z     vdW  Elec       q    Type
REMARK                         _______ _______ _______ _____ _____    ______ ____
ROOT
ATOM      1  C   UNL     1       5.337   4.543  15.402  0.00  0.00    +0.000 A 
ATOM      2  N   UNL     1       4.765   3.941  14.310  0.00  0.00    +0.000 NA
ATOM      3  C   UNL     1       5.431   3.931  13.199  0.00  0.00    +0.000 A 
ATOM      4  N   UNL     1       6.682   4.504  13.054  0.00  0.00    +0.000 N 
ATOM      5  C   UNL     1       7.480   4.525  11.832  0.00  0.00    +0.000 C 
ATOM      6  C   UNL     1       7.286   5.131  14.136  0.00  0.00    +0.000 A 
ATOM      7  O   UNL     1       8.392   5.668  14.068  0.00  0.00    +0.000 OA
ATOM      8  C   UNL     1       6.540   5.133  15.404  0.00  0.00    +0.000 A 
ENDROOT
BRANCH   1  13
ATOM      9  C   UNL     1       3.409   3.213  18.371  0.00  0.00    +0.000 A 
ATOM     10  C   UNL     1       2.890   4.403  18.888  0.00  0.00    +0.000 A 
ATOM     11  C   UNL     1       3.205   5.632  18.309  0.00  0.00    +0.000 A 
ATOM     12  C   UNL     1       4.037   5.679  17.195  0.00  0.00    +0.000 A 
ATOM     13  C   UNL     1       4.555   4.492  16.657  0.00  0.00    +0.000 A 
ATOM     14  C   UNL     1       4.255   3.261  17.263  0.00  0.00    +0.000 A 
BRANCH   9  16
ATOM     15  C   UNL     1       1.678   2.085  19.558  0.00  0.00    +0.000 C 
ATOM     16  O   UNL     1       2.995   2.084  19.022  0.00  0.00    +0.000 OA
ENDBRANCH   9  16
ENDBRANCH   1  13
BRANCH   3  17
ATOM     17  S   UNL     1       4.711   3.152  11.801  0.00  0.00    +0.000 S 
ATOM     18  C   UNL     1       5.796   1.732  11.529  0.00  0.00    +0.000 C 
ENDBRANCH   3  17
BRANCH   8  19
ATOM     19  C   UNL     1       7.138   5.739  16.544  0.00  0.00    +0.000 C 
ATOM     20  N   UNL     1       7.640   6.215  17.474  0.00  0.00    +0.000 NA
ENDBRANCH   8  19
TORSDOF 4
ENDMDL
MODEL 9
REMARK VINA RESULT:      -5.5      4.007      5.620
REMARK  Name = 
REMARK  7 active torsions:
REMARK  status: ('A' for Active; 'I' for Inactive)
REMARK    1  A    between atoms: C_1  and  O_2
REMARK    2  A    between atoms: O_2  and  C_3
REMARK    3  A    between atoms: C_7  and  C_8
REMARK    4  A    between atoms: C_10  and  S_11
REMARK    5  A    between atoms: S_11  and  C_12
REMARK    6  A    between atoms: N_13  and  C_14
REMARK    7  A    between atoms: C_17  and  C_18
REMARK                            x       y       z     vdW  Elec       q    Type
REMARK                         _______ _______ _______ _____ _____    ______ ____
ROOT
ATOM      1  C   UNL     1       3.044   6.357  18.517  0.00  0.00    +0.000 A 
ATOM      2  N   UNL     1       4.084   6.840  17.764  0.00  0.00    +0.000 NA
ATOM      3  C   UNL     1       4.828   5.989  17.132  0.00  0.00    +0.000 A 
ATOM      4  N   UNL     1       4.636   4.620  17.187  0.00  0.00    +0.000 N 
ATOM      5  C   UNL     1       5.438   3.612  16.500  0.00  0.00    +0.000 C 
ATOM      6  C   UNL     1       3.599   4.095  17.946  0.00  0.00    +0.000 A 
ATOM      7  O   UNL     1       3.382   2.888  18.043  0.00  0.00    +0.000 OA
ATOM      8  C   UNL     1       2.741   5.059  18.655  0.00  0.00    +0.000 A 
ENDROOT
BRANCH   1  13
ATOM      9  C   UNL     1       0.988   9.473  19.122  0.00  0.00    +0.000 A 
ATOM     10  C   UNL     1       0.804   9.389  20.505  0.00  0.00    +0.000 A 
ATOM     11  C   UNL     1       1.298   8.303  21.227  0.00  0.00    +0.000 A 
ATOM     12  C   UNL     1       1.995   7.294  20.570  0.00  0.00    +0.000 A 
ATOM     13  C   UNL     1       2.198   7.371  19.185  0.00  0.00    +0.000 A 
ATOM     14  C   UNL     1       1.673   8.454  18.460  0.00  0.00    +0.000 A 
BRANCH   9  16
ATOM     15  C   UNL     1      -0.920  10.615  18.267  0.00  0.00    +0.000 C 
ATOM     16  O   UNL     1       0.473  10.604  18.549  0.00  0.00    +0.000 OA
ENDBRANCH   9  16
ENDBRANCH   1  13
BRANCH   3  17
ATOM     17  S   UNL     1       6.154   6.600  16.158  0.00  0.00    +0.000 S 
ATOM     18  C   UNL     1       7.377   7.078  17.399  0.00  0.00    +0.000 C 
ENDBRANCH   3  17
BRANCH   8  19
ATOM     19  C   UNL     1       1.650   4.563  19.421  0.00  0.00    +0.000 C 
ATOM     20  N   UNL     1       0.757   4.143  20.029  0.00  0.00    +0.000 NA
ENDBRANCH   8  19
TORSDOF 4
ENDMDL
