MODEL 1
REMARK VINA RESULT:      -7.9      0.000      0.000
REMARK  Name = 
REMARK  8 active torsions:
REMARK  status: ('A' for Active; 'I' for Inactive)
REMARK    1  A    between atoms: C_1  and  O_2
REMARK    2  A    between atoms: O_2  and  C_3
REMARK    3  A    between atoms: C_8  and  N_9
REMARK    4  A    between atoms: N_9  and  S_10
REMARK    5  A    between atoms: S_10  and  C_13
REMARK    6  A    between atoms: C_15  and  N_16
REMARK    7  A    between atoms: C_17  and  C_19
REMARK    8  A    between atoms: C_28  and  C_29
REMARK                            x       y       z     vdW  Elec       q    Type
REMARK                         _______ _______ _______ _____ _____    ______ ____
ROOT
ATOM      1  C   UNL     1       2.158   5.185  18.902  0.00  0.00    +0.000 A 
ATOM      2  C   UNL     1       2.156   6.513  18.472  0.00  0.00    +0.000 A 
ATOM      3  C   UNL     1       1.902   7.540  19.367  0.00  0.00    +0.000 A 
ATOM      4  C   UNL     1       1.544   7.247  20.678  0.00  0.00    +0.000 A 
ATOM      5  C   UNL     1       1.457   5.917  21.095  0.00  0.00    +0.000 A 
ATOM      6  C   UNL     1       1.784   4.863  20.224  0.00  0.00    +0.000 A 
ATOM      7  C   UNL     1       1.776   3.463  20.771  0.00  0.00    +0.000 C 
ENDROOT
BRANCH   3   8
ATOM      8  N   UNL     1       2.096   8.854  18.919  0.00  0.00    +0.000 N 
ATOM      9  C   UNL     1       1.100   9.803  19.022  0.00  0.00    +0.000 C 
ATOM     10  O   UNL     1      -0.054   9.635  19.391  0.00  0.00    +0.000 OA
ATOM     11  H   UNL     1       3.040   9.233  18.914  0.00  0.00    +0.000 HD
BRANCH   9  12
ATOM     12  C   UNL     1       1.575  11.216  18.715  0.00  0.00    +0.000 C 
ATOM     13  N   UNL     1       2.493  11.383  17.809  0.00  0.00    +0.000 NA
ATOM     14  N   UNL     1       2.858  12.663  17.518  0.00  0.00    +0.000 N 
ATOM     15  C   UNL     1       2.529  13.788  18.231  0.00  0.00    +0.000 C 
ATOM     16  O   UNL     1       2.932  14.899  17.895  0.00  0.00    +0.000 OA
ATOM     17  C   UNL     1       1.742  13.569  19.493  0.00  0.00    +0.000 C 
ATOM     18  C   UNL     1       0.874  12.335  19.427  0.00  0.00    +0.000 C 
ATOM     19  H   UNL     1       3.453  12.799  16.706  0.00  0.00    +0.000 HD
ENDBRANCH   9  12
ENDBRANCH   3   8
BRANCH   1  20
ATOM     20  S   UNL     1       2.816   3.958  17.777  0.00  0.00    +0.000 S 
ATOM     21  O   UNL     1       1.738   3.521  16.923  0.00  0.00    +0.000 OA
ATOM     22  O   UNL     1       3.577   3.020  18.578  0.00  0.00    +0.000 OA
BRANCH  20  23
ATOM     23  N   UNL     1       3.989   4.808  16.896  0.00  0.00    +0.000 N 
ATOM     24  H   UNL     1       3.610   5.741  16.727  0.00  0.00    +0.000 HD
BRANCH  23  30
ATOM     25  C   UNL     1       6.428   4.303  16.687  0.00  0.00    +0.000 A 
ATOM     26  C   UNL     1       7.721   4.448  17.207  0.00  0.00    +0.000 A 
ATOM     27  C   UNL     1       7.934   5.148  18.396  0.00  0.00    +0.000 A 
ATOM     28  C   UNL     1       6.853   5.666  19.103  0.00  0.00    +0.000 A 
ATOM     29  C   UNL     1       5.557   5.495  18.619  0.00  0.00    +0.000 A 
ATOM     30  C   UNL     1       5.338   4.839  17.403  0.00  0.00    +0.000 A 
BRANCH  25  32
ATOM     31  C   UNL     1       6.387   4.478  14.322  0.00  0.00    +0.000 C 
ATOM     32  O   UNL     1       6.177   3.685  15.489  0.00  0.00    +0.000 OA
ENDBRANCH  25  32
ENDBRANCH  23  30
ENDBRANCH  20  23
ENDBRANCH   1  20
TORSDOF 6
ENDMDL
MODEL 2
REMARK VINA RESULT:      -7.9      0.998      1.003
REMARK  Name = 
REMARK  8 active torsions:
REMARK  status: ('A' for Active; 'I' for Inactive)
REMARK    1  A    between atoms: C_1  and  O_2
REMARK    2  A    between atoms: O_2  and  C_3
REMARK    3  A    between atoms: C_8  and  N_9
REMARK    4  A    between atoms: N_9  and  S_10
REMARK    5  A    between atoms: S_10  and  C_13
REMARK    6  A    between atoms: C_15  and  N_16
REMARK    7  A    between atoms: C_17  and  C_19
REMARK    8  A    between atoms: C_28  and  C_29
REMARK                            x       y       z     vdW  Elec       q    Type
REMARK                         _______ _______ _______ _____ _____    ______ ____
ROOT
ATOM      1  C   UNL     1       2.518   4.470  18.793  0.00  0.00    +0.000 A 
ATOM      2  C   UNL     1       2.348   5.792  18.379  0.00  0.00    +0.000 A 
ATOM      3  C   UNL     1       2.126   6.796  19.309  0.00  0.00    +0.000 A 
ATOM      4  C   UNL     1       1.966   6.477  20.652  0.00  0.00    +0.000 A 
ATOM      5  C   UNL     1       2.047   5.145  21.064  0.00  0.00    +0.000 A 
ATOM      6  C   UNL     1       2.346   4.120  20.149  0.00  0.00    +0.000 A 
ATOM      7  C   UNL     1       2.527   2.726  20.680  0.00  0.00    +0.000 C 
ENDROOT
BRANCH   3   8
ATOM      8  N   UNL     1       2.149   8.120  18.851  0.00  0.00    +0.000 N 
ATOM      9  C   UNL     1       1.301   9.076  19.373  0.00  0.00    +0.000 C 
ATOM     10  O   UNL     1       0.395   8.909  20.176  0.00  0.00    +0.000 OA
ATOM     11  H   UNL     1       3.017   8.490  18.471  0.00  0.00    +0.000 HD
BRANCH   9  12
ATOM     12  C   UNL     1       1.641  10.493  18.932  0.00  0.00    +0.000 C 
ATOM     13  N   UNL     1       2.297  10.661  17.821  0.00  0.00    +0.000 NA
ATOM     14  N   UNL     1       2.537  11.943  17.426  0.00  0.00    +0.000 N 
ATOM     15  C   UNL     1       2.364  13.075  18.179  0.00  0.00    +0.000 C 
ATOM     16  O   UNL     1       2.635  14.188  17.734  0.00  0.00    +0.000 OA
ATOM     17  C   UNL     1       1.927  12.868  19.602  0.00  0.00    +0.000 C 
ATOM     18  C   UNL     1       1.108  11.611  19.778  0.00  0.00    +0.000 C 
ATOM     19  H   UNL     1       2.905  12.074  16.488  0.00  0.00    +0.000 HD
ENDBRANCH   9  12
ENDBRANCH   3   8
BRANCH   1  20
ATOM     20  S   UNL     1       3.127   3.301  17.582  0.00  0.00    +0.000 S 
ATOM     21  O   UNL     1       3.049   3.930  16.286  0.00  0.00    +0.000 OA
ATOM     22  O   UNL     1       2.472   2.037  17.853  0.00  0.00    +0.000 OA
BRANCH  20  23
ATOM     23  N   UNL     1       4.739   3.047  18.044  0.00  0.00    +0.000 N 
ATOM     24  H   UNL     1       5.039   2.180  17.597  0.00  0.00    +0.000 HD
BRANCH  23  30
ATOM     25  C   UNL     1       6.316   4.371  16.628  0.00  0.00    +0.000 A 
ATOM     26  C   UNL     1       7.155   5.488  16.507  0.00  0.00    +0.000 A 
ATOM     27  C   UNL     1       7.328   6.365  17.578  0.00  0.00    +0.000 A 
ATOM     28  C   UNL     1       6.707   6.109  18.797  0.00  0.00    +0.000 A 
ATOM     29  C   UNL     1       5.902   4.980  18.945  0.00  0.00    +0.000 A 
ATOM     30  C   UNL     1       5.681   4.122  17.862  0.00  0.00    +0.000 A 
BRANCH  25  32
ATOM     31  C   UNL     1       6.143   4.092  14.278  0.00  0.00    +0.000 C 
ATOM     32  O   UNL     1       6.060   3.521  15.583  0.00  0.00    +0.000 OA
ENDBRANCH  25  32
ENDBRANCH  23  30
ENDBRANCH  20  23
ENDBRANCH   1  20
TORSDOF 6
ENDMDL
MODEL 3
REMARK VINA RESULT:      -7.8      3.114      7.615
REMARK  Name = 
REMARK  8 active torsions:
REMARK  status: ('A' for Active; 'I' for Inactive)
REMARK    1  A    between atoms: C_1  and  O_2
REMARK    2  A    between atoms: O_2  and  C_3
REMARK    3  A    between atoms: C_8  and  N_9
REMARK    4  A    between atoms: N_9  and  S_10
REMARK    5  A    between atoms: S_10  and  C_13
REMARK    6  A    between atoms: C_15  and  N_16
REMARK    7  A    between atoms: C_17  and  C_19
REMARK    8  A    between atoms: C_28  and  C_29
REMARK                            x       y       z     vdW  Elec       q    Type
REMARK                         _______ _______ _______ _____ _____    ______ ____
ROOT
ATOM      1  C   UNL     1       2.781   3.923  19.586  0.00  0.00    +0.000 A 
ATOM      2  C   UNL     1       3.594   4.313  18.521  0.00  0.00    +0.000 A 
ATOM      3  C   UNL     1       3.949   3.402  17.539  0.00  0.00    +0.000 A 
ATOM      4  C   UNL     1       3.584   2.066  17.665  0.00  0.00    +0.000 A 
ATOM      5  C   UNL     1       2.845   1.649  18.774  0.00  0.00    +0.000 A 
ATOM      6  C   UNL     1       2.411   2.570  19.743  0.00  0.00    +0.000 A 
ATOM      7  C   UNL     1       1.526   2.071  20.850  0.00  0.00    +0.000 C 
ENDROOT
BRANCH   3   8
ATOM      8  N   UNL     1       4.608   3.895  16.404  0.00  0.00    +0.000 N 
ATOM      9  C   UNL     1       5.954   4.198  16.430  0.00  0.00    +0.000 C 
ATOM     10  O   UNL     1       6.701   4.189  17.398  0.00  0.00    +0.000 OA
ATOM     11  H   UNL     1       4.250   3.645  15.486  0.00  0.00    +0.000 HD
BRANCH   9  12
ATOM     12  C   UNL     1       6.538   4.480  15.053  0.00  0.00    +0.000 C 
ATOM     13  N   UNL     1       7.457   5.393  14.940  0.00  0.00    +0.000 NA
ATOM     14  N   UNL     1       7.999   5.584  13.704  0.00  0.00    +0.000 N 
ATOM     15  C   UNL     1       7.528   5.079  12.520  0.00  0.00    +0.000 C 
ATOM     16  O   UNL     1       8.080   5.332  11.451  0.00  0.00    +0.000 OA
ATOM     17  C   UNL     1       6.249   4.293  12.593  0.00  0.00    +0.000 C 
ATOM     18  C   UNL     1       6.067   3.609  13.927  0.00  0.00    +0.000 C 
ATOM     19  H   UNL     1       8.822   6.178  13.649  0.00  0.00    +0.000 HD
ENDBRANCH   9  12
ENDBRANCH   3   8
BRANCH   1  20
ATOM     20  S   UNL     1       2.099   5.218  20.617  0.00  0.00    +0.000 S 
ATOM     21  O   UNL     1       2.429   4.908  21.987  0.00  0.00    +0.000 OA
ATOM     22  O   UNL     1       0.728   5.414  20.192  0.00  0.00    +0.000 OA
BRANCH  20  23
ATOM     23  N   UNL     1       2.906   6.615  20.093  0.00  0.00    +0.000 N 
ATOM     24  H   UNL     1       3.641   6.307  19.455  0.00  0.00    +0.000 HD
BRANCH  23  30
ATOM     25  C   UNL     1       1.418   8.602  20.381  0.00  0.00    +0.000 A 
ATOM     26  C   UNL     1       0.748   9.682  19.789  0.00  0.00    +0.000 A 
ATOM     27  C   UNL     1       0.809   9.885  18.410  0.00  0.00    +0.000 A 
ATOM     28  C   UNL     1       1.497   8.984  17.602  0.00  0.00    +0.000 A 
ATOM     29  C   UNL     1       2.134   7.883  18.172  0.00  0.00    +0.000 A 
ATOM     30  C   UNL     1       2.122   7.699  19.558  0.00  0.00    +0.000 A 
BRANCH  25  32
ATOM     31  C   UNL     1       0.570   9.222  22.508  0.00  0.00    +0.000 C 
ATOM     32  O   UNL     1       1.445   8.401  21.737  0.00  0.00    +0.000 OA
ENDBRANCH  25  32
ENDBRANCH  23  30
ENDBRANCH  20  23
ENDBRANCH   1  20
TORSDOF 6
ENDMDL
MODEL 4
REMARK VINA RESULT:      -7.8      4.636      6.522
REMARK  Name = 
REMARK  8 active torsions:
REMARK  status: ('A' for Active; 'I' for Inactive)
REMARK    1  A    between atoms: C_1  and  O_2
REMARK    2  A    between atoms: O_2  and  C_3
REMARK    3  A    between atoms: C_8  and  N_9
REMARK    4  A    between atoms: N_9  and  S_10
REMARK    5  A    between atoms: S_10  and  C_13
REMARK    6  A    between atoms: C_15  and  N_16
REMARK    7  A    between atoms: C_17  and  C_19
REMARK    8  A    between atoms: C_28  and  C_29
REMARK                            x       y       z     vdW  Elec       q    Type
REMARK                         _______ _______ _______ _____ _____    ______ ____
ROOT
ATOM      1  C   UNL     1       6.375   6.523  17.370  0.00  0.00    +0.000 A 
ATOM      2  C   UNL     1       6.805   7.847  17.280  0.00  0.00    +0.000 A 
ATOM      3  C   UNL     1       7.897   8.282  18.014  0.00  0.00    +0.000 A 
ATOM      4  C   UNL     1       8.507   7.428  18.925  0.00  0.00    +0.000 A 
ATOM      5  C   UNL     1       8.028   6.126  19.086  0.00  0.00    +0.000 A 
ATOM      6  C   UNL     1       6.969   5.641  18.298  0.00  0.00    +0.000 A 
ATOM      7  C   UNL     1       6.578   4.198  18.446  0.00  0.00    +0.000 C 
ENDROOT
BRANCH   3   8
ATOM      8  N   UNL     1       8.391   9.565  17.742  0.00  0.00    +0.000 N 
ATOM      9  C   UNL     1       9.005  10.321  18.720  0.00  0.00    +0.000 C 
ATOM     10  O   UNL     1       9.110  10.057  19.909  0.00  0.00    +0.000 OA
ATOM     11  H   UNL     1       8.688   9.783  16.794  0.00  0.00    +0.000 HD
BRANCH   9  12
ATOM     12  C   UNL     1       9.690  11.569  18.181  0.00  0.00    +0.000 C 
ATOM     13  N   UNL     1       8.960  12.492  17.627  0.00  0.00    +0.000 NA
ATOM     14  N   UNL     1       9.596  13.620  17.204  0.00  0.00    +0.000 N 
ATOM     15  C   UNL     1      10.950  13.801  17.091  0.00  0.00    +0.000 C 
ATOM     16  O   UNL     1      11.423  14.856  16.673  0.00  0.00    +0.000 OA
ATOM     17  C   UNL     1      11.809  12.608  17.404  0.00  0.00    +0.000 C 
ATOM     18  C   UNL     1      11.168  11.683  18.412  0.00  0.00    +0.000 C 
ATOM     19  H   UNL     1       9.009  14.401  16.921  0.00  0.00    +0.000 HD
ENDBRANCH   9  12
ENDBRANCH   3   8
BRANCH   1  20
ATOM     20  S   UNL     1       5.186   5.959  16.155  0.00  0.00    +0.000 S 
ATOM     21  O   UNL     1       5.537   4.609  15.791  0.00  0.00    +0.000 OA
ATOM     22  O   UNL     1       5.072   7.009  15.163  0.00  0.00    +0.000 OA
BRANCH  20  23
ATOM     23  N   UNL     1       3.709   6.005  16.988  0.00  0.00    +0.000 N 
ATOM     24  H   UNL     1       3.001   6.293  16.312  0.00  0.00    +0.000 HD
BRANCH  23  30
ATOM     25  C   UNL     1       3.097   4.894  19.141  0.00  0.00    +0.000 A 
ATOM     26  C   UNL     1       2.632   3.745  19.796  0.00  0.00    +0.000 A 
ATOM     27  C   UNL     1       2.350   2.582  19.077  0.00  0.00    +0.000 A 
ATOM     28  C   UNL     1       2.577   2.539  17.705  0.00  0.00    +0.000 A 
ATOM     29  C   UNL     1       3.077   3.661  17.045  0.00  0.00    +0.000 A 
ATOM     30  C   UNL     1       3.315   4.846  17.748  0.00  0.00    +0.000 A 
BRANCH  25  32
ATOM     31  C   UNL     1       2.160   6.839  20.124  0.00  0.00    +0.000 C 
ATOM     32  O   UNL     1       3.321   6.079  19.794  0.00  0.00    +0.000 OA
ENDBRANCH  25  32
ENDBRANCH  23  30
ENDBRANCH  20  23
ENDBRANCH   1  20
TORSDOF 6
ENDMDL
MODEL 5
REMARK VINA RESULT:      -7.7      6.815     10.941
REMARK  Name = 
REMARK  8 active torsions:
REMARK  status: ('A' for Active; 'I' for Inactive)
REMARK    1  A    between atoms: C_1  and  O_2
REMARK    2  A    between atoms: O_2  and  C_3
REMARK    3  A    between atoms: C_8  and  N_9
REMARK    4  A    between atoms: N_9  and  S_10
REMARK    5  A    between atoms: S_10  and  C_13
REMARK    6  A    between atoms: C_15  and  N_16
REMARK    7  A    between atoms: C_17  and  C_19
REMARK    8  A    between atoms: C_28  and  C_29
REMARK                            x       y       z     vdW  Elec       q    Type
REMARK                         _______ _______ _______ _____ _____    ______ ____
ROOT
ATOM      1  C   UNL     1      10.714  12.688  19.283  0.00  0.00    +0.000 A 
ATOM      2  C   UNL     1      10.298  11.387  18.995  0.00  0.00    +0.000 A 
ATOM      3  C   UNL     1       9.553  10.668  19.917  0.00  0.00    +0.000 A 
ATOM      4  C   UNL     1       9.305  11.200  21.177  0.00  0.00    +0.000 A 
ATOM      5  C   UNL     1       9.793  12.467  21.505  0.00  0.00    +0.000 A 
ATOM      6  C   UNL     1      10.486  13.244  20.560  0.00  0.00    +0.000 A 
ATOM      7  C   UNL     1      10.886  14.640  20.945  0.00  0.00    +0.000 C 
ENDROOT
BRANCH   3   8
ATOM      8  N   UNL     1       9.010   9.446  19.499  0.00  0.00    +0.000 N 
ATOM      9  C   UNL     1       8.268   9.347  18.340  0.00  0.00    +0.000 C 
ATOM     10  O   UNL     1       7.904  10.256  17.609  0.00  0.00    +0.000 OA
ATOM     11  H   UNL     1       9.478   8.585  19.774  0.00  0.00    +0.000 HD
BRANCH   9  12
ATOM     12  C   UNL     1       7.978   7.910  17.927  0.00  0.00    +0.000 C 
ATOM     13  N   UNL     1       7.577   7.680  16.711  0.00  0.00    +0.000 NA
ATOM     14  N   UNL     1       7.378   6.379  16.356  0.00  0.00    +0.000 N 
ATOM     15  C   UNL     1       7.337   5.300  17.200  0.00  0.00    +0.000 C 
ATOM     16  O   UNL     1       7.126   4.165  16.778  0.00  0.00    +0.000 OA
ATOM     17  C   UNL     1       7.458   5.597  18.668  0.00  0.00    +0.000 C 
ATOM     18  C   UNL     1       8.267   6.843  18.940  0.00  0.00    +0.000 C 
ATOM     19  H   UNL     1       7.222   6.190  15.370  0.00  0.00    +0.000 HD
ENDBRANCH   9  12
ENDBRANCH   3   8
BRANCH   1  20
ATOM     20  S   UNL     1      11.372  13.659  17.931  0.00  0.00    +0.000 S 
ATOM     21  O   UNL     1      12.120  12.770  17.075  0.00  0.00    +0.000 OA
ATOM     22  O   UNL     1      11.978  14.837  18.517  0.00  0.00    +0.000 OA
BRANCH  20  23
ATOM     23  N   UNL     1       9.987  14.244  17.145  0.00  0.00    +0.000 N 
ATOM     24  H   UNL     1       9.452  13.428  16.849  0.00  0.00    +0.000 HD
BRANCH  23  30
ATOM     25  C   UNL     1       9.417  16.610  17.711  0.00  0.00    +0.000 A 
ATOM     26  C   UNL     1       8.533  17.505  18.332  0.00  0.00    +0.000 A 
ATOM     27  C   UNL     1       7.412  17.035  19.017  0.00  0.00    +0.000 A 
ATOM     28  C   UNL     1       7.188  15.667  19.132  0.00  0.00    +0.000 A 
ATOM     29  C   UNL     1       8.079  14.763  18.555  0.00  0.00    +0.000 A 
ATOM     30  C   UNL     1       9.178  15.225  17.823  0.00  0.00    +0.000 A 
BRANCH  25  32
ATOM     31  C   UNL     1      11.193  18.163  17.469  0.00  0.00    +0.000 C 
ATOM     32  O   UNL     1      10.492  17.027  16.969  0.00  0.00    +0.000 OA
ENDBRANCH  25  32
ENDBRANCH  23  30
ENDBRANCH  20  23
ENDBRANCH   1  20
TORSDOF 6
ENDMDL
MODEL 6
REMARK VINA RESULT:      -7.7      2.671      3.151
REMARK  Name = 
REMARK  8 active torsions:
REMARK  status: ('A' for Active; 'I' for Inactive)
REMARK    1  A    between atoms: C_1  and  O_2
REMARK    2  A    between atoms: O_2  and  C_3
REMARK    3  A    between atoms: C_8  and  N_9
REMARK    4  A    between atoms: N_9  and  S_10
REMARK    5  A    between atoms: S_10  and  C_13
REMARK    6  A    between atoms: C_15  and  N_16
REMARK    7  A    between atoms: C_17  and  C_19
REMARK    8  A    between atoms: C_28  and  C_29
REMARK                            x       y       z     vdW  Elec       q    Type
REMARK                         _______ _______ _______ _____ _____    ______ ____
ROOT
ATOM      1  C   UNL     1       2.826   4.151  18.868  0.00  0.00    +0.000 A 
ATOM      2  C   UNL     1       2.195   5.272  19.408  0.00  0.00    +0.000 A 
ATOM      3  C   UNL     1       1.907   5.331  20.763  0.00  0.00    +0.000 A 
ATOM      4  C   UNL     1       2.150   4.228  21.574  0.00  0.00    +0.000 A 
ATOM      5  C   UNL     1       2.701   3.068  21.023  0.00  0.00    +0.000 A 
ATOM      6  C   UNL     1       3.071   3.015  19.668  0.00  0.00    +0.000 A 
ATOM      7  C   UNL     1       3.760   1.776  19.169  0.00  0.00    +0.000 C 
ENDROOT
BRANCH   3   8
ATOM      8  N   UNL     1       1.444   6.550  21.275  0.00  0.00    +0.000 N 
ATOM      9  C   UNL     1       1.596   7.729  20.573  0.00  0.00    +0.000 C 
ATOM     10  O   UNL     1       2.205   7.900  19.527  0.00  0.00    +0.000 OA
ATOM     11  H   UNL     1       0.655   6.541  21.917  0.00  0.00    +0.000 HD
BRANCH   9  12
ATOM     12  C   UNL     1       0.818   8.894  21.169  0.00  0.00    +0.000 C 
ATOM     13  N   UNL     1       1.042  10.091  20.715  0.00  0.00    +0.000 NA
ATOM     14  N   UNL     1       0.291  11.105  21.230  0.00  0.00    +0.000 N 
ATOM     15  C   UNL     1      -0.519  11.041  22.335  0.00  0.00    +0.000 C 
ATOM     16  O   UNL     1      -1.139  12.025  22.732  0.00  0.00    +0.000 OA
ATOM     17  C   UNL     1      -0.521   9.738  23.084  0.00  0.00    +0.000 C 
ATOM     18  C   UNL     1      -0.230   8.557  22.189  0.00  0.00    +0.000 C 
ATOM     19  H   UNL     1       0.353  12.007  20.765  0.00  0.00    +0.000 HD
ENDBRANCH   9  12
ENDBRANCH   3   8
BRANCH   1  20
ATOM     20  S   UNL     1       3.459   4.289  17.199  0.00  0.00    +0.000 S 
ATOM     21  O   UNL     1       3.403   5.680  16.821  0.00  0.00    +0.000 OA
ATOM     22  O   UNL     1       2.803   3.262  16.415  0.00  0.00    +0.000 OA
BRANCH  20  23
ATOM     23  N   UNL     1       5.064   3.755  17.333  0.00  0.00    +0.000 N 
ATOM     24  H   UNL     1       5.277   3.250  16.472  0.00  0.00    +0.000 HD
BRANCH  23  30
ATOM     25  C   UNL     1       6.622   5.616  16.741  0.00  0.00    +0.000 A 
ATOM     26  C   UNL     1       7.544   6.579  17.175  0.00  0.00    +0.000 A 
ATOM     27  C   UNL     1       7.890   6.673  18.523  0.00  0.00    +0.000 A 
ATOM     28  C   UNL     1       7.358   5.776  19.444  0.00  0.00    +0.000 A 
ATOM     29  C   UNL     1       6.471   4.787  19.021  0.00  0.00    +0.000 A 
ATOM     30  C   UNL     1       6.079   4.716  17.681  0.00  0.00    +0.000 A 
BRANCH  25  32
ATOM     31  C   UNL     1       7.087   4.876  14.536  0.00  0.00    +0.000 C 
ATOM     32  O   UNL     1       6.199   5.530  15.439  0.00  0.00    +0.000 OA
ENDBRANCH  25  32
ENDBRANCH  23  30
ENDBRANCH  20  23
ENDBRANCH   1  20
TORSDOF 6
ENDMDL
MODEL 7
REMARK VINA RESULT:      -7.6      3.619      9.867
REMARK  Name = 
REMARK  8 active torsions:
REMARK  status: ('A' for Active; 'I' for Inactive)
REMARK    1  A    between atoms: C_1  and  O_2
REMARK    2  A    between atoms: O_2  and  C_3
REMARK    3  A    between atoms: C_8  and  N_9
REMARK    4  A    between atoms: N_9  and  S_10
REMARK    5  A    between atoms: S_10  and  C_13
REMARK    6  A    between atoms: C_15  and  N_16
REMARK    7  A    between atoms: C_17  and  C_19
REMARK    8  A    between atoms: C_28  and  C_29
REMARK                            x       y       z     vdW  Elec       q    Type
REMARK                         _______ _______ _______ _____ _____    ______ ____
ROOT
ATOM      1  C   UNL     1       0.895  10.031  20.209  0.00  0.00    +0.000 A 
ATOM      2  C   UNL     1       1.258   8.709  20.472  0.00  0.00    +0.000 A 
ATOM      3  C   UNL     1       1.935   7.964  19.519  0.00  0.00    +0.000 A 
ATOM      4  C   UNL     1       2.163   8.495  18.255  0.00  0.00    +0.000 A 
ATOM      5  C   UNL     1       1.724   9.786  17.953  0.00  0.00    +0.000 A 
ATOM      6  C   UNL     1       1.103  10.586  18.928  0.00  0.00    +0.000 A 
ATOM      7  C   UNL     1       0.757  12.004  18.568  0.00  0.00    +0.000 C 
ENDROOT
BRANCH   3   8
ATOM      8  N   UNL     1       2.433   6.713  19.908  0.00  0.00    +0.000 N 
ATOM      9  C   UNL     1       2.420   5.635  19.046  0.00  0.00    +0.000 C 
ATOM     10  O   UNL     1       1.915   5.575  17.935  0.00  0.00    +0.000 OA
ATOM     11  H   UNL     1       3.162   6.677  20.616  0.00  0.00    +0.000 HD
BRANCH   9  12
ATOM     12  C   UNL     1       3.221   4.444  19.554  0.00  0.00    +0.000 C 
ATOM     13  N   UNL     1       4.314   4.116  18.931  0.00  0.00    +0.000 NA
ATOM     14  N   UNL     1       5.037   3.080  19.443  0.00  0.00    +0.000 N 
ATOM     15  C   UNL     1       4.628   2.198  20.410  0.00  0.00    +0.000 C 
ATOM     16  O   UNL     1       5.352   1.278  20.786  0.00  0.00    +0.000 OA
ATOM     17  C   UNL     1       3.216   2.357  20.901  0.00  0.00    +0.000 C 
ATOM     18  C   UNL     1       2.729   3.783  20.808  0.00  0.00    +0.000 C 
ATOM     19  H   UNL     1       5.964   2.929  19.054  0.00  0.00    +0.000 HD
ENDBRANCH   9  12
ENDBRANCH   3   8
BRANCH   1  20
ATOM     20  S   UNL     1       0.333  11.020  21.591  0.00  0.00    +0.000 S 
ATOM     21  O   UNL     1       1.088  12.249  21.587  0.00  0.00    +0.000 OA
ATOM     22  O   UNL     1       0.308  10.148  22.748  0.00  0.00    +0.000 OA
BRANCH  20  23
ATOM     23  N   UNL     1      -1.303  11.304  21.243  0.00  0.00    +0.000 N 
ATOM     24  H   UNL     1      -1.775  10.400  21.297  0.00  0.00    +0.000 HD
BRANCH  23  30
ATOM     25  C   UNL     1      -2.110  13.656  21.492  0.00  0.00    +0.000 A 
ATOM     26  C   UNL     1      -2.867  14.582  22.222  0.00  0.00    +0.000 A 
ATOM     27  C   UNL     1      -3.527  14.197  23.390  0.00  0.00    +0.000 A 
ATOM     28  C   UNL     1      -3.397  12.896  23.867  0.00  0.00    +0.000 A 
ATOM     29  C   UNL     1      -2.614  11.974  23.173  0.00  0.00    +0.000 A 
ATOM     30  C   UNL     1      -1.990  12.336  21.976  0.00  0.00    +0.000 A 
BRANCH  25  32
ATOM     31  C   UNL     1      -1.086  15.326  20.154  0.00  0.00    +0.000 C 
ATOM     32  O   UNL     1      -1.502  13.970  20.303  0.00  0.00    +0.000 OA
ENDBRANCH  25  32
ENDBRANCH  23  30
ENDBRANCH  20  23
ENDBRANCH   1  20
TORSDOF 6
ENDMDL
MODEL 8
REMARK VINA RESULT:      -7.5      3.003      3.739
REMARK  Name = 
REMARK  8 active torsions:
REMARK  status: ('A' for Active; 'I' for Inactive)
REMARK    1  A    between atoms: C_1  and  O_2
REMARK    2  A    between atoms: O_2  and  C_3
REMARK    3  A    between atoms: C_8  and  N_9
REMARK    4  A    between atoms: N_9  and  S_10
REMARK    5  A    between atoms: S_10  and  C_13
REMARK    6  A    between atoms: C_15  and  N_16
REMARK    7  A    between atoms: C_17  and  C_19
REMARK    8  A    between atoms: C_28  and  C_29
REMARK                            x       y       z     vdW  Elec       q    Type
REMARK                         _______ _______ _______ _____ _____    ______ ____
ROOT
ATOM      1  C   UNL     1       3.414   4.554  19.383  0.00  0.00    +0.000 A 
ATOM      2  C   UNL     1       2.863   5.731  19.892  0.00  0.00    +0.000 A 
ATOM      3  C   UNL     1       1.673   5.700  20.602  0.00  0.00    +0.000 A 
ATOM      4  C   UNL     1       0.966   4.509  20.721  0.00  0.00    +0.000 A 
ATOM      5  C   UNL     1       1.467   3.342  20.139  0.00  0.00    +0.000 A 
ATOM      6  C   UNL     1       2.708   3.336  19.480  0.00  0.00    +0.000 A 
ATOM      7  C   UNL     1       3.237   2.023  18.975  0.00  0.00    +0.000 C 
ENDROOT
BRANCH   3   8
ATOM      8  N   UNL     1       1.269   6.879  21.242  0.00  0.00    +0.000 N 
ATOM      9  C   UNL     1       1.328   8.101  20.602  0.00  0.00    +0.000 C 
ATOM     10  O   UNL     1       1.805   8.345  19.503  0.00  0.00    +0.000 OA
ATOM     11  H   UNL     1       0.564   6.821  21.972  0.00  0.00    +0.000 HD
BRANCH   9  12
ATOM     12  C   UNL     1       0.622   9.217  21.360  0.00  0.00    +0.000 C 
ATOM     13  N   UNL     1       0.263   9.004  22.592  0.00  0.00    +0.000 NA
ATOM     14  N   UNL     1      -0.317  10.040  23.261  0.00  0.00    +0.000 N 
ATOM     15  C   UNL     1      -0.772  11.212  22.714  0.00  0.00    +0.000 C 
ATOM     16  O   UNL     1      -1.305  12.077  23.405  0.00  0.00    +0.000 OA
ATOM     17  C   UNL     1      -0.676  11.330  21.218  0.00  0.00    +0.000 C 
ATOM     18  C   UNL     1       0.469  10.528  20.647  0.00  0.00    +0.000 C 
ATOM     19  H   UNL     1      -0.449   9.926  24.262  0.00  0.00    +0.000 HD
ENDBRANCH   9  12
ENDBRANCH   3   8
BRANCH   1  20
ATOM     20  S   UNL     1       5.098   4.628  18.779  0.00  0.00    +0.000 S 
ATOM     21  O   UNL     1       5.473   3.300  18.359  0.00  0.00    +0.000 OA
ATOM     22  O   UNL     1       5.866   5.357  19.768  0.00  0.00    +0.000 OA
BRANCH  20  23
ATOM     23  N   UNL     1       5.004   5.686  17.456  0.00  0.00    +0.000 N 
ATOM     24  H   UNL     1       5.290   6.605  17.795  0.00  0.00    +0.000 HD
BRANCH  23  30
ATOM     25  C   UNL     1       7.051   5.493  16.036  0.00  0.00    +0.000 A 
ATOM     26  C   UNL     1       7.637   5.026  14.851  0.00  0.00    +0.000 A 
ATOM     27  C   UNL     1       6.871   4.355  13.897  0.00  0.00    +0.000 A 
ATOM     28  C   UNL     1       5.503   4.189  14.092  0.00  0.00    +0.000 A 
ATOM     29  C   UNL     1       4.898   4.684  15.247  0.00  0.00    +0.000 A 
ATOM     30  C   UNL     1       5.666   5.312  16.232  0.00  0.00    +0.000 A 
BRANCH  25  32
ATOM     31  C   UNL     1       7.548   7.491  17.215  0.00  0.00    +0.000 C 
ATOM     32  O   UNL     1       7.775   6.095  17.033  0.00  0.00    +0.000 OA
ENDBRANCH  25  32
ENDBRANCH  23  30
ENDBRANCH  20  23
ENDBRANCH   1  20
TORSDOF 6
ENDMDL
MODEL 9
REMARK VINA RESULT:      -7.5      3.641      4.970
REMARK  Name = 
REMARK  8 active torsions:
REMARK  status: ('A' for Active; 'I' for Inactive)
REMARK    1  A    between atoms: C_1  and  O_2
REMARK    2  A    between atoms: O_2  and  C_3
REMARK    3  A    between atoms: C_8  and  N_9
REMARK    4  A    between atoms: N_9  and  S_10
REMARK    5  A    between atoms: S_10  and  C_13
REMARK    6  A    between atoms: C_15  and  N_16
REMARK    7  A    between atoms: C_17  and  C_19
REMARK    8  A    between atoms: C_28  and  C_29
REMARK                            x       y       z     vdW  Elec       q    Type
REMARK                         _______ _______ _______ _____ _____    ______ ____
ROOT
ATOM      1  C   UNL     1       1.990   7.942  19.380  0.00  0.00    +0.000 A 
ATOM      2  C   UNL     1       1.067   8.581  20.209  0.00  0.00    +0.000 A 
ATOM      3  C   UNL     1       0.499   9.787  19.830  0.00  0.00    +0.000 A 
ATOM      4  C   UNL     1       0.925  10.421  18.668  0.00  0.00    +0.000 A 
ATOM      5  C   UNL     1       1.914   9.831  17.877  0.00  0.00    +0.000 A 
ATOM      6  C   UNL     1       2.448   8.572  18.204  0.00  0.00    +0.000 A 
ATOM      7  C   UNL     1       3.426   7.947  17.249  0.00  0.00    +0.000 C 
ENDROOT
BRANCH   3   8
ATOM      8  N   UNL     1      -0.552  10.283  20.612  0.00  0.00    +0.000 N 
ATOM      9  C   UNL     1      -0.375  11.363  21.453  0.00  0.00    +0.000 C 
ATOM     10  O   UNL     1       0.670  11.944  21.709  0.00  0.00    +0.000 OA
ATOM     11  H   UNL     1      -1.506  10.159  20.283  0.00  0.00    +0.000 HD
BRANCH   9  12
ATOM     12  C   UNL     1      -1.677  11.906  22.025  0.00  0.00    +0.000 C 
ATOM     13  N   UNL     1      -2.080  11.470  23.182  0.00  0.00    +0.000 NA
ATOM     14  N   UNL     1      -3.220  12.016  23.692  0.00  0.00    +0.000 N 
ATOM     15  C   UNL     1      -4.115  12.811  23.023  0.00  0.00    +0.000 C 
ATOM     16  O   UNL     1      -5.130  13.234  23.571  0.00  0.00    +0.000 OA
ATOM     17  C   UNL     1      -3.837  13.044  21.564  0.00  0.00    +0.000 C 
ATOM     18  C   UNL     1      -2.363  12.986  21.240  0.00  0.00    +0.000 C 
ATOM     19  H   UNL     1      -3.445  11.794  24.658  0.00  0.00    +0.000 HD
ENDBRANCH   9  12
ENDBRANCH   3   8
BRANCH   1  20
ATOM     20  S   UNL     1       2.417   6.249  19.776  0.00  0.00    +0.000 S 
ATOM     21  O   UNL     1       1.622   5.849  20.912  0.00  0.00    +0.000 OA
ATOM     22  O   UNL     1       3.864   6.177  19.799  0.00  0.00    +0.000 OA
BRANCH  20  23
ATOM     23  N   UNL     1       1.975   5.387  18.384  0.00  0.00    +0.000 N 
ATOM     24  H   UNL     1       2.270   5.950  17.585  0.00  0.00    +0.000 HD
BRANCH  23  30
ATOM     25  C   UNL     1       3.497   3.607  17.512  0.00  0.00    +0.000 A 
ATOM     26  C   UNL     1       3.879   2.258  17.524  0.00  0.00    +0.000 A 
ATOM     27  C   UNL     1       3.191   1.332  18.309  0.00  0.00    +0.000 A 
ATOM     28  C   UNL     1       2.084   1.733  19.051  0.00  0.00    +0.000 A 
ATOM     29  C   UNL     1       1.667   3.063  19.018  0.00  0.00    +0.000 A 
ATOM     30  C   UNL     1       2.380   4.008  18.274  0.00  0.00    +0.000 A 
BRANCH  25  32
ATOM     31  C   UNL     1       5.578   4.668  17.098  0.00  0.00    +0.000 C 
ATOM     32  O   UNL     1       4.185   4.565  16.812  0.00  0.00    +0.000 OA
ENDBRANCH  25  32
ENDBRANCH  23  30
ENDBRANCH  20  23
ENDBRANCH   1  20
TORSDOF 6
ENDMDL
