MODEL 1
REMARK VINA RESULT:      -7.6      0.000      0.000
REMARK  Name = 
REMARK  12 active torsions:
REMARK  status: ('A' for Active; 'I' for Inactive)
REMARK    1  A    between atoms: C_1  and  O_2
REMARK    2  A    between atoms: O_2  and  P_3
REMARK    3  A    between atoms: P_3  and  O_5
REMARK    4  A    between atoms: P_3  and  C_7
REMARK    5  A    between atoms: O_5  and  C_6
REMARK    6  A    between atoms: C_7  and  O_8
REMARK    7  A    between atoms: C_7  and  C_23
REMARK    8  A    between atoms: O_8  and  C_9
REMARK    9  A    between atoms: C_9  and  C_11
REMARK   10  A    between atoms: C_11  and  O_12
REMARK   11  A    between atoms: O_12  and  C_13
REMARK   12  A    between atoms: C_16  and  C_17
REMARK                            x       y       z     vdW  Elec       q    Type
REMARK                         _______ _______ _______ _____ _____    ______ ____
ROOT
ATOM      1  O   UNL     1       0.573   9.749  18.860  0.00  0.00    +0.000 OA
ENDROOT
BRANCH   1   2
ATOM      2  C   UNL     1       1.708   9.896  18.136  0.00  0.00    +0.000 C 
ATOM      3  O   UNL     1       2.272  10.969  17.963  0.00  0.00    +0.000 OA
BRANCH   2   4
ATOM      4  C   UNL     1       2.259   8.546  17.683  0.00  0.00    +0.000 C 
BRANCH   4   5
ATOM      5  O   UNL     1       2.948   7.858  18.713  0.00  0.00    +0.000 OA
BRANCH   5   6
ATOM      6  C   UNL     1       2.516   6.591  18.997  0.00  0.00    +0.000 A 
ATOM      7  C   UNL     1       2.485   5.729  17.899  0.00  0.00    +0.000 A 
ATOM      8  C   UNL     1       2.086   4.394  18.045  0.00  0.00    +0.000 A 
ATOM      9  C   UNL     1       1.730   3.885  19.297  0.00  0.00    +0.000 A 
ATOM     10  C   UNL     1       1.775   4.755  20.407  0.00  0.00    +0.000 A 
ATOM     11  C   UNL     1       2.164   6.095  20.255  0.00  0.00    +0.000 A 
BRANCH   9  12
ATOM     12  C   UNL     1       1.326   2.441  19.468  0.00  0.00    +0.000 C 
ATOM     13  F   UNL     1       2.259   1.561  19.013  0.00  0.00    +0.000 F 
ATOM     14  F   UNL     1       1.106   2.110  20.769  0.00  0.00    +0.000 F 
ATOM     15  F   UNL     1       0.175   2.137  18.805  0.00  0.00    +0.000 F 
ENDBRANCH   9  12
ENDBRANCH   5   6
ENDBRANCH   4   5
ENDBRANCH   2   4
ENDBRANCH   1   2
BRANCH   1  16
ATOM     16  C   UNL     1      -0.196  10.962  19.145  0.00  0.00    +0.000 C 
BRANCH  16  17
ATOM     17  C   UNL     1      -1.543  10.848  18.428  0.00  0.00    +0.000 A 
ATOM     18  C   UNL     1      -1.680   9.984  17.326  0.00  0.00    +0.000 A 
ATOM     19  C   UNL     1      -2.864   9.954  16.588  0.00  0.00    +0.000 A 
ATOM     20  C   UNL     1      -3.931  10.773  16.947  0.00  0.00    +0.000 A 
ATOM     21  C   UNL     1      -3.810  11.632  18.036  0.00  0.00    +0.000 A 
ATOM     22  C   UNL     1      -2.624  11.676  18.766  0.00  0.00    +0.000 A 
ENDBRANCH  16  17
BRANCH  16  23
ATOM     23  P   UNL     1      -0.234  11.157  20.964  0.00  0.00    +0.000 P 
ATOM     24  O   UNL     1       1.081  11.958  20.930  0.00  0.00    +0.000 OA
BRANCH  23  26
ATOM     25  C   UNL     1      -1.558  11.236  23.257  0.00  0.00    +0.000 C 
ATOM     26  O   UNL     1      -0.269  11.341  22.684  0.00  0.00    +0.000 OA
ENDBRANCH  23  26
BRANCH  23  27
ATOM     27  O   UNL     1       0.056   9.544  21.198  0.00  0.00    +0.000 OA
ATOM     28  C   UNL     1       1.146   9.148  22.019  0.00  0.00    +0.000 C 
ENDBRANCH  23  27
ENDBRANCH  16  23
ENDBRANCH   1  16
TORSDOF 10
ENDMDL
MODEL 2
REMARK VINA RESULT:      -7.3      4.717      6.726
REMARK  Name = 
REMARK  12 active torsions:
REMARK  status: ('A' for Active; 'I' for Inactive)
REMARK    1  A    between atoms: C_1  and  O_2
REMARK    2  A    between atoms: O_2  and  P_3
REMARK    3  A    between atoms: P_3  and  O_5
REMARK    4  A    between atoms: P_3  and  C_7
REMARK    5  A    between atoms: O_5  and  C_6
REMARK    6  A    between atoms: C_7  and  O_8
REMARK    7  A    between atoms: C_7  and  C_23
REMARK    8  A    between atoms: O_8  and  C_9
REMARK    9  A    between atoms: C_9  and  C_11
REMARK   10  A    between atoms: C_11  and  O_12
REMARK   11  A    between atoms: O_12  and  C_13
REMARK   12  A    between atoms: C_16  and  C_17
REMARK                            x       y       z     vdW  Elec       q    Type
REMARK                         _______ _______ _______ _____ _____    ______ ____
ROOT
ATOM      1  O   UNL     1       3.654   6.106  17.928  0.00  0.00    +0.000 OA
ENDROOT
BRANCH   1   2
ATOM      2  C   UNL     1       4.971   6.407  17.824  0.00  0.00    +0.000 C 
ATOM      3  O   UNL     1       5.396   7.432  17.306  0.00  0.00    +0.000 OA
BRANCH   2   4
ATOM      4  C   UNL     1       5.837   5.379  18.549  0.00  0.00    +0.000 C 
BRANCH   4   5
ATOM      5  O   UNL     1       6.921   4.918  17.760  0.00  0.00    +0.000 OA
BRANCH   5   6
ATOM      6  C   UNL     1       6.630   4.557  16.473  0.00  0.00    +0.000 A 
ATOM      7  C   UNL     1       7.456   5.136  15.507  0.00  0.00    +0.000 A 
ATOM      8  C   UNL     1       7.289   4.839  14.149  0.00  0.00    +0.000 A 
ATOM      9  C   UNL     1       6.308   3.937  13.727  0.00  0.00    +0.000 A 
ATOM     10  C   UNL     1       5.484   3.344  14.706  0.00  0.00    +0.000 A 
ATOM     11  C   UNL     1       5.646   3.653  16.066  0.00  0.00    +0.000 A 
BRANCH   9  12
ATOM     12  C   UNL     1       6.140   3.590  12.268  0.00  0.00    +0.000 C 
ATOM     13  F   UNL     1       6.922   4.337  11.441  0.00  0.00    +0.000 F 
ATOM     14  F   UNL     1       6.449   2.292  12.000  0.00  0.00    +0.000 F 
ATOM     15  F   UNL     1       4.862   3.768  11.830  0.00  0.00    +0.000 F 
ENDBRANCH   9  12
ENDBRANCH   5   6
ENDBRANCH   4   5
ENDBRANCH   2   4
ENDBRANCH   1   2
BRANCH   1  16
ATOM     16  C   UNL     1       3.031   6.291  19.240  0.00  0.00    +0.000 C 
BRANCH  16  17
ATOM     17  C   UNL     1       2.257   7.611  19.216  0.00  0.00    +0.000 A 
ATOM     18  C   UNL     1       1.676   8.105  20.398  0.00  0.00    +0.000 A 
ATOM     19  C   UNL     1       0.869   9.243  20.372  0.00  0.00    +0.000 A 
ATOM     20  C   UNL     1       0.642   9.910  19.172  0.00  0.00    +0.000 A 
ATOM     21  C   UNL     1       1.211   9.433  17.995  0.00  0.00    +0.000 A 
ATOM     22  C   UNL     1       2.005   8.288  18.014  0.00  0.00    +0.000 A 
ENDBRANCH  16  17
BRANCH  16  23
ATOM     23  P   UNL     1       2.076   4.771  19.598  0.00  0.00    +0.000 P 
ATOM     24  O   UNL     1       3.311   4.118  20.245  0.00  0.00    +0.000 OA
BRANCH  23  26
ATOM     25  C   UNL     1       1.289   2.870  21.266  0.00  0.00    +0.000 C 
ATOM     26  O   UNL     1       1.174   3.334  19.935  0.00  0.00    +0.000 OA
ENDBRANCH  23  26
BRANCH  23  27
ATOM     27  O   UNL     1       1.974   4.391  17.990  0.00  0.00    +0.000 OA
ATOM     28  C   UNL     1       2.264   3.065  17.572  0.00  0.00    +0.000 C 
ENDBRANCH  23  27
ENDBRANCH  16  23
ENDBRANCH   1  16
TORSDOF 10
ENDMDL
MODEL 3
REMARK VINA RESULT:      -7.3      4.856      6.842
REMARK  Name = 
REMARK  12 active torsions:
REMARK  status: ('A' for Active; 'I' for Inactive)
REMARK    1  A    between atoms: C_1  and  O_2
REMARK    2  A    between atoms: O_2  and  P_3
REMARK    3  A    between atoms: P_3  and  O_5
REMARK    4  A    between atoms: P_3  and  C_7
REMARK    5  A    between atoms: O_5  and  C_6
REMARK    6  A    between atoms: C_7  and  O_8
REMARK    7  A    between atoms: C_7  and  C_23
REMARK    8  A    between atoms: O_8  and  C_9
REMARK    9  A    between atoms: C_9  and  C_11
REMARK   10  A    between atoms: C_11  and  O_12
REMARK   11  A    between atoms: O_12  and  C_13
REMARK   12  A    between atoms: C_16  and  C_17
REMARK                            x       y       z     vdW  Elec       q    Type
REMARK                         _______ _______ _______ _____ _____    ______ ____
ROOT
ATOM      1  O   UNL     1       3.840   5.494  18.753  0.00  0.00    +0.000 OA
ENDROOT
BRANCH   1   2
ATOM      2  C   UNL     1       5.156   5.305  19.013  0.00  0.00    +0.000 C 
ATOM      3  O   UNL     1       5.583   4.465  19.795  0.00  0.00    +0.000 OA
BRANCH   2   4
ATOM      4  C   UNL     1       6.033   6.174  18.114  0.00  0.00    +0.000 C 
BRANCH   4   5
ATOM      5  O   UNL     1       6.990   5.423  17.385  0.00  0.00    +0.000 OA
BRANCH   5   6
ATOM      6  C   UNL     1       6.584   4.927  16.177  0.00  0.00    +0.000 A 
ATOM      7  C   UNL     1       7.461   5.184  15.120  0.00  0.00    +0.000 A 
ATOM      8  C   UNL     1       7.186   4.714  13.829  0.00  0.00    +0.000 A 
ATOM      9  C   UNL     1       6.040   3.956  13.570  0.00  0.00    +0.000 A 
ATOM     10  C   UNL     1       5.163   3.688  14.643  0.00  0.00    +0.000 A 
ATOM     11  C   UNL     1       5.436   4.170  15.932  0.00  0.00    +0.000 A 
BRANCH   9  12
ATOM     12  C   UNL     1       5.751   3.423  12.189  0.00  0.00    +0.000 C 
ATOM     13  F   UNL     1       4.477   3.662  11.772  0.00  0.00    +0.000 F 
ATOM     14  F   UNL     1       6.561   3.965  11.239  0.00  0.00    +0.000 F 
ATOM     15  F   UNL     1       5.923   2.074  12.101  0.00  0.00    +0.000 F 
ENDBRANCH   9  12
ENDBRANCH   5   6
ENDBRANCH   4   5
ENDBRANCH   2   4
ENDBRANCH   1   2
BRANCH   1  16
ATOM     16  C   UNL     1       3.006   5.972  19.858  0.00  0.00    +0.000 C 
BRANCH  16  17
ATOM     17  C   UNL     1       2.340   7.277  19.417  0.00  0.00    +0.000 A 
ATOM     18  C   UNL     1       2.583   7.788  18.129  0.00  0.00    +0.000 A 
ATOM     19  C   UNL     1       2.080   9.034  17.752  0.00  0.00    +0.000 A 
ATOM     20  C   UNL     1       1.317   9.779  18.647  0.00  0.00    +0.000 A 
ATOM     21  C   UNL     1       1.067   9.285  19.924  0.00  0.00    +0.000 A 
ATOM     22  C   UNL     1       1.581   8.048  20.310  0.00  0.00    +0.000 A 
ENDBRANCH  16  17
BRANCH  16  23
ATOM     23  P   UNL     1       1.902   4.591  20.331  0.00  0.00    +0.000 P 
ATOM     24  O   UNL     1       2.754   4.307  21.582  0.00  0.00    +0.000 OA
BRANCH  23  26
ATOM     25  C   UNL     1       1.376   2.445  21.791  0.00  0.00    +0.000 C 
ATOM     26  O   UNL     1       0.859   3.285  20.778  0.00  0.00    +0.000 OA
ENDBRANCH  23  26
BRANCH  23  27
ATOM     27  O   UNL     1       2.405   3.676  19.046  0.00  0.00    +0.000 OA
ATOM     28  C   UNL     1       1.434   3.091  18.190  0.00  0.00    +0.000 C 
ENDBRANCH  23  27
ENDBRANCH  16  23
ENDBRANCH   1  16
TORSDOF 10
ENDMDL
MODEL 4
REMARK VINA RESULT:      -7.3      5.173      7.409
REMARK  Name = 
REMARK  12 active torsions:
REMARK  status: ('A' for Active; 'I' for Inactive)
REMARK    1  A    between atoms: C_1  and  O_2
REMARK    2  A    between atoms: O_2  and  P_3
REMARK    3  A    between atoms: P_3  and  O_5
REMARK    4  A    between atoms: P_3  and  C_7
REMARK    5  A    between atoms: O_5  and  C_6
REMARK    6  A    between atoms: C_7  and  O_8
REMARK    7  A    between atoms: C_7  and  C_23
REMARK    8  A    between atoms: O_8  and  C_9
REMARK    9  A    between atoms: C_9  and  C_11
REMARK   10  A    between atoms: C_11  and  O_12
REMARK   11  A    between atoms: O_12  and  C_13
REMARK   12  A    between atoms: C_16  and  C_17
REMARK                            x       y       z     vdW  Elec       q    Type
REMARK                         _______ _______ _______ _____ _____    ______ ____
ROOT
ATOM      1  O   UNL     1       5.244   5.675  18.484  0.00  0.00    +0.000 OA
ENDROOT
BRANCH   1   2
ATOM      2  C   UNL     1       6.460   5.320  18.964  0.00  0.00    +0.000 C 
ATOM      3  O   UNL     1       6.763   5.362  20.150  0.00  0.00    +0.000 OA
BRANCH   2   4
ATOM      4  C   UNL     1       7.346   4.739  17.864  0.00  0.00    +0.000 C 
BRANCH   4   5
ATOM      5  O   UNL     1       7.325   5.511  16.674  0.00  0.00    +0.000 OA
BRANCH   5   6
ATOM      6  C   UNL     1       6.735   4.935  15.583  0.00  0.00    +0.000 A 
ATOM      7  C   UNL     1       7.434   5.107  14.387  0.00  0.00    +0.000 A 
ATOM      8  C   UNL     1       6.960   4.550  13.192  0.00  0.00    +0.000 A 
ATOM      9  C   UNL     1       5.788   3.789  13.170  0.00  0.00    +0.000 A 
ATOM     10  C   UNL     1       5.091   3.607  14.383  0.00  0.00    +0.000 A 
ATOM     11  C   UNL     1       5.562   4.176  15.577  0.00  0.00    +0.000 A 
BRANCH   9  12
ATOM     12  C   UNL     1       5.285   3.163  11.893  0.00  0.00    +0.000 C 
ATOM     13  F   UNL     1       5.616   1.848  11.769  0.00  0.00    +0.000 F 
ATOM     14  F   UNL     1       3.931   3.218  11.781  0.00  0.00    +0.000 F 
ATOM     15  F   UNL     1       5.777   3.776  10.780  0.00  0.00    +0.000 F 
ENDBRANCH   9  12
ENDBRANCH   5   6
ENDBRANCH   4   5
ENDBRANCH   2   4
ENDBRANCH   1   2
BRANCH   1  16
ATOM     16  C   UNL     1       4.105   5.544  19.395  0.00  0.00    +0.000 C 
BRANCH  16  17
ATOM     17  C   UNL     1       3.140   6.698  19.115  0.00  0.00    +0.000 A 
ATOM     18  C   UNL     1       3.219   7.398  17.897  0.00  0.00    +0.000 A 
ATOM     19  C   UNL     1       2.428   8.526  17.672  0.00  0.00    +0.000 A 
ATOM     20  C   UNL     1       1.540   8.962  18.652  0.00  0.00    +0.000 A 
ATOM     21  C   UNL     1       1.451   8.278  19.861  0.00  0.00    +0.000 A 
ATOM     22  C   UNL     1       2.250   7.161  20.095  0.00  0.00    +0.000 A 
ENDBRANCH  16  17
BRANCH  16  23
ATOM     23  P   UNL     1       3.453   3.846  19.195  0.00  0.00    +0.000 P 
ATOM     24  O   UNL     1       2.823   4.220  17.841  0.00  0.00    +0.000 OA
BRANCH  23  26
ATOM     25  C   UNL     1       3.715   1.349  18.351  0.00  0.00    +0.000 C 
ATOM     26  O   UNL     1       2.836   2.240  19.008  0.00  0.00    +0.000 OA
ENDBRANCH  23  26
BRANCH  23  27
ATOM     27  O   UNL     1       2.375   4.056  20.434  0.00  0.00    +0.000 OA
ATOM     28  C   UNL     1       2.372   3.133  21.514  0.00  0.00    +0.000 C 
ENDBRANCH  23  27
ENDBRANCH  16  23
ENDBRANCH   1  16
TORSDOF 10
ENDMDL
MODEL 5
REMARK VINA RESULT:      -7.2      5.530      7.660
REMARK  Name = 
REMARK  12 active torsions:
REMARK  status: ('A' for Active; 'I' for Inactive)
REMARK    1  A    between atoms: C_1  and  O_2
REMARK    2  A    between atoms: O_2  and  P_3
REMARK    3  A    between atoms: P_3  and  O_5
REMARK    4  A    between atoms: P_3  and  C_7
REMARK    5  A    between atoms: O_5  and  C_6
REMARK    6  A    between atoms: C_7  and  O_8
REMARK    7  A    between atoms: C_7  and  C_23
REMARK    8  A    between atoms: O_8  and  C_9
REMARK    9  A    between atoms: C_9  and  C_11
REMARK   10  A    between atoms: C_11  and  O_12
REMARK   11  A    between atoms: O_12  and  C_13
REMARK   12  A    between atoms: C_16  and  C_17
REMARK                            x       y       z     vdW  Elec       q    Type
REMARK                         _______ _______ _______ _____ _____    ______ ____
ROOT
ATOM      1  O   UNL     1       5.370   4.591  18.533  0.00  0.00    +0.000 OA
ENDROOT
BRANCH   1   2
ATOM      2  C   UNL     1       6.662   4.957  18.709  0.00  0.00    +0.000 C 
ATOM      3  O   UNL     1       7.098   5.447  19.743  0.00  0.00    +0.000 OA
BRANCH   2   4
ATOM      4  C   UNL     1       7.522   4.560  17.511  0.00  0.00    +0.000 C 
BRANCH   4   5
ATOM      5  O   UNL     1       7.388   5.451  16.416  0.00  0.00    +0.000 OA
BRANCH   5   6
ATOM      6  C   UNL     1       6.905   4.919  15.251  0.00  0.00    +0.000 A 
ATOM      7  C   UNL     1       5.647   4.324  15.364  0.00  0.00    +0.000 A 
ATOM      8  C   UNL     1       5.018   3.759  14.247  0.00  0.00    +0.000 A 
ATOM      9  C   UNL     1       5.622   3.797  12.987  0.00  0.00    +0.000 A 
ATOM     10  C   UNL     1       6.888   4.411  12.875  0.00  0.00    +0.000 A 
ATOM     11  C   UNL     1       7.521   4.965  13.998  0.00  0.00    +0.000 A 
BRANCH   9  12
ATOM     12  C   UNL     1       4.939   3.216  11.774  0.00  0.00    +0.000 C 
ATOM     13  F   UNL     1       5.011   4.018  10.677  0.00  0.00    +0.000 F 
ATOM     14  F   UNL     1       5.470   2.022  11.397  0.00  0.00    +0.000 F 
ATOM     15  F   UNL     1       3.612   2.986  11.980  0.00  0.00    +0.000 F 
ENDBRANCH   9  12
ENDBRANCH   5   6
ENDBRANCH   4   5
ENDBRANCH   2   4
ENDBRANCH   1   2
BRANCH   1  16
ATOM     16  C   UNL     1       4.400   5.083  19.513  0.00  0.00    +0.000 C 
BRANCH  16  17
ATOM     17  C   UNL     1       3.710   6.313  18.919  0.00  0.00    +0.000 A 
ATOM     18  C   UNL     1       2.678   6.950  19.632  0.00  0.00    +0.000 A 
ATOM     19  C   UNL     1       1.958   7.998  19.057  0.00  0.00    +0.000 A 
ATOM     20  C   UNL     1       2.266   8.433  17.771  0.00  0.00    +0.000 A 
ATOM     21  C   UNL     1       3.286   7.813  17.055  0.00  0.00    +0.000 A 
ATOM     22  C   UNL     1       3.997   6.756  17.620  0.00  0.00    +0.000 A 
ENDBRANCH  16  17
BRANCH  16  23
ATOM     23  P   UNL     1       3.334   3.667  19.969  0.00  0.00    +0.000 P 
ATOM     24  O   UNL     1       4.513   2.692  19.796  0.00  0.00    +0.000 OA
BRANCH  23  26
ATOM     25  C   UNL     1       1.090   2.692  20.982  0.00  0.00    +0.000 C 
ATOM     26  O   UNL     1       2.325   2.329  20.399  0.00  0.00    +0.000 OA
ENDBRANCH  23  26
BRANCH  23  27
ATOM     27  O   UNL     1       2.461   3.803  18.569  0.00  0.00    +0.000 OA
ATOM     28  C   UNL     1       2.590   2.799  17.573  0.00  0.00    +0.000 C 
ENDBRANCH  23  27
ENDBRANCH  16  23
ENDBRANCH   1  16
TORSDOF 10
ENDMDL
MODEL 6
REMARK VINA RESULT:      -7.2      5.096      7.232
REMARK  Name = 
REMARK  12 active torsions:
REMARK  status: ('A' for Active; 'I' for Inactive)
REMARK    1  A    between atoms: C_1  and  O_2
REMARK    2  A    between atoms: O_2  and  P_3
REMARK    3  A    between atoms: P_3  and  O_5
REMARK    4  A    between atoms: P_3  and  C_7
REMARK    5  A    between atoms: O_5  and  C_6
REMARK    6  A    between atoms: C_7  and  O_8
REMARK    7  A    between atoms: C_7  and  C_23
REMARK    8  A    between atoms: O_8  and  C_9
REMARK    9  A    between atoms: C_9  and  C_11
REMARK   10  A    between atoms: C_11  and  O_12
REMARK   11  A    between atoms: O_12  and  C_13
REMARK   12  A    between atoms: C_16  and  C_17
REMARK                            x       y       z     vdW  Elec       q    Type
REMARK                         _______ _______ _______ _____ _____    ______ ____
ROOT
ATOM      1  O   UNL     1       4.858   5.237  18.478  0.00  0.00    +0.000 OA
ENDROOT
BRANCH   1   2
ATOM      2  C   UNL     1       6.113   5.535  18.893  0.00  0.00    +0.000 C 
ATOM      3  O   UNL     1       6.559   5.226  19.991  0.00  0.00    +0.000 OA
BRANCH   2   4
ATOM      4  C   UNL     1       6.932   6.179  17.776  0.00  0.00    +0.000 C 
BRANCH   4   5
ATOM      5  O   UNL     1       7.676   5.235  17.024  0.00  0.00    +0.000 OA
BRANCH   5   6
ATOM      6  C   UNL     1       7.078   4.747  15.894  0.00  0.00    +0.000 A 
ATOM      7  C   UNL     1       7.630   5.213  14.699  0.00  0.00    +0.000 A 
ATOM      8  C   UNL     1       7.134   4.779  13.463  0.00  0.00    +0.000 A 
ATOM      9  C   UNL     1       6.091   3.852  13.394  0.00  0.00    +0.000 A 
ATOM     10  C   UNL     1       5.545   3.373  14.604  0.00  0.00    +0.000 A 
ATOM     11  C   UNL     1       6.036   3.818  15.841  0.00  0.00    +0.000 A 
BRANCH   9  12
ATOM     12  C   UNL     1       5.570   3.358  12.066  0.00  0.00    +0.000 C 
ATOM     13  F   UNL     1       6.179   3.939  10.997  0.00  0.00    +0.000 F 
ATOM     14  F   UNL     1       5.735   2.017  11.906  0.00  0.00    +0.000 F 
ATOM     15  F   UNL     1       4.237   3.592  11.907  0.00  0.00    +0.000 F 
ENDBRANCH   9  12
ENDBRANCH   5   6
ENDBRANCH   4   5
ENDBRANCH   2   4
ENDBRANCH   1   2
BRANCH   1  16
ATOM     16  C   UNL     1       3.786   5.348  19.469  0.00  0.00    +0.000 C 
BRANCH  16  17
ATOM     17  C   UNL     1       3.047   6.665  19.221  0.00  0.00    +0.000 A 
ATOM     18  C   UNL     1       2.201   7.192  20.215  0.00  0.00    +0.000 A 
ATOM     19  C   UNL     1       1.429   8.327  19.963  0.00  0.00    +0.000 A 
ATOM     20  C   UNL     1       1.501   8.959  18.724  0.00  0.00    +0.000 A 
ATOM     21  C   UNL     1       2.334   8.449  17.733  0.00  0.00    +0.000 A 
ATOM     22  C   UNL     1       3.095   7.307  17.975  0.00  0.00    +0.000 A 
ENDBRANCH  16  17
BRANCH  16  23
ATOM     23  P   UNL     1       2.802   3.809  19.368  0.00  0.00    +0.000 P 
ATOM     24  O   UNL     1       2.005   4.368  18.175  0.00  0.00    +0.000 OA
BRANCH  23  26
ATOM     25  C   UNL     1       0.569   2.526  18.749  0.00  0.00    +0.000 C 
ATOM     26  O   UNL     1       1.871   2.353  19.272  0.00  0.00    +0.000 OA
ENDBRANCH  23  26
BRANCH  23  27
ATOM     27  O   UNL     1       2.040   4.137  20.800  0.00  0.00    +0.000 OA
ATOM     28  C   UNL     1       2.203   3.242  21.892  0.00  0.00    +0.000 C 
ENDBRANCH  23  27
ENDBRANCH  16  23
ENDBRANCH   1  16
TORSDOF 10
ENDMDL
MODEL 7
REMARK VINA RESULT:      -7.2      4.301      8.122
REMARK  Name = 
REMARK  12 active torsions:
REMARK  status: ('A' for Active; 'I' for Inactive)
REMARK    1  A    between atoms: C_1  and  O_2
REMARK    2  A    between atoms: O_2  and  P_3
REMARK    3  A    between atoms: P_3  and  O_5
REMARK    4  A    between atoms: P_3  and  C_7
REMARK    5  A    between atoms: O_5  and  C_6
REMARK    6  A    between atoms: C_7  and  O_8
REMARK    7  A    between atoms: C_7  and  C_23
REMARK    8  A    between atoms: O_8  and  C_9
REMARK    9  A    between atoms: C_9  and  C_11
REMARK   10  A    between atoms: C_11  and  O_12
REMARK   11  A    between atoms: O_12  and  C_13
REMARK   12  A    between atoms: C_16  and  C_17
REMARK                            x       y       z     vdW  Elec       q    Type
REMARK                         _______ _______ _______ _____ _____    ______ ____
ROOT
ATOM      1  O   UNL     1       2.744   7.022  17.900  0.00  0.00    +0.000 OA
ENDROOT
BRANCH   1   2
ATOM      2  C   UNL     1       2.152   7.945  18.695  0.00  0.00    +0.000 C 
ATOM      3  O   UNL     1       2.168   7.901  19.919  0.00  0.00    +0.000 OA
BRANCH   2   4
ATOM      4  C   UNL     1       1.587   9.105  17.878  0.00  0.00    +0.000 C 
BRANCH   4   5
ATOM      5  O   UNL     1       1.097  10.162  18.687  0.00  0.00    +0.000 OA
BRANCH   5   6
ATOM      6  C   UNL     1      -0.218  10.499  18.520  0.00  0.00    +0.000 A 
ATOM      7  C   UNL     1      -0.892   9.746  17.556  0.00  0.00    +0.000 A 
ATOM      8  C   UNL     1      -2.251   9.964  17.296  0.00  0.00    +0.000 A 
ATOM      9  C   UNL     1      -2.973  10.927  18.009  0.00  0.00    +0.000 A 
ATOM     10  C   UNL     1      -2.291  11.677  18.990  0.00  0.00    +0.000 A 
ATOM     11  C   UNL     1      -0.927  11.463  19.241  0.00  0.00    +0.000 A 
BRANCH   9  12
ATOM     12  C   UNL     1      -4.443  11.149  17.753  0.00  0.00    +0.000 C 
ATOM     13  F   UNL     1      -5.242  10.221  18.348  0.00  0.00    +0.000 F 
ATOM     14  F   UNL     1      -4.875  12.357  18.207  0.00  0.00    +0.000 F 
ATOM     15  F   UNL     1      -4.756  11.114  16.428  0.00  0.00    +0.000 F 
ENDBRANCH   9  12
ENDBRANCH   5   6
ENDBRANCH   4   5
ENDBRANCH   2   4
ENDBRANCH   1   2
BRANCH   1  16
ATOM     16  C   UNL     1       3.578   6.014  18.558  0.00  0.00    +0.000 C 
BRANCH  16  17
ATOM     17  C   UNL     1       2.664   4.886  19.041  0.00  0.00    +0.000 A 
ATOM     18  C   UNL     1       1.898   4.158  18.112  0.00  0.00    +0.000 A 
ATOM     19  C   UNL     1       0.971   3.207  18.543  0.00  0.00    +0.000 A 
ATOM     20  C   UNL     1       0.808   2.960  19.904  0.00  0.00    +0.000 A 
ATOM     21  C   UNL     1       1.560   3.672  20.833  0.00  0.00    +0.000 A 
ATOM     22  C   UNL     1       2.474   4.633  20.408  0.00  0.00    +0.000 A 
ENDBRANCH  16  17
BRANCH  16  23
ATOM     23  P   UNL     1       4.904   5.565  17.380  0.00  0.00    +0.000 P 
ATOM     24  O   UNL     1       5.535   4.614  18.414  0.00  0.00    +0.000 OA
BRANCH  23  26
ATOM     25  C   UNL     1       5.987   3.883  15.644  0.00  0.00    +0.000 C 
ATOM     26  O   UNL     1       6.159   5.141  16.266  0.00  0.00    +0.000 OA
ENDBRANCH  23  26
BRANCH  23  27
ATOM     27  O   UNL     1       5.574   7.076  17.472  0.00  0.00    +0.000 OA
ATOM     28  C   UNL     1       6.984   7.216  17.371  0.00  0.00    +0.000 C 
ENDBRANCH  23  27
ENDBRANCH  16  23
ENDBRANCH   1  16
TORSDOF 10
ENDMDL
MODEL 8
REMARK VINA RESULT:      -7.1      4.707      8.307
REMARK  Name = 
REMARK  12 active torsions:
REMARK  status: ('A' for Active; 'I' for Inactive)
REMARK    1  A    between atoms: C_1  and  O_2
REMARK    2  A    between atoms: O_2  and  P_3
REMARK    3  A    between atoms: P_3  and  O_5
REMARK    4  A    between atoms: P_3  and  C_7
REMARK    5  A    between atoms: O_5  and  C_6
REMARK    6  A    between atoms: C_7  and  O_8
REMARK    7  A    between atoms: C_7  and  C_23
REMARK    8  A    between atoms: O_8  and  C_9
REMARK    9  A    between atoms: C_9  and  C_11
REMARK   10  A    between atoms: C_11  and  O_12
REMARK   11  A    between atoms: O_12  and  C_13
REMARK   12  A    between atoms: C_16  and  C_17
REMARK                            x       y       z     vdW  Elec       q    Type
REMARK                         _______ _______ _______ _____ _____    ______ ____
ROOT
ATOM      1  O   UNL     1       2.817   6.972  18.835  0.00  0.00    +0.000 OA
ENDROOT
BRANCH   1   2
ATOM      2  C   UNL     1       2.452   8.120  18.214  0.00  0.00    +0.000 C 
ATOM      3  O   UNL     1       2.902   8.484  17.134  0.00  0.00    +0.000 OA
BRANCH   2   4
ATOM      4  C   UNL     1       1.320   8.823  18.961  0.00  0.00    +0.000 C 
BRANCH   4   5
ATOM      5  O   UNL     1       1.419   8.683  20.369  0.00  0.00    +0.000 OA
BRANCH   5   6
ATOM      6  C   UNL     1       0.606   9.486  21.120  0.00  0.00    +0.000 A 
ATOM      7  C   UNL     1       0.049  10.562  20.424  0.00  0.00    +0.000 A 
ATOM      8  C   UNL     1      -0.823  11.454  21.061  0.00  0.00    +0.000 A 
ATOM      9  C   UNL     1      -1.178  11.277  22.402  0.00  0.00    +0.000 A 
ATOM     10  C   UNL     1      -0.623  10.182  23.098  0.00  0.00    +0.000 A 
ATOM     11  C   UNL     1       0.260   9.297  22.460  0.00  0.00    +0.000 A 
BRANCH   9  12
ATOM     12  C   UNL     1      -2.138  12.217  23.087  0.00  0.00    +0.000 C 
ATOM     13  F   UNL     1      -1.520  13.174  23.833  0.00  0.00    +0.000 F 
ATOM     14  F   UNL     1      -2.932  12.887  22.207  0.00  0.00    +0.000 F 
ATOM     15  F   UNL     1      -2.985  11.573  23.938  0.00  0.00    +0.000 F 
ENDBRANCH   9  12
ENDBRANCH   5   6
ENDBRANCH   4   5
ENDBRANCH   2   4
ENDBRANCH   1   2
BRANCH   1  16
ATOM     16  C   UNL     1       3.296   5.880  17.985  0.00  0.00    +0.000 C 
BRANCH  16  17
ATOM     17  C   UNL     1       4.823   5.838  18.086  0.00  0.00    +0.000 A 
ATOM     18  C   UNL     1       5.435   5.344  19.252  0.00  0.00    +0.000 A 
ATOM     19  C   UNL     1       6.820   5.407  19.410  0.00  0.00    +0.000 A 
ATOM     20  C   UNL     1       7.613   5.949  18.401  0.00  0.00    +0.000 A 
ATOM     21  C   UNL     1       7.021   6.439  17.242  0.00  0.00    +0.000 A 
ATOM     22  C   UNL     1       5.637   6.393  17.087  0.00  0.00    +0.000 A 
ENDBRANCH  16  17
BRANCH  16  23
ATOM     23  P   UNL     1       2.386   4.374  18.486  0.00  0.00    +0.000 P 
ATOM     24  O   UNL     1       1.372   4.577  17.345  0.00  0.00    +0.000 OA
BRANCH  23  26
ATOM     25  C   UNL     1       2.200   1.739  18.682  0.00  0.00    +0.000 C 
ATOM     26  O   UNL     1       1.525   2.950  18.960  0.00  0.00    +0.000 OA
ENDBRANCH  23  26
BRANCH  23  27
ATOM     27  O   UNL     1       1.863   5.088  19.885  0.00  0.00    +0.000 OA
ATOM     28  C   UNL     1       2.153   4.469  21.130  0.00  0.00    +0.000 C 
ENDBRANCH  23  27
ENDBRANCH  16  23
ENDBRANCH   1  16
TORSDOF 10
ENDMDL
MODEL 9
REMARK VINA RESULT:      -7.1      0.920      1.746
REMARK  Name = 
REMARK  12 active torsions:
REMARK  status: ('A' for Active; 'I' for Inactive)
REMARK    1  A    between atoms: C_1  and  O_2
REMARK    2  A    between atoms: O_2  and  P_3
REMARK    3  A    between atoms: P_3  and  O_5
REMARK    4  A    between atoms: P_3  and  C_7
REMARK    5  A    between atoms: O_5  and  C_6
REMARK    6  A    between atoms: C_7  and  O_8
REMARK    7  A    between atoms: C_7  and  C_23
REMARK    8  A    between atoms: O_8  and  C_9
REMARK    9  A    between atoms: C_9  and  C_11
REMARK   10  A    between atoms: C_11  and  O_12
REMARK   11  A    between atoms: O_12  and  C_13
REMARK   12  A    between atoms: C_16  and  C_17
REMARK                            x       y       z     vdW  Elec       q    Type
REMARK                         _______ _______ _______ _____ _____    ______ ____
ROOT
ATOM      1  O   UNL     1       0.833  10.138  18.837  0.00  0.00    +0.000 OA
ENDROOT
BRANCH   1   2
ATOM      2  C   UNL     1       1.918  10.048  18.030  0.00  0.00    +0.000 C 
ATOM      3  O   UNL     1       2.485  11.017  17.540  0.00  0.00    +0.000 OA
BRANCH   2   4
ATOM      4  C   UNL     1       2.416   8.608  17.925  0.00  0.00    +0.000 C 
BRANCH   4   5
ATOM      5  O   UNL     1       2.386   7.922  19.165  0.00  0.00    +0.000 OA
BRANCH   5   6
ATOM      6  C   UNL     1       2.241   6.563  19.107  0.00  0.00    +0.000 A 
ATOM      7  C   UNL     1       1.931   5.960  20.328  0.00  0.00    +0.000 A 
ATOM      8  C   UNL     1       1.729   4.577  20.415  0.00  0.00    +0.000 A 
ATOM      9  C   UNL     1       1.812   3.767  19.278  0.00  0.00    +0.000 A 
ATOM     10  C   UNL     1       2.113   4.381  18.044  0.00  0.00    +0.000 A 
ATOM     11  C   UNL     1       2.326   5.766  17.963  0.00  0.00    +0.000 A 
BRANCH   9  12
ATOM     12  C   UNL     1       1.569   2.280  19.358  0.00  0.00    +0.000 C 
ATOM     13  F   UNL     1       0.432   1.883  18.723  0.00  0.00    +0.000 F 
ATOM     14  F   UNL     1       2.578   1.555  18.803  0.00  0.00    +0.000 F 
ATOM     15  F   UNL     1       1.452   1.837  20.641  0.00  0.00    +0.000 F 
ENDBRANCH   9  12
ENDBRANCH   5   6
ENDBRANCH   4   5
ENDBRANCH   2   4
ENDBRANCH   1   2
BRANCH   1  16
ATOM     16  C   UNL     1       0.101  11.406  18.828  0.00  0.00    +0.000 C 
BRANCH  16  17
ATOM     17  C   UNL     1      -1.311  11.135  18.306  0.00  0.00    +0.000 A 
ATOM     18  C   UNL     1      -2.399  11.868  18.814  0.00  0.00    +0.000 A 
ATOM     19  C   UNL     1      -3.706  11.554  18.437  0.00  0.00    +0.000 A 
ATOM     20  C   UNL     1      -3.944  10.517  17.539  0.00  0.00    +0.000 A 
ATOM     21  C   UNL     1      -2.876   9.785  17.027  0.00  0.00    +0.000 A 
ATOM     22  C   UNL     1      -1.571  10.084  17.413  0.00  0.00    +0.000 A 
ENDBRANCH  16  17
BRANCH  16  23
ATOM     23  P   UNL     1       0.246  12.118  20.508  0.00  0.00    +0.000 P 
ATOM     24  O   UNL     1       1.614  12.731  20.157  0.00  0.00    +0.000 OA
BRANCH  23  26
ATOM     25  C   UNL     1      -0.295  14.019  22.271  0.00  0.00    +0.000 C 
ATOM     26  O   UNL     1       0.383  12.791  22.096  0.00  0.00    +0.000 OA
ENDBRANCH  23  26
BRANCH  23  27
ATOM     27  O   UNL     1       0.421  10.619  21.188  0.00  0.00    +0.000 OA
ATOM     28  C   UNL     1      -0.446  10.233  22.245  0.00  0.00    +0.000 C 
ENDBRANCH  23  27
ENDBRANCH  16  23
ENDBRANCH   1  16
TORSDOF 10
ENDMDL
