MODEL 1
REMARK VINA RESULT:      -7.0      0.000      0.000
REMARK  Name = 
REMARK  1 active torsions:
REMARK  status: ('A' for Active; 'I' for Inactive)
REMARK    1  A    between atoms: C_2  and  C_3
REMARK                            x       y       z     vdW  Elec       q    Type
REMARK                         _______ _______ _______ _____ _____    ______ ____
ROOT
ATOM      1  O   UNL     1       1.658   5.607  21.064  0.00  0.00    +0.000 OA
ATOM      2  C   UNL     1       1.981   6.320  20.116  0.00  0.00    +0.000 C 
ATOM      3  N   UNL     1       1.689   7.690  20.063  0.00  0.00    +0.000 N 
ATOM      4  C   UNL     1       2.009   8.574  18.947  0.00  0.00    +0.000 C 
ATOM      5  C   UNL     1       0.880   9.533  18.627  0.00  0.00    +0.000 C 
ATOM      6  C   UNL     1       0.440  10.353  19.851  0.00  0.00    +0.000 C 
ATOM      7  C   UNL     1       0.052   9.345  20.960  0.00  0.00    +0.000 C 
ATOM      8  C   UNL     1       1.167   8.341  21.270  0.00  0.00    +0.000 C 
ATOM      9  C   UNL     1       1.555  11.305  20.358  0.00  0.00    +0.000 C 
ATOM     10  C   UNL     1       1.905  12.395  19.341  0.00  0.00    +0.000 C 
ATOM     11  N   UNL     1       0.689  13.097  19.003  0.00  0.00    +0.000 N 
ATOM     12  C   UNL     1       0.701  14.467  18.867  0.00  0.00    +0.000 A 
ATOM     13  N   UNL     1       1.845  15.129  19.081  0.00  0.00    +0.000 NA
ATOM     14  C   UNL     1       1.815  16.477  19.048  0.00  0.00    +0.000 A 
ATOM     15  C   UNL     1       0.676  17.200  18.814  0.00  0.00    +0.000 A 
ATOM     16  C   UNL     1      -0.450  16.443  18.592  0.00  0.00    +0.000 A 
ATOM     17  N   UNL     1      -0.458  15.099  18.601  0.00  0.00    +0.000 NA
ATOM     18  C   UNL     1      -0.431  12.331  18.470  0.00  0.00    +0.000 C 
ATOM     19  C   UNL     1      -0.790  11.212  19.462  0.00  0.00    +0.000 C 
ENDROOT
BRANCH   2  20
ATOM     20  C   UNL     1       2.664   5.652  18.971  0.00  0.00    +0.000 A 
ATOM     21  C   UNL     1       4.012   5.937  18.758  0.00  0.00    +0.000 A 
ATOM     22  C   UNL     1       4.664   5.261  17.743  0.00  0.00    +0.000 A 
ATOM     23  N   UNL     1       4.074   4.331  16.961  0.00  0.00    +0.000 NA
ATOM     24  C   UNL     1       2.758   4.113  17.159  0.00  0.00    +0.000 A 
ATOM     25  C   UNL     1       2.005   4.778  18.108  0.00  0.00    +0.000 A 
ENDBRANCH   2  20
TORSDOF 1
ENDMDL
MODEL 2
REMARK VINA RESULT:      -6.8      2.393      8.674
REMARK  Name = 
REMARK  1 active torsions:
REMARK  status: ('A' for Active; 'I' for Inactive)
REMARK    1  A    between atoms: C_2  and  C_3
REMARK                            x       y       z     vdW  Elec       q    Type
REMARK                         _______ _______ _______ _____ _____    ______ ____
ROOT
ATOM      1  O   UNL     1      -0.578  15.204  18.678  0.00  0.00    +0.000 OA
ATOM      2  C   UNL     1       0.480  14.630  18.927  0.00  0.00    +0.000 C 
ATOM      3  N   UNL     1       0.582  13.236  19.027  0.00  0.00    +0.000 N 
ATOM      4  C   UNL     1       1.799  12.505  19.361  0.00  0.00    +0.000 C 
ATOM      5  C   UNL     1       1.543  11.364  20.326  0.00  0.00    +0.000 C 
ATOM      6  C   UNL     1       0.459  10.397  19.819  0.00  0.00    +0.000 C 
ATOM      7  C   UNL     1      -0.815  11.237  19.557  0.00  0.00    +0.000 C 
ATOM      8  C   UNL     1      -0.566  12.420  18.614  0.00  0.00    +0.000 C 
ATOM      9  C   UNL     1       0.887   9.654  18.527  0.00  0.00    +0.000 C 
ATOM     10  C   UNL     1       2.080   8.721  18.753  0.00  0.00    +0.000 C 
ATOM     11  N   UNL     1       1.742   7.816  19.826  0.00  0.00    +0.000 N 
ATOM     12  C   UNL     1       2.089   6.486  19.741  0.00  0.00    +0.000 A 
ATOM     13  N   UNL     1       2.715   6.050  18.639  0.00  0.00    +0.000 NA
ATOM     14  C   UNL     1       2.953   4.728  18.526  0.00  0.00    +0.000 A 
ATOM     15  C   UNL     1       2.582   3.811  19.472  0.00  0.00    +0.000 A 
ATOM     16  C   UNL     1       1.958   4.344  20.575  0.00  0.00    +0.000 A 
ATOM     17  N   UNL     1       1.717   5.657  20.733  0.00  0.00    +0.000 NA
ATOM     18  C   UNL     1       1.363   8.379  21.116  0.00  0.00    +0.000 C 
ATOM     19  C   UNL     1       0.180   9.340  20.917  0.00  0.00    +0.000 C 
ENDROOT
BRANCH   2  20
ATOM     20  C   UNL     1       1.672  15.491  19.178  0.00  0.00    +0.000 A 
ATOM     21  C   UNL     1       2.479  15.823  18.090  0.00  0.00    +0.000 A 
ATOM     22  C   UNL     1       3.541  16.680  18.310  0.00  0.00    +0.000 A 
ATOM     23  N   UNL     1       3.827  17.227  19.512  0.00  0.00    +0.000 NA
ATOM     24  C   UNL     1       3.059  16.849  20.553  0.00  0.00    +0.000 A 
ATOM     25  C   UNL     1       2.011  15.954  20.448  0.00  0.00    +0.000 A 
ENDBRANCH   2  20
TORSDOF 1
ENDMDL
MODEL 3
REMARK VINA RESULT:      -6.5      3.252      8.434
REMARK  Name = 
REMARK  1 active torsions:
REMARK  status: ('A' for Active; 'I' for Inactive)
REMARK    1  A    between atoms: C_2  and  C_3
REMARK                            x       y       z     vdW  Elec       q    Type
REMARK                         _______ _______ _______ _____ _____    ______ ____
ROOT
ATOM      1  O   UNL     1      -2.117  13.849  20.403  0.00  0.00    +0.000 OA
ATOM      2  C   UNL     1      -2.300  12.698  20.013  0.00  0.00    +0.000 C 
ATOM      3  N   UNL     1      -1.259  11.772  19.862  0.00  0.00    +0.000 N 
ATOM      4  C   UNL     1      -1.411  10.409  19.364  0.00  0.00    +0.000 C 
ATOM      5  C   UNL     1      -0.306  10.017  18.404  0.00  0.00    +0.000 C 
ATOM      6  C   UNL     1       1.095  10.213  19.009  0.00  0.00    +0.000 C 
ATOM      7  C   UNL     1       1.200  11.694  19.445  0.00  0.00    +0.000 C 
ATOM      8  C   UNL     1       0.068  12.122  20.385  0.00  0.00    +0.000 C 
ATOM      9  C   UNL     1       1.353   9.277  20.220  0.00  0.00    +0.000 C 
ATOM     10  C   UNL     1       1.369   7.797  19.826  0.00  0.00    +0.000 C 
ATOM     11  N   UNL     1       2.344   7.625  18.776  0.00  0.00    +0.000 N 
ATOM     12  C   UNL     1       3.176   6.527  18.781  0.00  0.00    +0.000 A 
ATOM     13  N   UNL     1       3.080   5.648  19.787  0.00  0.00    +0.000 NA
ATOM     14  C   UNL     1       3.971   4.637  19.834  0.00  0.00    +0.000 A 
ATOM     15  C   UNL     1       4.969   4.469  18.913  0.00  0.00    +0.000 A 
ATOM     16  C   UNL     1       4.988   5.407  17.908  0.00  0.00    +0.000 A 
ATOM     17  N   UNL     1       4.109   6.420  17.817  0.00  0.00    +0.000 NA
ATOM     18  C   UNL     1       2.199   8.411  17.556  0.00  0.00    +0.000 C 
ATOM     19  C   UNL     1       2.156   9.903  17.923  0.00  0.00    +0.000 C 
ENDROOT
BRANCH   2  20
ATOM     20  C   UNL     1      -3.697  12.323  19.647  0.00  0.00    +0.000 A 
ATOM     21  C   UNL     1      -3.924  11.811  18.370  0.00  0.00    +0.000 A 
ATOM     22  C   UNL     1      -5.205  11.396  18.058  0.00  0.00    +0.000 A 
ATOM     23  N   UNL     1      -6.241  11.441  18.924  0.00  0.00    +0.000 NA
ATOM     24  C   UNL     1      -6.002  11.987  20.133  0.00  0.00    +0.000 A 
ATOM     25  C   UNL     1      -4.772  12.483  20.520  0.00  0.00    +0.000 A 
ENDBRANCH   2  20
TORSDOF 1
ENDMDL
MODEL 4
REMARK VINA RESULT:      -6.4      3.909      8.775
REMARK  Name = 
REMARK  1 active torsions:
REMARK  status: ('A' for Active; 'I' for Inactive)
REMARK    1  A    between atoms: C_2  and  C_3
REMARK                            x       y       z     vdW  Elec       q    Type
REMARK                         _______ _______ _______ _____ _____    ______ ____
ROOT
ATOM      1  O   UNL     1      -2.089  15.098  22.590  0.00  0.00    +0.000 OA
ATOM      2  C   UNL     1      -2.434  14.016  22.120  0.00  0.00    +0.000 C 
ATOM      3  N   UNL     1      -1.517  13.067  21.646  0.00  0.00    +0.000 N 
ATOM      4  C   UNL     1      -1.870  11.787  21.041  0.00  0.00    +0.000 C 
ATOM      5  C   UNL     1      -1.018  11.465  19.829  0.00  0.00    +0.000 C 
ATOM      6  C   UNL     1       0.488  11.514  20.140  0.00  0.00    +0.000 C 
ATOM      7  C   UNL     1       0.790  12.922  20.709  0.00  0.00    +0.000 C 
ATOM      8  C   UNL     1      -0.089  13.282  21.910  0.00  0.00    +0.000 C 
ATOM      9  C   UNL     1       0.919  10.421  21.153  0.00  0.00    +0.000 C 
ATOM     10  C   UNL     1       0.743   9.005  20.600  0.00  0.00    +0.000 C 
ATOM     11  N   UNL     1       1.465   8.919  19.353  0.00  0.00    +0.000 N 
ATOM     12  C   UNL     1       2.196   7.790  19.057  0.00  0.00    +0.000 A 
ATOM     13  N   UNL     1       2.244   6.796  19.954  0.00  0.00    +0.000 NA
ATOM     14  C   UNL     1       3.047   5.744  19.694  0.00  0.00    +0.000 A 
ATOM     15  C   UNL     1       3.819   5.646  18.568  0.00  0.00    +0.000 A 
ATOM     16  C   UNL     1       3.701   6.702  17.695  0.00  0.00    +0.000 A 
ATOM     17  N   UNL     1       2.900   7.759  17.910  0.00  0.00    +0.000 NA
ATOM     18  C   UNL     1       1.131   9.859  18.290  0.00  0.00    +0.000 C 
ATOM     19  C   UNL     1       1.276  11.293  18.824  0.00  0.00    +0.000 C 
ENDROOT
BRANCH   2  20
ATOM     20  C   UNL     1      -3.900  13.760  22.020  0.00  0.00    +0.000 A 
ATOM     21  C   UNL     1      -4.538  13.180  23.116  0.00  0.00    +0.000 A 
ATOM     22  C   UNL     1      -5.909  13.011  23.051  0.00  0.00    +0.000 A 
ATOM     23  N   UNL     1      -6.663  13.392  21.997  0.00  0.00    +0.000 NA
ATOM     24  C   UNL     1      -6.012  13.905  20.933  0.00  0.00    +0.000 A 
ATOM     25  C   UNL     1      -4.640  14.061  20.878  0.00  0.00    +0.000 A 
ENDBRANCH   2  20
TORSDOF 1
ENDMDL
MODEL 5
REMARK VINA RESULT:      -6.3      3.187      8.563
REMARK  Name = 
REMARK  1 active torsions:
REMARK  status: ('A' for Active; 'I' for Inactive)
REMARK    1  A    between atoms: C_2  and  C_3
REMARK                            x       y       z     vdW  Elec       q    Type
REMARK                         _______ _______ _______ _____ _____    ______ ____
ROOT
ATOM      1  O   UNL     1      -1.364  14.268  20.858  0.00  0.00    +0.000 OA
ATOM      2  C   UNL     1      -1.696  13.105  20.635  0.00  0.00    +0.000 C 
ATOM      3  N   UNL     1      -0.771  12.096  20.335  0.00  0.00    +0.000 N 
ATOM      4  C   UNL     1      -1.110  10.712  20.021  0.00  0.00    +0.000 C 
ATOM      5  C   UNL     1      -0.288  10.161  18.873  0.00  0.00    +0.000 C 
ATOM      6  C   UNL     1       1.225  10.301  19.112  0.00  0.00    +0.000 C 
ATOM      7  C   UNL     1       1.509  11.802  19.367  0.00  0.00    +0.000 C 
ATOM      8  C   UNL     1       0.659  12.387  20.498  0.00  0.00    +0.000 C 
ATOM      9  C   UNL     1       1.715   9.451  20.314  0.00  0.00    +0.000 C 
ATOM     10  C   UNL     1       1.559   7.947  20.073  0.00  0.00    +0.000 C 
ATOM     11  N   UNL     1       2.244   7.618  18.846  0.00  0.00    +0.000 N 
ATOM     12  C   UNL     1       2.994   6.466  18.764  0.00  0.00    +0.000 A 
ATOM     13  N   UNL     1       3.095   5.681  19.845  0.00  0.00    +0.000 NA
ATOM     14  C   UNL     1       3.916   4.614  19.780  0.00  0.00    +0.000 A 
ATOM     15  C   UNL     1       4.655   4.298  18.672  0.00  0.00    +0.000 A 
ATOM     16  C   UNL     1       4.483   5.147  17.605  0.00  0.00    +0.000 A 
ATOM     17  N   UNL     1       3.662   6.211  17.624  0.00  0.00    +0.000 NA
ATOM     18  C   UNL     1       1.853   8.310  17.624  0.00  0.00    +0.000 C 
ATOM     19  C   UNL     1       1.978   9.826  17.844  0.00  0.00    +0.000 C 
ENDROOT
BRANCH   2  20
ATOM     20  C   UNL     1      -3.157  12.807  20.643  0.00  0.00    +0.000 A 
ATOM     21  C   UNL     1      -3.826  12.846  21.865  0.00  0.00    +0.000 A 
ATOM     22  C   UNL     1      -5.194  12.642  21.862  0.00  0.00    +0.000 A 
ATOM     23  N   UNL     1      -5.917  12.427  20.742  0.00  0.00    +0.000 NA
ATOM     24  C   UNL     1      -5.237  12.346  19.581  0.00  0.00    +0.000 A 
ATOM     25  C   UNL     1      -3.864  12.478  19.487  0.00  0.00    +0.000 A 
ENDBRANCH   2  20
TORSDOF 1
ENDMDL
MODEL 6
REMARK VINA RESULT:      -6.2      3.460      8.569
REMARK  Name = 
REMARK  1 active torsions:
REMARK  status: ('A' for Active; 'I' for Inactive)
REMARK    1  A    between atoms: C_2  and  C_3
REMARK                            x       y       z     vdW  Elec       q    Type
REMARK                         _______ _______ _______ _____ _____    ______ ____
ROOT
ATOM      1  O   UNL     1      -1.594  14.586  21.785  0.00  0.00    +0.000 OA
ATOM      2  C   UNL     1      -1.928  13.443  21.482  0.00  0.00    +0.000 C 
ATOM      3  N   UNL     1      -1.011  12.472  21.059  0.00  0.00    +0.000 N 
ATOM      4  C   UNL     1      -1.355  11.115  20.647  0.00  0.00    +0.000 C 
ATOM      5  C   UNL     1      -0.583  10.669  19.421  0.00  0.00    +0.000 C 
ATOM      6  C   UNL     1       0.939  10.805  19.602  0.00  0.00    +0.000 C 
ATOM      7  C   UNL     1       1.224  12.283  19.966  0.00  0.00    +0.000 C 
ATOM      8  C   UNL     1       0.423  12.764  21.180  0.00  0.00    +0.000 C 
ATOM      9  C   UNL     1       1.490   9.864  20.706  0.00  0.00    +0.000 C 
ATOM     10  C   UNL     1       1.332   8.384  20.349  0.00  0.00    +0.000 C 
ATOM     11  N   UNL     1       1.963   8.164  19.068  0.00  0.00    +0.000 N 
ATOM     12  C   UNL     1       2.716   7.030  18.857  0.00  0.00    +0.000 A 
ATOM     13  N   UNL     1       2.872   6.161  19.864  0.00  0.00    +0.000 NA
ATOM     14  C   UNL     1       3.697   5.111  19.674  0.00  0.00    +0.000 A 
ATOM     15  C   UNL     1       4.386   4.895  18.511  0.00  0.00    +0.000 A 
ATOM     16  C   UNL     1       4.159   5.827  17.526  0.00  0.00    +0.000 A 
ATOM     17  N   UNL     1       3.332   6.877  17.671  0.00  0.00    +0.000 NA
ATOM     18  C   UNL     1       1.511   8.950  17.927  0.00  0.00    +0.000 C 
ATOM     19  C   UNL     1       1.636  10.444  18.266  0.00  0.00    +0.000 C 
ENDROOT
BRANCH   2  20
ATOM     20  C   UNL     1      -3.386  13.130  21.532  0.00  0.00    +0.000 A 
ATOM     21  C   UNL     1      -4.061  12.969  20.323  0.00  0.00    +0.000 A 
ATOM     22  C   UNL     1      -5.395  12.606  20.371  0.00  0.00    +0.000 A 
ATOM     23  N   UNL     1      -6.071  12.381  21.518  0.00  0.00    +0.000 NA
ATOM     24  C   UNL     1      -5.405  12.592  22.671  0.00  0.00    +0.000 A 
ATOM     25  C   UNL     1      -4.089  13.011  22.730  0.00  0.00    +0.000 A 
ENDBRANCH   2  20
TORSDOF 1
ENDMDL
MODEL 7
REMARK VINA RESULT:      -6.2      2.449      8.699
REMARK  Name = 
REMARK  1 active torsions:
REMARK  status: ('A' for Active; 'I' for Inactive)
REMARK    1  A    between atoms: C_2  and  C_3
REMARK                            x       y       z     vdW  Elec       q    Type
REMARK                         _______ _______ _______ _____ _____    ______ ____
ROOT
ATOM      1  O   UNL     1      -1.528  14.915  19.721  0.00  0.00    +0.000 OA
ATOM      2  C   UNL     1      -0.380  14.484  19.813  0.00  0.00    +0.000 C 
ATOM      3  N   UNL     1      -0.066  13.126  19.677  0.00  0.00    +0.000 N 
ATOM      4  C   UNL     1       1.269  12.554  19.818  0.00  0.00    +0.000 C 
ATOM      5  C   UNL     1       1.262  11.253  20.596  0.00  0.00    +0.000 C 
ATOM      6  C   UNL     1       0.295  10.216  19.999  0.00  0.00    +0.000 C 
ATOM      7  C   UNL     1      -1.106  10.874  19.949  0.00  0.00    +0.000 C 
ATOM      8  C   UNL     1      -1.111  12.211  19.201  0.00  0.00    +0.000 C 
ATOM      9  C   UNL     1       0.723   9.757  18.579  0.00  0.00    +0.000 C 
ATOM     10  C   UNL     1       2.054   9.001  18.583  0.00  0.00    +0.000 C 
ATOM     11  N   UNL     1       1.941   7.900  19.510  0.00  0.00    +0.000 N 
ATOM     12  C   UNL     1       2.472   6.671  19.188  0.00  0.00    +0.000 A 
ATOM     13  N   UNL     1       3.064   6.514  17.997  0.00  0.00    +0.000 NA
ATOM     14  C   UNL     1       3.485   5.279  17.655  0.00  0.00    +0.000 A 
ATOM     15  C   UNL     1       3.330   4.181  18.457  0.00  0.00    +0.000 A 
ATOM     16  C   UNL     1       2.725   4.433  19.666  0.00  0.00    +0.000 A 
ATOM     17  N   UNL     1       2.307   5.651  20.050  0.00  0.00    +0.000 NA
ATOM     18  C   UNL     1       1.588   8.191  20.894  0.00  0.00    +0.000 C 
ATOM     19  C   UNL     1       0.264   8.972  20.921  0.00  0.00    +0.000 C 
ENDROOT
BRANCH   2  20
ATOM     20  C   UNL     1       0.688  15.474  20.134  0.00  0.00    +0.000 A 
ATOM     21  C   UNL     1       0.939  15.754  21.477  0.00  0.00    +0.000 A 
ATOM     22  C   UNL     1       1.978  16.615  21.775  0.00  0.00    +0.000 A 
ATOM     23  N   UNL     1       2.773  17.184  20.843  0.00  0.00    +0.000 NA
ATOM     24  C   UNL     1       2.475  16.934  19.552  0.00  0.00    +0.000 A 
ATOM     25  C   UNL     1       1.422  16.134  19.150  0.00  0.00    +0.000 A 
ENDBRANCH   2  20
TORSDOF 1
ENDMDL
MODEL 8
REMARK VINA RESULT:      -6.1      4.531      7.670
REMARK  Name = 
REMARK  1 active torsions:
REMARK  status: ('A' for Active; 'I' for Inactive)
REMARK    1  A    between atoms: C_2  and  C_3
REMARK                            x       y       z     vdW  Elec       q    Type
REMARK                         _______ _______ _______ _____ _____    ______ ____
ROOT
ATOM      1  O   UNL     1       3.037  12.075  17.977  0.00  0.00    +0.000 OA
ATOM      2  C   UNL     1       2.438  12.946  18.605  0.00  0.00    +0.000 C 
ATOM      3  N   UNL     1       1.183  12.733  19.191  0.00  0.00    +0.000 N 
ATOM      4  C   UNL     1       0.410  13.740  19.909  0.00  0.00    +0.000 C 
ATOM      5  C   UNL     1      -1.066  13.691  19.565  0.00  0.00    +0.000 C 
ATOM      6  C   UNL     1      -1.673  12.294  19.780  0.00  0.00    +0.000 C 
ATOM      7  C   UNL     1      -0.843  11.300  18.933  0.00  0.00    +0.000 C 
ATOM      8  C   UNL     1       0.658  11.363  19.238  0.00  0.00    +0.000 C 
ATOM      9  C   UNL     1      -1.662  11.868  21.272  0.00  0.00    +0.000 C 
ATOM     10  C   UNL     1      -2.557  12.753  22.143  0.00  0.00    +0.000 C 
ATOM     11  N   UNL     1      -3.884  12.744  21.575  0.00  0.00    +0.000 N 
ATOM     12  C   UNL     1      -4.985  12.668  22.398  0.00  0.00    +0.000 A 
ATOM     13  N   UNL     1      -4.799  12.575  23.721  0.00  0.00    +0.000 NA
ATOM     14  C   UNL     1      -5.882  12.395  24.504  0.00  0.00    +0.000 A 
ATOM     15  C   UNL     1      -7.157  12.295  24.015  0.00  0.00    +0.000 A 
ATOM     16  C   UNL     1      -7.260  12.414  22.650  0.00  0.00    +0.000 A 
ATOM     17  N   UNL     1      -6.207  12.610  21.837  0.00  0.00    +0.000 NA
ATOM     18  C   UNL     1      -4.050  13.166  20.189  0.00  0.00    +0.000 C 
ATOM     19  C   UNL     1      -3.144  12.308  19.292  0.00  0.00    +0.000 C 
ENDROOT
BRANCH   2  20
ATOM     20  C   UNL     1       3.085  14.288  18.679  0.00  0.00    +0.000 A 
ATOM     21  C   UNL     1       2.925  15.152  17.597  0.00  0.00    +0.000 A 
ATOM     22  C   UNL     1       3.462  16.422  17.698  0.00  0.00    +0.000 A 
ATOM     23  N   UNL     1       4.114  16.877  18.790  0.00  0.00    +0.000 NA
ATOM     24  C   UNL     1       4.294  16.003  19.801  0.00  0.00    +0.000 A 
ATOM     25  C   UNL     1       3.847  14.696  19.773  0.00  0.00    +0.000 A 
ENDBRANCH   2  20
TORSDOF 1
ENDMDL
MODEL 9
REMARK VINA RESULT:      -6.1      2.752      3.630
REMARK  Name = 
REMARK  1 active torsions:
REMARK  status: ('A' for Active; 'I' for Inactive)
REMARK    1  A    between atoms: C_2  and  C_3
REMARK                            x       y       z     vdW  Elec       q    Type
REMARK                         _______ _______ _______ _____ _____    ______ ____
ROOT
ATOM      1  O   UNL     1       3.805   7.371  17.274  0.00  0.00    +0.000 OA
ATOM      2  C   UNL     1       2.870   7.259  18.064  0.00  0.00    +0.000 C 
ATOM      3  N   UNL     1       2.050   8.335  18.428  0.00  0.00    +0.000 N 
ATOM      4  C   UNL     1       0.955   8.269  19.390  0.00  0.00    +0.000 C 
ATOM      5  C   UNL     1       0.920   9.474  20.310  0.00  0.00    +0.000 C 
ATOM      6  C   UNL     1       0.875  10.803  19.537  0.00  0.00    +0.000 C 
ATOM      7  C   UNL     1       2.103  10.824  18.595  0.00  0.00    +0.000 C 
ATOM      8  C   UNL     1       2.178   9.594  17.684  0.00  0.00    +0.000 C 
ATOM      9  C   UNL     1      -0.433  10.967  18.718  0.00  0.00    +0.000 C 
ATOM     10  C   UNL     1      -1.675  11.063  19.608  0.00  0.00    +0.000 C 
ATOM     11  N   UNL     1      -1.471  12.140  20.547  0.00  0.00    +0.000 N 
ATOM     12  C   UNL     1      -2.506  12.997  20.848  0.00  0.00    +0.000 A 
ATOM     13  N   UNL     1      -3.685  12.828  20.235  0.00  0.00    +0.000 NA
ATOM     14  C   UNL     1      -4.654  13.738  20.461  0.00  0.00    +0.000 A 
ATOM     15  C   UNL     1      -4.492  14.825  21.276  0.00  0.00    +0.000 A 
ATOM     16  C   UNL     1      -3.257  14.916  21.875  0.00  0.00    +0.000 A 
ATOM     17  N   UNL     1      -2.271  14.022  21.688  0.00  0.00    +0.000 NA
ATOM     18  C   UNL     1      -0.301  12.092  21.416  0.00  0.00    +0.000 C 
ATOM     19  C   UNL     1       0.963  11.973  20.549  0.00  0.00    +0.000 C 
ENDROOT
BRANCH   2  20
ATOM     20  C   UNL     1       2.663   5.915  18.678  0.00  0.00    +0.000 A 
ATOM     21  C   UNL     1       1.815   5.021  18.026  0.00  0.00    +0.000 A 
ATOM     22  C   UNL     1       1.682   3.751  18.556  0.00  0.00    +0.000 A 
ATOM     23  N   UNL     1       2.340   3.325  19.656  0.00  0.00    +0.000 NA
ATOM     24  C   UNL     1       3.114   4.226  20.293  0.00  0.00    +0.000 A 
ATOM     25  C   UNL     1       3.267   5.535  19.876  0.00  0.00    +0.000 A 
ENDBRANCH   2  20
TORSDOF 1
ENDMDL
