MODEL 1
REMARK VINA RESULT:      -7.1      0.000      0.000
REMARK  Name = 
REMARK  5 active torsions:
REMARK  status: ('A' for Active; 'I' for Inactive)
REMARK    1  A    between atoms: C_1  and  C_2
REMARK    2  A    between atoms: C_8  and  C_9
REMARK    3  A    between atoms: C_11  and  N_12
REMARK    4  A    between atoms: C_16  and  C_17
REMARK    5  A    between atoms: N_19  and  C_20
REMARK                            x       y       z     vdW  Elec       q    Type
REMARK                         _______ _______ _______ _____ _____    ______ ____
ROOT
ATOM      1  C   UNL     1      -0.925  17.686  18.828  0.00  0.00    +0.000 C 
ATOM      2  C   UNL     1       0.284  17.013  18.200  0.00  0.00    +0.000 C 
ATOM      3  O   UNL     1       0.903  17.613  17.319  0.00  0.00    +0.000 OA
ATOM      4  N   UNL     1       0.657  15.714  18.707  0.00  0.00    +0.000 N 
ATOM      5  C   UNL     1      -0.332  14.639  19.911  0.00  0.00    +0.000 C 
ATOM      6  O   UNL     1      -1.543  14.783  20.080  0.00  0.00    +0.000 OA
ATOM      7  C   UNL     1       1.148  13.591  20.903  0.00  0.00    +0.000 C 
ATOM      8  C   UNL     1       1.693  13.821  19.769  0.00  0.00    +0.000 C 
ATOM      9  C   UNL     1       0.945  13.264  18.575  0.00  0.00    +0.000 C 
ATOM     10  O   UNL     1       1.295  11.967  18.231  0.00  0.00    +0.000 OA
ATOM     11  C   UNL     1       0.743  11.271  19.227  0.00  0.00    +0.000 A 
ATOM     12  C   UNL     1       0.935  11.776  20.591  0.00  0.00    +0.000 A 
ATOM     13  C   UNL     1       0.085  10.702  21.125  0.00  0.00    +0.000 A 
ATOM     14  C   UNL     1       0.258   9.127  20.921  0.00  0.00    +0.000 C 
ATOM     15  N   UNL     1      -1.088  11.074  20.589  0.00  0.00    +0.000 NA
ATOM     16  N   UNL     1      -0.752  10.887  19.233  0.00  0.00    +0.000 N 
ATOM     17  C   UNL     1       2.976  14.284  20.179  0.00  0.00    +0.000 A 
ATOM     18  C   UNL     1       3.995  14.659  21.082  0.00  0.00    +0.000 A 
ATOM     19  C   UNL     1       4.578  15.948  20.863  0.00  0.00    +0.000 A 
ATOM     20  C   UNL     1       4.234  16.919  19.840  0.00  0.00    +0.000 A 
ATOM     21  C   UNL     1       3.231  16.741  18.824  0.00  0.00    +0.000 A 
ATOM     22  C   UNL     1       2.516  15.564  18.908  0.00  0.00    +0.000 A 
ENDROOT
BRANCH  16  23
ATOM     23  C   UNL     1      -1.884  10.886  18.283  0.00  0.00    +0.000 A 
ATOM     24  C   UNL     1      -1.717  10.083  17.113  0.00  0.00    +0.000 A 
ATOM     25  C   UNL     1      -2.667  10.008  16.088  0.00  0.00    +0.000 A 
ATOM     26  C   UNL     1      -3.825  10.753  16.190  0.00  0.00    +0.000 A 
ATOM     27  C   UNL     1      -4.070  11.464  17.376  0.00  0.00    +0.000 A 
ATOM     28  C   UNL     1      -3.125  11.506  18.439  0.00  0.00    +0.000 A 
ENDBRANCH  16  23
BRANCH   9  29
ATOM     29  N   UNL     1      -0.537  13.228  18.345  0.00  0.00    +0.000 N 
ATOM     30  H   UNL     1      -1.284  13.379  19.027  0.00  0.00    +0.000 HD
ATOM     31  H   UNL     1      -0.782  12.210  18.187  0.00  0.00    +0.000 HD
ENDBRANCH   9  29
BRANCH   8  32
ATOM     32  C   UNL     1       1.313  15.109  20.481  0.00  0.00    +0.000 C 
ATOM     33  N   UNL     1       0.999  16.178  21.073  0.00  0.00    +0.000 NA
ENDBRANCH   8  32
TORSDOF 3
ENDMDL
MODEL 2
REMARK VINA RESULT:      -6.7      2.503      3.351
REMARK  Name = 
REMARK  5 active torsions:
REMARK  status: ('A' for Active; 'I' for Inactive)
REMARK    1  A    between atoms: C_1  and  C_2
REMARK    2  A    between atoms: C_8  and  C_9
REMARK    3  A    between atoms: C_11  and  N_12
REMARK    4  A    between atoms: C_16  and  C_17
REMARK    5  A    between atoms: N_19  and  C_20
REMARK                            x       y       z     vdW  Elec       q    Type
REMARK                         _______ _______ _______ _____ _____    ______ ____
ROOT
ATOM      1  C   UNL     1       0.813  18.197  21.922  0.00  0.00    +0.000 C 
ATOM      2  C   UNL     1       0.535  17.699  20.513  0.00  0.00    +0.000 C 
ATOM      3  O   UNL     1       0.290  18.525  19.631  0.00  0.00    +0.000 OA
ATOM      4  N   UNL     1       0.610  16.276  20.288  0.00  0.00    +0.000 N 
ATOM      5  C   UNL     1       0.787  14.926  21.602  0.00  0.00    +0.000 C 
ATOM      6  O   UNL     1       0.483  15.111  22.781  0.00  0.00    +0.000 OA
ATOM      7  C   UNL     1       1.818  13.444  20.594  0.00  0.00    +0.000 C 
ATOM      8  C   UNL     1       1.192  14.031  19.647  0.00  0.00    +0.000 C 
ATOM      9  C   UNL     1      -0.317  14.042  19.784  0.00  0.00    +0.000 C 
ATOM     10  O   UNL     1      -0.953  12.944  19.225  0.00  0.00    +0.000 OA
ATOM     11  C   UNL     1      -0.623  11.980  20.087  0.00  0.00    +0.000 A 
ATOM     12  C   UNL     1       0.777  11.911  20.519  0.00  0.00    +0.000 A 
ATOM     13  C   UNL     1       0.458  10.802  21.429  0.00  0.00    +0.000 A 
ATOM     14  C   UNL     1      -0.242   9.412  21.067  0.00  0.00    +0.000 C 
ATOM     15  N   UNL     1      -0.326  11.459  22.298  0.00  0.00    +0.000 NA
ATOM     16  N   UNL     1      -1.382  11.767  21.414  0.00  0.00    +0.000 N 
ATOM     17  C   UNL     1       2.237  14.180  18.691  0.00  0.00    +0.000 A 
ATOM     18  C   UNL     1       3.547  14.086  18.171  0.00  0.00    +0.000 A 
ATOM     19  C   UNL     1       4.100  15.300  17.651  0.00  0.00    +0.000 A 
ATOM     20  C   UNL     1       3.483  16.614  17.611  0.00  0.00    +0.000 A 
ATOM     21  C   UNL     1       2.161  16.930  18.083  0.00  0.00    +0.000 A 
ATOM     22  C   UNL     1       1.486  15.883  18.676  0.00  0.00    +0.000 A 
ENDROOT
BRANCH  16  23
ATOM     23  C   UNL     1      -2.634  12.234  22.044  0.00  0.00    +0.000 A 
ATOM     24  C   UNL     1      -2.625  12.310  23.470  0.00  0.00    +0.000 A 
ATOM     25  C   UNL     1      -3.739  12.683  24.230  0.00  0.00    +0.000 A 
ATOM     26  C   UNL     1      -4.923  12.983  23.583  0.00  0.00    +0.000 A 
ATOM     27  C   UNL     1      -4.934  13.026  22.179  0.00  0.00    +0.000 A 
ATOM     28  C   UNL     1      -3.788  12.690  21.405  0.00  0.00    +0.000 A 
ENDBRANCH  16  23
BRANCH   9  29
ATOM     29  N   UNL     1      -1.132  14.238  21.028  0.00  0.00    +0.000 N 
ATOM     30  H   UNL     1      -0.846  14.088  21.999  0.00  0.00    +0.000 HD
ATOM     31  H   UNL     1      -1.843  13.454  21.037  0.00  0.00    +0.000 HD
ENDBRANCH   9  29
BRANCH   8  32
ATOM     32  C   UNL     1       2.117  14.985  20.385  0.00  0.00    +0.000 C 
ATOM     33  N   UNL     1       2.886  15.776  20.998  0.00  0.00    +0.000 NA
ENDBRANCH   8  32
TORSDOF 3
ENDMDL
MODEL 3
REMARK VINA RESULT:      -6.5      3.774      5.767
REMARK  Name = 
REMARK  5 active torsions:
REMARK  status: ('A' for Active; 'I' for Inactive)
REMARK    1  A    between atoms: C_1  and  C_2
REMARK    2  A    between atoms: C_8  and  C_9
REMARK    3  A    between atoms: C_11  and  N_12
REMARK    4  A    between atoms: C_16  and  C_17
REMARK    5  A    between atoms: N_19  and  C_20
REMARK                            x       y       z     vdW  Elec       q    Type
REMARK                         _______ _______ _______ _____ _____    ______ ____
ROOT
ATOM      1  C   UNL     1       1.115  14.771  19.316  0.00  0.00    +0.000 C 
ATOM      2  C   UNL     1       0.366  13.459  19.144  0.00  0.00    +0.000 C 
ATOM      3  O   UNL     1       0.739  12.676  18.268  0.00  0.00    +0.000 OA
ATOM      4  N   UNL     1      -0.723  13.195  20.053  0.00  0.00    +0.000 N 
ATOM      5  C   UNL     1      -1.485  14.405  21.294  0.00  0.00    +0.000 C 
ATOM      6  O   UNL     1      -1.369  15.625  21.180  0.00  0.00    +0.000 OA
ATOM      7  C   UNL     1      -2.138  13.153  22.805  0.00  0.00    +0.000 C 
ATOM      8  C   UNL     1      -2.195  12.392  21.778  0.00  0.00    +0.000 C 
ATOM      9  C   UNL     1      -3.096  12.884  20.664  0.00  0.00    +0.000 C 
ATOM     10  O   UNL     1      -4.416  12.471  20.768  0.00  0.00    +0.000 OA
ATOM     11  C   UNL     1      -4.846  13.211  21.792  0.00  0.00    +0.000 A 
ATOM     12  C   UNL     1      -3.979  13.298  22.972  0.00  0.00    +0.000 A 
ATOM     13  C   UNL     1      -4.914  14.237  23.609  0.00  0.00    +0.000 A 
ATOM     14  C   UNL     1      -6.472  14.025  23.887  0.00  0.00    +0.000 C 
ATOM     15  N   UNL     1      -4.768  15.279  22.776  0.00  0.00    +0.000 NA
ATOM     16  N   UNL     1      -5.298  14.677  21.615  0.00  0.00    +0.000 N 
ATOM     17  C   UNL     1      -1.566  11.218  22.283  0.00  0.00    +0.000 A 
ATOM     18  C   UNL     1      -0.903  10.401  23.225  0.00  0.00    +0.000 A 
ATOM     19  C   UNL     1       0.310   9.788  22.774  0.00  0.00    +0.000 A 
ATOM     20  C   UNL     1       0.945   9.920  21.476  0.00  0.00    +0.000 A 
ATOM     21  C   UNL     1       0.441  10.699  20.375  0.00  0.00    +0.000 A 
ATOM     22  C   UNL     1      -0.707  11.415  20.643  0.00  0.00    +0.000 A 
ENDROOT
BRANCH  16  23
ATOM     23  C   UNL     1      -5.621  15.595  20.503  0.00  0.00    +0.000 A 
ATOM     24  C   UNL     1      -6.479  15.070  19.490  0.00  0.00    +0.000 A 
ATOM     25  C   UNL     1      -6.844  15.784  18.343  0.00  0.00    +0.000 A 
ATOM     26  C   UNL     1      -6.346  17.059  18.159  0.00  0.00    +0.000 A 
ATOM     27  C   UNL     1      -5.591  17.645  19.188  0.00  0.00    +0.000 A 
ATOM     28  C   UNL     1      -5.256  16.936  20.375  0.00  0.00    +0.000 A 
ENDBRANCH  16  23
BRANCH   9  29
ATOM     29  N   UNL     1      -3.277  14.289  20.172  0.00  0.00    +0.000 N 
ATOM     30  H   UNL     1      -3.957  14.636  19.490  0.00  0.00    +0.000 HD
ATOM     31  H   UNL     1      -2.441  14.491  19.555  0.00  0.00    +0.000 HD
ENDBRANCH   9  29
BRANCH   8  32
ATOM     32  C   UNL     1      -0.785  12.908  22.018  0.00  0.00    +0.000 C 
ATOM     33  N   UNL     1       0.385  13.337  22.218  0.00  0.00    +0.000 NA
ENDBRANCH   8  32
TORSDOF 3
ENDMDL
MODEL 4
REMARK VINA RESULT:      -6.4      2.228      4.358
REMARK  Name = 
REMARK  5 active torsions:
REMARK  status: ('A' for Active; 'I' for Inactive)
REMARK    1  A    between atoms: C_1  and  C_2
REMARK    2  A    between atoms: C_8  and  C_9
REMARK    3  A    between atoms: C_11  and  N_12
REMARK    4  A    between atoms: C_16  and  C_17
REMARK    5  A    between atoms: N_19  and  C_20
REMARK                            x       y       z     vdW  Elec       q    Type
REMARK                         _______ _______ _______ _____ _____    ______ ____
ROOT
ATOM      1  C   UNL     1       4.538  14.910  20.852  0.00  0.00    +0.000 C 
ATOM      2  C   UNL     1       3.443  14.785  21.899  0.00  0.00    +0.000 C 
ATOM      3  O   UNL     1       3.709  15.069  23.069  0.00  0.00    +0.000 OA
ATOM      4  N   UNL     1       2.137  14.371  21.445  0.00  0.00    +0.000 N 
ATOM      5  C   UNL     1       1.684  13.735  19.721  0.00  0.00    +0.000 C 
ATOM      6  O   UNL     1       2.523  13.269  18.949  0.00  0.00    +0.000 OA
ATOM      7  C   UNL     1      -0.285  14.333  19.520  0.00  0.00    +0.000 C 
ATOM      8  C   UNL     1      -0.170  14.199  20.787  0.00  0.00    +0.000 C 
ATOM      9  C   UNL     1       0.230  12.813  21.251  0.00  0.00    +0.000 C 
ATOM     10  O   UNL     1      -0.834  11.953  21.481  0.00  0.00    +0.000 OA
ATOM     11  C   UNL     1      -1.241  11.699  20.235  0.00  0.00    +0.000 A 
ATOM     12  C   UNL     1      -1.365  12.839  19.320  0.00  0.00    +0.000 A 
ATOM     13  C   UNL     1      -1.729  11.935  18.219  0.00  0.00    +0.000 A 
ATOM     14  C   UNL     1      -2.916  10.866  18.186  0.00  0.00    +0.000 C 
ATOM     15  N   UNL     1      -0.564  11.282  18.087  0.00  0.00    +0.000 NA
ATOM     16  N   UNL     1      -0.555  10.642  19.344  0.00  0.00    +0.000 N 
ATOM     17  C   UNL     1      -0.774  15.407  21.238  0.00  0.00    +0.000 A 
ATOM     18  C   UNL     1      -1.402  16.667  21.126  0.00  0.00    +0.000 A 
ATOM     19  C   UNL     1      -0.795  17.733  21.863  0.00  0.00    +0.000 A 
ATOM     20  C   UNL     1       0.394  17.678  22.694  0.00  0.00    +0.000 A 
ATOM     21  C   UNL     1       1.183  16.501  22.944  0.00  0.00    +0.000 A 
ATOM     22  C   UNL     1       0.778  15.370  22.265  0.00  0.00    +0.000 A 
ENDROOT
BRANCH  16  23
ATOM     23  C   UNL     1       0.427   9.549  19.503  0.00  0.00    +0.000 A 
ATOM     24  C   UNL     1       1.247   9.277  18.366  0.00  0.00    +0.000 A 
ATOM     25  C   UNL     1       2.192   8.245  18.327  0.00  0.00    +0.000 A 
ATOM     26  C   UNL     1       2.341   7.429  19.432  0.00  0.00    +0.000 A 
ATOM     27  C   UNL     1       1.630   7.739  20.602  0.00  0.00    +0.000 A 
ATOM     28  C   UNL     1       0.703   8.816  20.658  0.00  0.00    +0.000 A 
ENDBRANCH  16  23
BRANCH   9  29
ATOM     29  N   UNL     1       1.221  11.877  20.625  0.00  0.00    +0.000 N 
ATOM     30  H   UNL     1       2.180  11.682  20.923  0.00  0.00    +0.000 HD
ATOM     31  H   UNL     1       1.515  12.330  19.715  0.00  0.00    +0.000 HD
ENDBRANCH   9  29
BRANCH   8  32
ATOM     32  C   UNL     1       0.809  15.224  20.239  0.00  0.00    +0.000 C 
ATOM     33  N   UNL     1       1.621  16.076  19.784  0.00  0.00    +0.000 NA
ENDBRANCH   8  32
TORSDOF 3
ENDMDL
MODEL 5
REMARK VINA RESULT:      -6.3      2.240      4.033
REMARK  Name = 
REMARK  5 active torsions:
REMARK  status: ('A' for Active; 'I' for Inactive)
REMARK    1  A    between atoms: C_1  and  C_2
REMARK    2  A    between atoms: C_8  and  C_9
REMARK    3  A    between atoms: C_11  and  N_12
REMARK    4  A    between atoms: C_16  and  C_17
REMARK    5  A    between atoms: N_19  and  C_20
REMARK                            x       y       z     vdW  Elec       q    Type
REMARK                         _______ _______ _______ _____ _____    ______ ____
ROOT
ATOM      1  C   UNL     1       5.408  14.834  18.015  0.00  0.00    +0.000 C 
ATOM      2  C   UNL     1       4.913  14.950  19.448  0.00  0.00    +0.000 C 
ATOM      3  O   UNL     1       5.717  15.270  20.326  0.00  0.00    +0.000 OA
ATOM      4  N   UNL     1       3.510  14.712  19.685  0.00  0.00    +0.000 N 
ATOM      5  C   UNL     1       2.248  14.037  18.447  0.00  0.00    +0.000 C 
ATOM      6  O   UNL     1       2.582  13.396  17.449  0.00  0.00    +0.000 OA
ATOM      7  C   UNL     1       0.484  14.914  19.073  0.00  0.00    +0.000 C 
ATOM      8  C   UNL     1       1.156  14.850  20.159  0.00  0.00    +0.000 C 
ATOM      9  C   UNL     1       1.577  13.455  20.572  0.00  0.00    +0.000 C 
ATOM     10  O   UNL     1       0.656  12.786  21.364  0.00  0.00    +0.000 OA
ATOM     11  C   UNL     1      -0.305  12.513  20.478  0.00  0.00    +0.000 A 
ATOM     12  C   UNL     1      -0.717  13.593  19.575  0.00  0.00    +0.000 A 
ATOM     13  C   UNL     1      -1.641  12.683  18.883  0.00  0.00    +0.000 A 
ATOM     14  C   UNL     1      -2.814  11.809  19.525  0.00  0.00    +0.000 C 
ATOM     15  N   UNL     1      -0.744  11.852  18.330  0.00  0.00    +0.000 NA
ATOM     16  N   UNL     1      -0.222  11.305  19.520  0.00  0.00    +0.000 N 
ATOM     17  C   UNL     1       0.959  16.165  20.671  0.00  0.00    +0.000 A 
ATOM     18  C   UNL     1       0.486  17.496  20.689  0.00  0.00    +0.000 A 
ATOM     19  C   UNL     1       1.473  18.504  20.929  0.00  0.00    +0.000 A 
ATOM     20  C   UNL     1       2.899  18.324  21.138  0.00  0.00    +0.000 A 
ATOM     21  C   UNL     1       3.586  17.060  21.160  0.00  0.00    +0.000 A 
ATOM     22  C   UNL     1       2.796  15.961  20.889  0.00  0.00    +0.000 A 
ENDROOT
BRANCH  16  23
ATOM     23  C   UNL     1       0.601  10.088  19.364  0.00  0.00    +0.000 A 
ATOM     24  C   UNL     1       0.708   9.255  20.519  0.00  0.00    +0.000 A 
ATOM     25  C   UNL     1       1.487   8.093  20.562  0.00  0.00    +0.000 A 
ATOM     26  C   UNL     1       2.208   7.727  19.442  0.00  0.00    +0.000 A 
ATOM     27  C   UNL     1       2.037   8.462  18.258  0.00  0.00    +0.000 A 
ATOM     28  C   UNL     1       1.210   9.617  18.200  0.00  0.00    +0.000 A 
ENDBRANCH  16  23
BRANCH   9  29
ATOM     29  N   UNL     1       2.062  12.337  19.697  0.00  0.00    +0.000 N 
ATOM     30  H   UNL     1       1.920  11.332  19.822  0.00  0.00    +0.000 HD
ATOM     31  H   UNL     1       3.109  12.285  19.845  0.00  0.00    +0.000 HD
ENDBRANCH   9  29
BRANCH   8  32
ATOM     32  C   UNL     1       1.873  15.674  19.102  0.00  0.00    +0.000 C 
ATOM     33  N   UNL     1       2.467  16.359  18.225  0.00  0.00    +0.000 NA
ENDBRANCH   8  32
TORSDOF 3
ENDMDL
MODEL 6
REMARK VINA RESULT:      -6.3      1.781      6.964
REMARK  Name = 
REMARK  5 active torsions:
REMARK  status: ('A' for Active; 'I' for Inactive)
REMARK    1  A    between atoms: C_1  and  C_2
REMARK    2  A    between atoms: C_8  and  C_9
REMARK    3  A    between atoms: C_11  and  N_12
REMARK    4  A    between atoms: C_16  and  C_17
REMARK    5  A    between atoms: N_19  and  C_20
REMARK                            x       y       z     vdW  Elec       q    Type
REMARK                         _______ _______ _______ _____ _____    ______ ____
ROOT
ATOM      1  C   UNL     1       1.740   8.425  19.832  0.00  0.00    +0.000 C 
ATOM      2  C   UNL     1       1.264   9.299  18.682  0.00  0.00    +0.000 C 
ATOM      3  O   UNL     1       1.344   8.860  17.533  0.00  0.00    +0.000 OA
ATOM      4  N   UNL     1       0.707  10.588  19.017  0.00  0.00    +0.000 N 
ATOM      5  C   UNL     1       0.716  11.422  20.716  0.00  0.00    +0.000 C 
ATOM      6  O   UNL     1       1.516  11.109  21.599  0.00  0.00    +0.000 OA
ATOM      7  C   UNL     1      -1.006  12.564  20.670  0.00  0.00    +0.000 C 
ATOM      8  C   UNL     1      -0.688  12.503  19.433  0.00  0.00    +0.000 C 
ATOM      9  C   UNL     1       0.681  13.057  19.094  0.00  0.00    +0.000 C 
ATOM     10  O   UNL     1       0.696  14.413  18.802  0.00  0.00    +0.000 OA
ATOM     11  C   UNL     1       0.495  14.946  20.009  0.00  0.00    +0.000 A 
ATOM     12  C   UNL     1      -0.562  14.356  20.839  0.00  0.00    +0.000 A 
ATOM     13  C   UNL     1      -0.221  15.263  21.944  0.00  0.00    +0.000 A 
ATOM     14  C   UNL     1      -0.151  16.859  21.912  0.00  0.00    +0.000 C 
ATOM     15  N   UNL     1       1.000  14.790  22.238  0.00  0.00    +0.000 NA
ATOM     16  N   UNL     1       1.639  15.132  21.028  0.00  0.00    +0.000 N 
ATOM     17  C   UNL     1      -1.946  12.176  18.851  0.00  0.00    +0.000 A 
ATOM     18  C   UNL     1      -3.323  11.861  18.822  0.00  0.00    +0.000 A 
ATOM     19  C   UNL     1      -3.676  10.680  18.094  0.00  0.00    +0.000 A 
ATOM     20  C   UNL     1      -2.791   9.763  17.400  0.00  0.00    +0.000 A 
ATOM     21  C   UNL     1      -1.361   9.894  17.304  0.00  0.00    +0.000 A 
ATOM     22  C   UNL     1      -0.824  10.958  18.000  0.00  0.00    +0.000 A 
ENDROOT
BRANCH  16  23
ATOM     23  C   UNL     1       3.115  15.067  21.039  0.00  0.00    +0.000 A 
ATOM     24  C   UNL     1       3.776  15.727  19.959  0.00  0.00    +0.000 A 
ATOM     25  C   UNL     1       5.165  15.722  19.786  0.00  0.00    +0.000 A 
ATOM     26  C   UNL     1       5.951  15.034  20.691  0.00  0.00    +0.000 A 
ATOM     27  C   UNL     1       5.342  14.469  21.823  0.00  0.00    +0.000 A 
ATOM     28  C   UNL     1       3.935  14.512  22.023  0.00  0.00    +0.000 A 
ENDBRANCH  16  23
BRANCH   9  29
ATOM     29  N   UNL     1       1.954  12.921  19.876  0.00  0.00    +0.000 N 
ATOM     30  H   UNL     1       2.915  12.973  19.529  0.00  0.00    +0.000 HD
ATOM     31  H   UNL     1       2.024  11.899  20.142  0.00  0.00    +0.000 HD
ENDBRANCH   9  29
BRANCH   8  32
ATOM     32  C   UNL     1      -0.921  11.121  20.022  0.00  0.00    +0.000 C 
ATOM     33  N   UNL     1      -1.115   9.975  20.512  0.00  0.00    +0.000 NA
ENDBRANCH   8  32
TORSDOF 3
ENDMDL
MODEL 7
REMARK VINA RESULT:      -6.3      2.046      4.133
REMARK  Name = 
REMARK  5 active torsions:
REMARK  status: ('A' for Active; 'I' for Inactive)
REMARK    1  A    between atoms: C_1  and  C_2
REMARK    2  A    between atoms: C_8  and  C_9
REMARK    3  A    between atoms: C_11  and  N_12
REMARK    4  A    between atoms: C_16  and  C_17
REMARK    5  A    between atoms: N_19  and  C_20
REMARK                            x       y       z     vdW  Elec       q    Type
REMARK                         _______ _______ _______ _____ _____    ______ ____
ROOT
ATOM      1  C   UNL     1       4.976  14.778  19.270  0.00  0.00    +0.000 C 
ATOM      2  C   UNL     1       4.014  14.971  20.432  0.00  0.00    +0.000 C 
ATOM      3  O   UNL     1       4.441  15.470  21.476  0.00  0.00    +0.000 OA
ATOM      4  N   UNL     1       2.639  14.586  20.224  0.00  0.00    +0.000 N 
ATOM      5  C   UNL     1       1.937  13.644  18.740  0.00  0.00    +0.000 C 
ATOM      6  O   UNL     1       2.643  12.956  18.002  0.00  0.00    +0.000 OA
ATOM      7  C   UNL     1      -0.002  14.354  18.629  0.00  0.00    +0.000 C 
ATOM      8  C   UNL     1       0.262  14.479  19.873  0.00  0.00    +0.000 C 
ATOM      9  C   UNL     1       0.631  13.193  20.583  0.00  0.00    +0.000 C 
ATOM     10  O   UNL     1      -0.447  12.496  21.109  0.00  0.00    +0.000 OA
ATOM     11  C   UNL     1      -1.021  12.022  20.001  0.00  0.00    +0.000 A 
ATOM     12  C   UNL     1      -1.188  12.951  18.878  0.00  0.00    +0.000 A 
ATOM     13  C   UNL     1      -1.741  11.871  18.047  0.00  0.00    +0.000 A 
ATOM     14  C   UNL     1      -2.985  10.926  18.377  0.00  0.00    +0.000 C 
ATOM     15  N   UNL     1      -0.643  11.107  17.935  0.00  0.00    +0.000 NA
ATOM     16  N   UNL     1      -0.516  10.747  19.292  0.00  0.00    +0.000 N 
ATOM     17  C   UNL     1      -0.206  15.803  20.112  0.00  0.00    +0.000 A 
ATOM     18  C   UNL     1      -0.765  17.061  19.797  0.00  0.00    +0.000 A 
ATOM     19  C   UNL     1      -0.007  18.202  20.214  0.00  0.00    +0.000 A 
ATOM     20  C   UNL     1       1.271  18.219  20.902  0.00  0.00    +0.000 A 
ATOM     21  C   UNL     1       2.012  17.057  21.316  0.00  0.00    +0.000 A 
ATOM     22  C   UNL     1       1.457  15.848  20.948  0.00  0.00    +0.000 A 
ENDROOT
BRANCH  16  23
ATOM     23  C   UNL     1       0.409   9.630  19.579  0.00  0.00    +0.000 A 
ATOM     24  C   UNL     1       1.258   9.231  18.503  0.00  0.00    +0.000 A 
ATOM     25  C   UNL     1       2.156   8.161  18.585  0.00  0.00    +0.000 A 
ATOM     26  C   UNL     1       2.227   7.433  19.757  0.00  0.00    +0.000 A 
ATOM     27  C   UNL     1       1.488   7.868  20.869  0.00  0.00    +0.000 A 
ATOM     28  C   UNL     1       0.608   8.984  20.800  0.00  0.00    +0.000 A 
ENDBRANCH  16  23
BRANCH   9  29
ATOM     29  N   UNL     1       1.477  12.064  20.073  0.00  0.00    +0.000 N 
ATOM     30  H   UNL     1       1.167  11.179  19.663  0.00  0.00    +0.000 HD
ATOM     31  H   UNL     1       1.899  11.606  20.929  0.00  0.00    +0.000 HD
ENDBRANCH   9  29
BRANCH   8  32
ATOM     32  C   UNL     1       1.225  15.279  19.012  0.00  0.00    +0.000 C 
ATOM     33  N   UNL     1       2.025  15.943  18.297  0.00  0.00    +0.000 NA
ENDBRANCH   8  32
TORSDOF 3
ENDMDL
MODEL 8
REMARK VINA RESULT:      -6.2      1.902      2.642
REMARK  Name = 
REMARK  5 active torsions:
REMARK  status: ('A' for Active; 'I' for Inactive)
REMARK    1  A    between atoms: C_1  and  C_2
REMARK    2  A    between atoms: C_8  and  C_9
REMARK    3  A    between atoms: C_11  and  N_12
REMARK    4  A    between atoms: C_16  and  C_17
REMARK    5  A    between atoms: N_19  and  C_20
REMARK                            x       y       z     vdW  Elec       q    Type
REMARK                         _______ _______ _______ _____ _____    ______ ____
ROOT
ATOM      1  C   UNL     1       2.947  16.252  16.856  0.00  0.00    +0.000 C 
ATOM      2  C   UNL     1       3.683  15.307  17.792  0.00  0.00    +0.000 C 
ATOM      3  O   UNL     1       4.851  15.010  17.533  0.00  0.00    +0.000 OA
ATOM      4  N   UNL     1       2.970  14.840  18.956  0.00  0.00    +0.000 N 
ATOM      5  C   UNL     1       1.131  15.082  19.334  0.00  0.00    +0.000 C 
ATOM      6  O   UNL     1       0.306  15.335  18.456  0.00  0.00    +0.000 OA
ATOM      7  C   UNL     1       1.095  15.120  21.401  0.00  0.00    +0.000 C 
ATOM      8  C   UNL     1       2.119  14.393  21.161  0.00  0.00    +0.000 C 
ATOM      9  C   UNL     1       1.842  13.142  20.352  0.00  0.00    +0.000 C 
ATOM     10  O   UNL     1       1.506  12.030  21.110  0.00  0.00    +0.000 OA
ATOM     11  C   UNL     1       0.276  12.349  21.517  0.00  0.00    +0.000 A 
ATOM     12  C   UNL     1       0.066  13.709  22.025  0.00  0.00    +0.000 A 
ATOM     13  C   UNL     1      -1.369  13.440  22.197  0.00  0.00    +0.000 A 
ATOM     14  C   UNL     1      -2.048  12.258  23.031  0.00  0.00    +0.000 C 
ATOM     15  N   UNL     1      -1.715  13.304  20.908  0.00  0.00    +0.000 NA
ATOM     16  N   UNL     1      -0.967  12.142  20.626  0.00  0.00    +0.000 N 
ATOM     17  C   UNL     1       3.070  14.973  22.049  0.00  0.00    +0.000 A 
ATOM     18  C   UNL     1       3.565  15.876  23.015  0.00  0.00    +0.000 A 
ATOM     19  C   UNL     1       4.793  16.532  22.683  0.00  0.00    +0.000 A 
ATOM     20  C   UNL     1       5.578  16.393  21.469  0.00  0.00    +0.000 A 
ATOM     21  C   UNL     1       5.258  15.530  20.363  0.00  0.00    +0.000 A 
ATOM     22  C   UNL     1       4.064  14.849  20.480  0.00  0.00    +0.000 A 
ENDROOT
BRANCH  16  23
ATOM     23  C   UNL     1      -1.305  11.448  19.366  0.00  0.00    +0.000 A 
ATOM     24  C   UNL     1      -2.419  11.974  18.643  0.00  0.00    +0.000 A 
ATOM     25  C   UNL     1      -2.906  11.408  17.459  0.00  0.00    +0.000 A 
ATOM     26  C   UNL     1      -2.298  10.274  16.957  0.00  0.00    +0.000 A 
ATOM     27  C   UNL     1      -1.134   9.798  17.582  0.00  0.00    +0.000 A 
ATOM     28  C   UNL     1      -0.611  10.399  18.761  0.00  0.00    +0.000 A 
ENDBRANCH  16  23
BRANCH   9  29
ATOM     29  N   UNL     1       0.913  12.981  19.185  0.00  0.00    +0.000 N 
ATOM     30  H   UNL     1       0.588  12.112  18.754  0.00  0.00    +0.000 HD
ATOM     31  H   UNL     1       1.461  13.288  18.333  0.00  0.00    +0.000 HD
ENDBRANCH   9  29
BRANCH   8  32
ATOM     32  C   UNL     1       2.260  15.780  20.556  0.00  0.00    +0.000 C 
ATOM     33  N   UNL     1       2.377  16.931  20.053  0.00  0.00    +0.000 NA
ENDBRANCH   8  32
TORSDOF 3
ENDMDL
MODEL 9
REMARK VINA RESULT:      -6.2      4.327      7.052
REMARK  Name = 
REMARK  5 active torsions:
REMARK  status: ('A' for Active; 'I' for Inactive)
REMARK    1  A    between atoms: C_1  and  C_2
REMARK    2  A    between atoms: C_8  and  C_9
REMARK    3  A    between atoms: C_11  and  N_12
REMARK    4  A    between atoms: C_16  and  C_17
REMARK    5  A    between atoms: N_19  and  C_20
REMARK                            x       y       z     vdW  Elec       q    Type
REMARK                         _______ _______ _______ _____ _____    ______ ____
ROOT
ATOM      1  C   UNL     1      -7.163  12.199  23.701  0.00  0.00    +0.000 C 
ATOM      2  C   UNL     1      -6.908  12.720  22.296  0.00  0.00    +0.000 C 
ATOM      3  O   UNL     1      -7.777  12.555  21.437  0.00  0.00    +0.000 OA
ATOM      4  N   UNL     1      -5.664  13.414  22.063  0.00  0.00    +0.000 N 
ATOM      5  C   UNL     1      -4.199  13.549  23.255  0.00  0.00    +0.000 C 
ATOM      6  O   UNL     1      -4.027  12.754  24.179  0.00  0.00    +0.000 OA
ATOM      7  C   UNL     1      -3.371  15.375  22.749  0.00  0.00    +0.000 C 
ATOM      8  C   UNL     1      -3.911  15.009  21.650  0.00  0.00    +0.000 C 
ATOM      9  C   UNL     1      -3.408  13.691  21.096  0.00  0.00    +0.000 C 
ATOM     10  O   UNL     1      -2.306  13.801  20.261  0.00  0.00    +0.000 OA
ATOM     11  C   UNL     1      -1.341  14.098  21.134  0.00  0.00    +0.000 A 
ATOM     12  C   UNL     1      -1.637  15.119  22.145  0.00  0.00    +0.000 A 
ATOM     13  C   UNL     1      -0.320  14.910  22.763  0.00  0.00    +0.000 A 
ATOM     14  C   UNL     1       1.113  15.000  22.063  0.00  0.00    +0.000 C 
ATOM     15  N   UNL     1      -0.494  13.659  23.216  0.00  0.00    +0.000 NA
ATOM     16  N   UNL     1      -0.625  13.015  21.969  0.00  0.00    +0.000 N 
ATOM     17  C   UNL     1      -4.583  16.206  21.272  0.00  0.00    +0.000 A 
ATOM     18  C   UNL     1      -5.025  17.542  21.392  0.00  0.00    +0.000 A 
ATOM     19  C   UNL     1      -6.432  17.750  21.231  0.00  0.00    +0.000 A 
ATOM     20  C   UNL     1      -7.456  16.752  20.978  0.00  0.00    +0.000 A 
ATOM     21  C   UNL     1      -7.226  15.340  20.822  0.00  0.00    +0.000 A 
ATOM     22  C   UNL     1      -5.918  14.938  21.000  0.00  0.00    +0.000 A 
ENDROOT
BRANCH  16  23
ATOM     23  C   UNL     1      -0.523  11.541  21.991  0.00  0.00    +0.000 A 
ATOM     24  C   UNL     1      -0.082  10.928  20.779  0.00  0.00    +0.000 A 
ATOM     25  C   UNL     1       0.022   9.543  20.609  0.00  0.00    +0.000 A 
ATOM     26  C   UNL     1      -0.330   8.710  21.653  0.00  0.00    +0.000 A 
ATOM     27  C   UNL     1      -0.659   9.283  22.893  0.00  0.00    +0.000 A 
ATOM     28  C   UNL     1      -0.722  10.692  23.080  0.00  0.00    +0.000 A 
ENDBRANCH  16  23
BRANCH   9  29
ATOM     29  N   UNL     1      -3.068  12.439  21.850  0.00  0.00    +0.000 N 
ATOM     30  H   UNL     1      -2.166  12.171  22.252  0.00  0.00    +0.000 HD
ATOM     31  H   UNL     1      -3.067  11.660  21.133  0.00  0.00    +0.000 HD
ENDBRANCH   9  29
BRANCH   8  32
ATOM     32  C   UNL     1      -4.934  15.123  22.768  0.00  0.00    +0.000 C 
ATOM     33  N   UNL     1      -5.784  15.218  23.696  0.00  0.00    +0.000 NA
ENDBRANCH   8  32
TORSDOF 3
ENDMDL
