MODEL 1
REMARK VINA RESULT:      -7.2      0.000      0.000
REMARK  Name = 
REMARK  4 active torsions:
REMARK  status: ('A' for Active; 'I' for Inactive)
REMARK    1  A    between atoms: N_1  and  C_2
REMARK    2  A    between atoms: C_6  and  C_7
REMARK    3  A    between atoms: C_10  and  C_11
REMARK    4  A    between atoms: C_11  and  N_12
REMARK                            x       y       z     vdW  Elec       q    Type
REMARK                         _______ _______ _______ _____ _____    ______ ____
ROOT
ATOM      1  C   UNL     1       5.402   5.036  15.898  0.00  0.00    +0.000 A 
ATOM      2  C   UNL     1       5.365   4.049  16.848  0.00  0.00    +0.000 A 
ATOM      3  C   UNL     1       4.734   4.287  18.053  0.00  0.00    +0.000 A 
ATOM      4  C   UNL     1       4.144   5.535  18.303  0.00  0.00    +0.000 A 
ATOM      5  C   UNL     1       4.253   6.480  17.297  0.00  0.00    +0.000 A 
ATOM      6  N   UNL     1       4.864   6.273  16.101  0.00  0.00    +0.000 NA
ENDROOT
BRANCH   1  11
ATOM      7  C   UNL     1       6.222   3.523  12.558  0.00  0.00    +0.000 A 
ATOM      8  C   UNL     1       7.397   4.240  12.314  0.00  0.00    +0.000 A 
ATOM      9  N   UNL     1       7.869   5.243  13.088  0.00  0.00    +0.000 NA
ATOM     10  C   UNL     1       7.186   5.497  14.220  0.00  0.00    +0.000 A 
ATOM     11  C   UNL     1       6.049   4.807  14.613  0.00  0.00    +0.000 A 
ATOM     12  C   UNL     1       5.563   3.815  13.738  0.00  0.00    +0.000 A 
BRANCH   7  13
ATOM     13  N   UNL     1       5.856   2.385  11.829  0.00  0.00    +0.000 N 
ATOM     14  H   UNL     1       5.480   1.634  12.401  0.00  0.00    +0.000 HD
ATOM     15  H   UNL     1       6.559   2.059  11.179  0.00  0.00    +0.000 HD
ENDBRANCH   7  13
ENDBRANCH   1  11
BRANCH   4  16
ATOM     16  C   UNL     1       3.379   5.840  19.575  0.00  0.00    +0.000 C 
BRANCH  16  17
ATOM     17  N   UNL     1       2.202   4.982  19.838  0.00  0.00    +0.000 NA
ATOM     18  C   UNL     1       1.762   4.287  18.618  0.00  0.00    +0.000 C 
ATOM     19  C   UNL     1       0.792   3.128  18.840  0.00  0.00    +0.000 C 
ATOM     20  C   UNL     1       1.266   2.198  19.946  0.00  0.00    +0.000 C 
ATOM     21  C   UNL     1       1.447   2.994  21.226  0.00  0.00    +0.000 C 
ATOM     22  C   UNL     1       2.425   4.156  21.038  0.00  0.00    +0.000 C 
ENDBRANCH  16  17
ENDBRANCH   4  16
TORSDOF 4
ENDMDL
MODEL 2
REMARK VINA RESULT:      -7.2      4.753      8.182
REMARK  Name = 
REMARK  4 active torsions:
REMARK  status: ('A' for Active; 'I' for Inactive)
REMARK    1  A    between atoms: N_1  and  C_2
REMARK    2  A    between atoms: C_6  and  C_7
REMARK    3  A    between atoms: C_10  and  C_11
REMARK    4  A    between atoms: C_11  and  N_12
REMARK                            x       y       z     vdW  Elec       q    Type
REMARK                         _______ _______ _______ _____ _____    ______ ____
ROOT
ATOM      1  C   UNL     1       1.183   9.300  19.500  0.00  0.00    +0.000 A 
ATOM      2  C   UNL     1       1.603   9.353  18.197  0.00  0.00    +0.000 A 
ATOM      3  C   UNL     1       2.344   8.311  17.676  0.00  0.00    +0.000 A 
ATOM      4  C   UNL     1       2.673   7.211  18.483  0.00  0.00    +0.000 A 
ATOM      5  C   UNL     1       2.230   7.255  19.794  0.00  0.00    +0.000 A 
ATOM      6  N   UNL     1       1.495   8.264  20.331  0.00  0.00    +0.000 NA
ENDROOT
BRANCH   1  11
ATOM      7  C   UNL     1      -1.459  11.945  19.873  0.00  0.00    +0.000 A 
ATOM      8  C   UNL     1      -0.961  12.541  21.035  0.00  0.00    +0.000 A 
ATOM      9  N   UNL     1       0.085  12.080  21.758  0.00  0.00    +0.000 NA
ATOM     10  C   UNL     1       0.736  11.014  21.252  0.00  0.00    +0.000 A 
ATOM     11  C   UNL     1       0.388  10.380  20.070  0.00  0.00    +0.000 A 
ATOM     12  C   UNL     1      -0.749  10.861  19.391  0.00  0.00    +0.000 A 
BRANCH   7  13
ATOM     13  N   UNL     1      -2.433  12.544  19.064  0.00  0.00    +0.000 N 
ATOM     14  H   UNL     1      -2.290  13.538  18.917  0.00  0.00    +0.000 HD
ATOM     15  H   UNL     1      -3.386  12.325  19.325  0.00  0.00    +0.000 HD
ENDBRANCH   7  13
ENDBRANCH   1  11
BRANCH   4  16
ATOM     16  C   UNL     1       3.424   6.005  17.957  0.00  0.00    +0.000 C 
BRANCH  16  17
ATOM     17  N   UNL     1       3.072   4.707  18.577  0.00  0.00    +0.000 NA
ATOM     18  C   UNL     1       2.129   3.952  17.738  0.00  0.00    +0.000 C 
ATOM     19  C   UNL     1       1.970   2.476  18.099  0.00  0.00    +0.000 C 
ATOM     20  C   UNL     1       3.314   1.792  18.288  0.00  0.00    +0.000 C 
ATOM     21  C   UNL     1       4.100   2.523  19.363  0.00  0.00    +0.000 C 
ATOM     22  C   UNL     1       4.288   4.003  19.022  0.00  0.00    +0.000 C 
ENDBRANCH  16  17
ENDBRANCH   4  16
TORSDOF 4
ENDMDL
MODEL 3
REMARK VINA RESULT:      -7.2      4.875      6.986
REMARK  Name = 
REMARK  4 active torsions:
REMARK  status: ('A' for Active; 'I' for Inactive)
REMARK    1  A    between atoms: N_1  and  C_2
REMARK    2  A    between atoms: C_6  and  C_7
REMARK    3  A    between atoms: C_10  and  C_11
REMARK    4  A    between atoms: C_11  and  N_12
REMARK                            x       y       z     vdW  Elec       q    Type
REMARK                         _______ _______ _______ _____ _____    ______ ____
ROOT
ATOM      1  C   UNL     1       2.571   6.943  19.311  0.00  0.00    +0.000 A 
ATOM      2  C   UNL     1       1.863   7.476  20.356  0.00  0.00    +0.000 A 
ATOM      3  C   UNL     1       1.192   8.670  20.186  0.00  0.00    +0.000 A 
ATOM      4  C   UNL     1       1.246   9.338  18.953  0.00  0.00    +0.000 A 
ATOM      5  C   UNL     1       2.006   8.740  17.963  0.00  0.00    +0.000 A 
ATOM      6  N   UNL     1       2.673   7.564  18.100  0.00  0.00    +0.000 NA
ENDROOT
BRANCH   1  11
ATOM      7  C   UNL     1       5.234   4.311  19.009  0.00  0.00    +0.000 A 
ATOM      8  C   UNL     1       4.503   3.246  19.544  0.00  0.00    +0.000 A 
ATOM      9  N   UNL     1       3.272   3.348  20.093  0.00  0.00    +0.000 NA
ATOM     10  C   UNL     1       2.688   4.560  20.031  0.00  0.00    +0.000 A 
ATOM     11  C   UNL     1       3.277   5.677  19.458  0.00  0.00    +0.000 A 
ATOM     12  C   UNL     1       4.586   5.531  18.960  0.00  0.00    +0.000 A 
BRANCH   7  13
ATOM     13  N   UNL     1       6.430   4.137  18.302  0.00  0.00    +0.000 N 
ATOM     14  H   UNL     1       7.105   4.883  18.446  0.00  0.00    +0.000 HD
ATOM     15  H   UNL     1       6.310   3.910  17.323  0.00  0.00    +0.000 HD
ENDBRANCH   7  13
ENDBRANCH   1  11
BRANCH   4  16
ATOM     16  C   UNL     1       0.480  10.616  18.679  0.00  0.00    +0.000 C 
BRANCH  16  17
ATOM     17  N   UNL     1      -0.996  10.503  18.723  0.00  0.00    +0.000 NA
ATOM     18  C   UNL     1      -1.616  11.765  19.157  0.00  0.00    +0.000 C 
ATOM     19  C   UNL     1      -3.119  11.873  18.908  0.00  0.00    +0.000 C 
ATOM     20  C   UNL     1      -3.490  11.455  17.495  0.00  0.00    +0.000 C 
ATOM     21  C   UNL     1      -3.010  10.036  17.250  0.00  0.00    +0.000 C 
ATOM     22  C   UNL     1      -1.504   9.898  17.479  0.00  0.00    +0.000 C 
ENDBRANCH  16  17
ENDBRANCH   4  16
TORSDOF 4
ENDMDL
MODEL 4
REMARK VINA RESULT:      -7.2      3.844      8.278
REMARK  Name = 
REMARK  4 active torsions:
REMARK  status: ('A' for Active; 'I' for Inactive)
REMARK    1  A    between atoms: N_1  and  C_2
REMARK    2  A    between atoms: C_6  and  C_7
REMARK    3  A    between atoms: C_10  and  C_11
REMARK    4  A    between atoms: C_11  and  N_12
REMARK                            x       y       z     vdW  Elec       q    Type
REMARK                         _______ _______ _______ _____ _____    ______ ____
ROOT
ATOM      1  C   UNL     1       1.760   7.958  19.707  0.00  0.00    +0.000 A 
ATOM      2  C   UNL     1       2.351   8.115  18.481  0.00  0.00    +0.000 A 
ATOM      3  C   UNL     1       3.069   7.072  17.931  0.00  0.00    +0.000 A 
ATOM      4  C   UNL     1       3.200   5.863  18.632  0.00  0.00    +0.000 A 
ATOM      5  C   UNL     1       2.593   5.803  19.874  0.00  0.00    +0.000 A 
ATOM      6  N   UNL     1       1.877   6.811  20.438  0.00  0.00    +0.000 NA
ENDROOT
BRANCH   1  11
ATOM      7  C   UNL     1      -0.212   9.944  22.213  0.00  0.00    +0.000 A 
ATOM      8  C   UNL     1      -0.645  10.954  21.348  0.00  0.00    +0.000 A 
ATOM      9  N   UNL     1      -0.252  11.097  20.063  0.00  0.00    +0.000 NA
ATOM     10  C   UNL     1       0.549  10.131  19.572  0.00  0.00    +0.000 A 
ATOM     11  C   UNL     1       0.986   9.038  20.303  0.00  0.00    +0.000 A 
ATOM     12  C   UNL     1       0.600   8.973  21.657  0.00  0.00    +0.000 A 
BRANCH   7  13
ATOM     13  N   UNL     1      -0.768   9.733  23.481  0.00  0.00    +0.000 N 
ATOM     14  H   UNL     1      -1.779   9.638  23.475  0.00  0.00    +0.000 HD
ATOM     15  H   UNL     1      -0.444  10.377  24.192  0.00  0.00    +0.000 HD
ENDBRANCH   7  13
ENDBRANCH   1  11
BRANCH   4  16
ATOM     16  C   UNL     1       3.916   4.657  18.059  0.00  0.00    +0.000 C 
BRANCH  16  17
ATOM     17  N   UNL     1       5.384   4.788  17.917  0.00  0.00    +0.000 NA
ATOM     18  C   UNL     1       5.739   5.541  16.704  0.00  0.00    +0.000 C 
ATOM     19  C   UNL     1       7.184   6.031  16.639  0.00  0.00    +0.000 C 
ATOM     20  C   UNL     1       7.612   6.704  17.933  0.00  0.00    +0.000 C 
ATOM     21  C   UNL     1       7.429   5.734  19.086  0.00  0.00    +0.000 C 
ATOM     22  C   UNL     1       5.986   5.234  19.185  0.00  0.00    +0.000 C 
ENDBRANCH  16  17
ENDBRANCH   4  16
TORSDOF 4
ENDMDL
MODEL 5
REMARK VINA RESULT:      -7.2      4.291      8.847
REMARK  Name = 
REMARK  4 active torsions:
REMARK  status: ('A' for Active; 'I' for Inactive)
REMARK    1  A    between atoms: N_1  and  C_2
REMARK    2  A    between atoms: C_6  and  C_7
REMARK    3  A    between atoms: C_10  and  C_11
REMARK    4  A    between atoms: C_11  and  N_12
REMARK                            x       y       z     vdW  Elec       q    Type
REMARK                         _______ _______ _______ _____ _____    ______ ____
ROOT
ATOM      1  C   UNL     1       1.267   8.454  20.264  0.00  0.00    +0.000 A 
ATOM      2  C   UNL     1       1.677   8.872  19.026  0.00  0.00    +0.000 A 
ATOM      3  C   UNL     1       2.397   8.012  18.221  0.00  0.00    +0.000 A 
ATOM      4  C   UNL     1       2.714   6.722  18.675  0.00  0.00    +0.000 A 
ATOM      5  C   UNL     1       2.282   6.396  19.949  0.00  0.00    +0.000 A 
ATOM      6  N   UNL     1       1.569   7.219  20.762  0.00  0.00    +0.000 NA
ENDROOT
BRANCH   1  11
ATOM      7  C   UNL     1      -0.962  11.263  21.383  0.00  0.00    +0.000 A 
ATOM      8  C   UNL     1      -0.769  11.115  22.760  0.00  0.00    +0.000 A 
ATOM      9  N   UNL     1      -0.073  10.113  23.344  0.00  0.00    +0.000 NA
ATOM     10  C   UNL     1       0.546   9.253  22.512  0.00  0.00    +0.000 A 
ATOM     11  C   UNL     1       0.495   9.336  21.129  0.00  0.00    +0.000 A 
ATOM     12  C   UNL     1      -0.298  10.360  20.574  0.00  0.00    +0.000 A 
BRANCH   7  13
ATOM     13  N   UNL     1      -1.545  12.401  20.812  0.00  0.00    +0.000 N 
ATOM     14  H   UNL     1      -1.141  12.664  19.918  0.00  0.00    +0.000 HD
ATOM     15  H   UNL     1      -1.635  13.188  21.442  0.00  0.00    +0.000 HD
ENDBRANCH   7  13
ENDBRANCH   1  11
BRANCH   4  16
ATOM     16  C   UNL     1       3.442   5.707  17.818  0.00  0.00    +0.000 C 
BRANCH  16  17
ATOM     17  N   UNL     1       4.890   5.948  17.626  0.00  0.00    +0.000 NA
ATOM     18  C   UNL     1       5.667   5.494  18.790  0.00  0.00    +0.000 C 
ATOM     19  C   UNL     1       7.173   5.372  18.563  0.00  0.00    +0.000 C 
ATOM     20  C   UNL     1       7.493   4.628  17.276  0.00  0.00    +0.000 C 
ATOM     21  C   UNL     1       6.833   5.341  16.109  0.00  0.00    +0.000 C 
ATOM     22  C   UNL     1       5.320   5.466  16.301  0.00  0.00    +0.000 C 
ENDBRANCH  16  17
ENDBRANCH   4  16
TORSDOF 4
ENDMDL
MODEL 6
REMARK VINA RESULT:      -7.2      0.649      1.078
REMARK  Name = 
REMARK  4 active torsions:
REMARK  status: ('A' for Active; 'I' for Inactive)
REMARK    1  A    between atoms: N_1  and  C_2
REMARK    2  A    between atoms: C_6  and  C_7
REMARK    3  A    between atoms: C_10  and  C_11
REMARK    4  A    between atoms: C_11  and  N_12
REMARK                            x       y       z     vdW  Elec       q    Type
REMARK                         _______ _______ _______ _____ _____    ______ ____
ROOT
ATOM      1  C   UNL     1       5.453   5.006  15.813  0.00  0.00    +0.000 A 
ATOM      2  C   UNL     1       5.022   6.259  16.158  0.00  0.00    +0.000 A 
ATOM      3  C   UNL     1       4.438   6.463  17.393  0.00  0.00    +0.000 A 
ATOM      4  C   UNL     1       4.279   5.389  18.282  0.00  0.00    +0.000 A 
ATOM      5  C   UNL     1       4.719   4.154  17.838  0.00  0.00    +0.000 A 
ATOM      6  N   UNL     1       5.301   3.924  16.631  0.00  0.00    +0.000 NA
ENDROOT
BRANCH   1  11
ATOM      7  C   UNL     1       6.246   3.448  12.488  0.00  0.00    +0.000 A 
ATOM      8  C   UNL     1       7.406   4.180  12.213  0.00  0.00    +0.000 A 
ATOM      9  N   UNL     1       7.872   5.205  12.960  0.00  0.00    +0.000 NA
ATOM     10  C   UNL     1       7.202   5.467  14.100  0.00  0.00    +0.000 A 
ATOM     11  C   UNL     1       6.084   4.765  14.522  0.00  0.00    +0.000 A 
ATOM     12  C   UNL     1       5.602   3.750  13.673  0.00  0.00    +0.000 A 
BRANCH   7  13
ATOM     13  N   UNL     1       5.889   2.291  11.785  0.00  0.00    +0.000 N 
ATOM     14  H   UNL     1       6.460   2.116  10.963  0.00  0.00    +0.000 HD
ATOM     15  H   UNL     1       4.899   2.206  11.592  0.00  0.00    +0.000 HD
ENDBRANCH   7  13
ENDBRANCH   1  11
BRANCH   4  16
ATOM     16  C   UNL     1       3.709   5.556  19.675  0.00  0.00    +0.000 C 
BRANCH  16  17
ATOM     17  N   UNL     1       2.429   4.858  19.934  0.00  0.00    +0.000 NA
ATOM     18  C   UNL     1       1.841   4.339  18.690  0.00  0.00    +0.000 C 
ATOM     19  C   UNL     1       0.720   3.317  18.873  0.00  0.00    +0.000 C 
ATOM     20  C   UNL     1       1.096   2.239  19.877  0.00  0.00    +0.000 C 
ATOM     21  C   UNL     1       1.447   2.890  21.203  0.00  0.00    +0.000 C 
ATOM     22  C   UNL     1       2.577   3.910  21.053  0.00  0.00    +0.000 C 
ENDBRANCH  16  17
ENDBRANCH   4  16
TORSDOF 4
ENDMDL
MODEL 7
REMARK VINA RESULT:      -7.1      4.905      7.630
REMARK  Name = 
REMARK  4 active torsions:
REMARK  status: ('A' for Active; 'I' for Inactive)
REMARK    1  A    between atoms: N_1  and  C_2
REMARK    2  A    between atoms: C_6  and  C_7
REMARK    3  A    between atoms: C_10  and  C_11
REMARK    4  A    between atoms: C_11  and  N_12
REMARK                            x       y       z     vdW  Elec       q    Type
REMARK                         _______ _______ _______ _____ _____    ______ ____
ROOT
ATOM      1  C   UNL     1       1.185   9.523  18.925  0.00  0.00    +0.000 A 
ATOM      2  C   UNL     1       1.858   8.944  17.882  0.00  0.00    +0.000 A 
ATOM      3  C   UNL     1       2.515   7.745  18.076  0.00  0.00    +0.000 A 
ATOM      4  C   UNL     1       2.499   7.131  19.338  0.00  0.00    +0.000 A 
ATOM      5  C   UNL     1       1.817   7.801  20.340  0.00  0.00    +0.000 A 
ATOM      6  N   UNL     1       1.159   8.979  20.177  0.00  0.00    +0.000 NA
ENDROOT
BRANCH   1  11
ATOM      7  C   UNL     1      -1.547  11.966  18.101  0.00  0.00    +0.000 A 
ATOM      8  C   UNL     1      -0.785  13.135  18.196  0.00  0.00    +0.000 A 
ATOM      9  N   UNL     1       0.499  13.192  18.616  0.00  0.00    +0.000 NA
ATOM     10  C   UNL     1       1.097  12.013  18.873  0.00  0.00    +0.000 A 
ATOM     11  C   UNL     1       0.474  10.781  18.744  0.00  0.00    +0.000 A 
ATOM     12  C   UNL     1      -0.884  10.783  18.367  0.00  0.00    +0.000 A 
BRANCH   7  13
ATOM     13  N   UNL     1      -2.814  11.926  17.506  0.00  0.00    +0.000 N 
ATOM     14  H   UNL     1      -2.807  11.592  16.547  0.00  0.00    +0.000 HD
ATOM     15  H   UNL     1      -3.356  12.774  17.615  0.00  0.00    +0.000 HD
ENDBRANCH   7  13
ENDBRANCH   1  11
BRANCH   4  16
ATOM     16  C   UNL     1       3.140   5.784  19.603  0.00  0.00    +0.000 C 
BRANCH  16  17
ATOM     17  N   UNL     1       2.411   4.609  19.074  0.00  0.00    +0.000 NA
ATOM     18  C   UNL     1       3.076   4.058  17.883  0.00  0.00    +0.000 C 
ATOM     19  C   UNL     1       2.618   2.661  17.468  0.00  0.00    +0.000 C 
ATOM     20  C   UNL     1       2.571   1.706  18.649  0.00  0.00    +0.000 C 
ATOM     21  C   UNL     1       1.652   2.273  19.715  0.00  0.00    +0.000 C 
ATOM     22  C   UNL     1       2.093   3.668  20.163  0.00  0.00    +0.000 C 
ENDBRANCH  16  17
ENDBRANCH   4  16
TORSDOF 4
ENDMDL
MODEL 8
REMARK VINA RESULT:      -7.1      4.760      6.654
REMARK  Name = 
REMARK  4 active torsions:
REMARK  status: ('A' for Active; 'I' for Inactive)
REMARK    1  A    between atoms: N_1  and  C_2
REMARK    2  A    between atoms: C_6  and  C_7
REMARK    3  A    between atoms: C_10  and  C_11
REMARK    4  A    between atoms: C_11  and  N_12
REMARK                            x       y       z     vdW  Elec       q    Type
REMARK                         _______ _______ _______ _____ _____    ______ ____
ROOT
ATOM      1  C   UNL     1       2.748   6.738  18.817  0.00  0.00    +0.000 A 
ATOM      2  C   UNL     1       2.769   7.560  17.721  0.00  0.00    +0.000 A 
ATOM      3  C   UNL     1       2.148   8.792  17.782  0.00  0.00    +0.000 A 
ATOM      4  C   UNL     1       1.493   9.192  18.956  0.00  0.00    +0.000 A 
ATOM      5  C   UNL     1       1.499   8.287  20.003  0.00  0.00    +0.000 A 
ATOM      6  N   UNL     1       2.104   7.070  19.974  0.00  0.00    +0.000 NA
ENDROOT
BRANCH   1  11
ATOM      7  C   UNL     1       3.303   3.055  18.327  0.00  0.00    +0.000 A 
ATOM      8  C   UNL     1       4.562   2.976  18.930  0.00  0.00    +0.000 A 
ATOM      9  N   UNL     1       5.280   4.034  19.371  0.00  0.00    +0.000 NA
ATOM     10  C   UNL     1       4.680   5.237  19.292  0.00  0.00    +0.000 A 
ATOM     11  C   UNL     1       3.405   5.438  18.784  0.00  0.00    +0.000 A 
ATOM     12  C   UNL     1       2.728   4.311  18.279  0.00  0.00    +0.000 A 
BRANCH   7  13
ATOM     13  N   UNL     1       2.523   1.929  18.037  0.00  0.00    +0.000 N 
ATOM     14  H   UNL     1       1.749   2.116  17.407  0.00  0.00    +0.000 HD
ATOM     15  H   UNL     1       2.239   1.395  18.849  0.00  0.00    +0.000 HD
ENDBRANCH   7  13
ENDBRANCH   1  11
BRANCH   4  16
ATOM     16  C   UNL     1       0.851  10.555  19.113  0.00  0.00    +0.000 C 
BRANCH  16  17
ATOM     17  N   UNL     1      -0.627  10.564  19.202  0.00  0.00    +0.000 NA
ATOM     18  C   UNL     1      -1.129  11.877  19.637  0.00  0.00    +0.000 C 
ATOM     19  C   UNL     1      -2.625  12.105  19.430  0.00  0.00    +0.000 C 
ATOM     20  C   UNL     1      -3.072  11.703  18.034  0.00  0.00    +0.000 C 
ATOM     21  C   UNL     1      -2.716  10.246  17.795  0.00  0.00    +0.000 C 
ATOM     22  C   UNL     1      -1.220   9.989  17.982  0.00  0.00    +0.000 C 
ENDBRANCH  16  17
ENDBRANCH   4  16
TORSDOF 4
ENDMDL
MODEL 9
REMARK VINA RESULT:      -7.0      4.676      8.324
REMARK  Name = 
REMARK  4 active torsions:
REMARK  status: ('A' for Active; 'I' for Inactive)
REMARK    1  A    between atoms: N_1  and  C_2
REMARK    2  A    between atoms: C_6  and  C_7
REMARK    3  A    between atoms: C_10  and  C_11
REMARK    4  A    between atoms: C_11  and  N_12
REMARK                            x       y       z     vdW  Elec       q    Type
REMARK                         _______ _______ _______ _____ _____    ______ ____
ROOT
ATOM      1  C   UNL     1       1.121   9.302  19.457  0.00  0.00    +0.000 A 
ATOM      2  C   UNL     1       1.547   9.322  18.155  0.00  0.00    +0.000 A 
ATOM      3  C   UNL     1       2.331   8.290  17.678  0.00  0.00    +0.000 A 
ATOM      4  C   UNL     1       2.694   7.234  18.528  0.00  0.00    +0.000 A 
ATOM      5  C   UNL     1       2.241   7.310  19.833  0.00  0.00    +0.000 A 
ATOM      6  N   UNL     1       1.466   8.311  20.329  0.00  0.00    +0.000 NA
ENDROOT
BRANCH   1  11
ATOM      7  C   UNL     1      -0.921  11.361  21.845  0.00  0.00    +0.000 A 
ATOM      8  C   UNL     1      -1.461  12.249  20.909  0.00  0.00    +0.000 A 
ATOM      9  N   UNL     1      -1.124  12.298  19.601  0.00  0.00    +0.000 NA
ATOM     10  C   UNL     1      -0.265  11.353  19.170  0.00  0.00    +0.000 A 
ATOM     11  C   UNL     1       0.283  10.372  19.981  0.00  0.00    +0.000 A 
ATOM     12  C   UNL     1      -0.052  10.407  21.349  0.00  0.00    +0.000 A 
BRANCH   7  13
ATOM     13  N   UNL     1      -1.416  11.231  23.149  0.00  0.00    +0.000 N 
ATOM     14  H   UNL     1      -1.026  11.902  23.805  0.00  0.00    +0.000 HD
ATOM     15  H   UNL     1      -1.403  10.286  23.510  0.00  0.00    +0.000 HD
ENDBRANCH   7  13
ENDBRANCH   1  11
BRANCH   4  16
ATOM     16  C   UNL     1       3.494   6.038  18.052  0.00  0.00    +0.000 C 
BRANCH  16  17
ATOM     17  N   UNL     1       3.110   4.733  18.638  0.00  0.00    +0.000 NA
ATOM     18  C   UNL     1       2.154   4.021  17.776  0.00  0.00    +0.000 C 
ATOM     19  C   UNL     1       1.961   2.541  18.100  0.00  0.00    +0.000 C 
ATOM     20  C   UNL     1       3.288   1.822  18.278  0.00  0.00    +0.000 C 
ATOM     21  C   UNL     1       4.086   2.508  19.372  0.00  0.00    +0.000 C 
ATOM     22  C   UNL     1       4.308   3.991  19.070  0.00  0.00    +0.000 C 
ENDBRANCH  16  17
ENDBRANCH   4  16
TORSDOF 4
ENDMDL
