MODEL 1
REMARK VINA RESULT:      -6.2      0.000      0.000
REMARK  Name = 
REMARK  1 active torsions:
REMARK  status: ('A' for Active; 'I' for Inactive)
REMARK    1  A    between atoms: C_1  and  C_2
REMARK                            x       y       z     vdW  Elec       q    Type
REMARK                         _______ _______ _______ _____ _____    ______ ____
ROOT
ATOM      1  C   UNL     1       2.977   2.056  17.984  0.00  0.00    +0.000 C 
ATOM      2  C   UNL     1       3.111   2.800  19.323  0.00  0.00    +0.000 C 
ATOM      3  C   UNL     1       2.028   2.294  20.297  0.00  0.00    +0.000 C 
ATOM      4  C   UNL     1       1.385   3.375  21.178  0.00  0.00    +0.000 C 
ATOM      5  C   UNL     1       1.048   4.661  20.410  0.00  0.00    +0.000 C 
ATOM      6  C   UNL     1       2.253   5.155  19.673  0.00  0.00    +0.000 C 
ATOM      7  C   UNL     1       3.170   4.284  19.228  0.00  0.00    +0.000 C 
ATOM      8  C   UNL     1       4.556   4.711  19.026  0.00  0.00    +0.000 C 
ATOM      9  O   UNL     1       4.941   5.816  18.688  0.00  0.00    +0.000 OA
ATOM     10  O   UNL     1       5.322   3.667  19.406  0.00  0.00    +0.000 OA
ATOM     11  C   UNL     1       4.544   2.602  19.763  0.00  0.00    +0.000 C 
ATOM     12  O   UNL     1       4.995   1.583  20.264  0.00  0.00    +0.000 OA
ENDROOT
TORSDOF 0
ENDMDL
MODEL 2
REMARK VINA RESULT:      -6.2      2.474      3.401
REMARK  Name = 
REMARK  1 active torsions:
REMARK  status: ('A' for Active; 'I' for Inactive)
REMARK    1  A    between atoms: C_1  and  C_2
REMARK                            x       y       z     vdW  Elec       q    Type
REMARK                         _______ _______ _______ _____ _____    ______ ____
ROOT
ATOM      1  C   UNL     1       3.265   1.875  18.309  0.00  0.00    +0.000 C 
ATOM      2  C   UNL     1       2.407   3.085  18.713  0.00  0.00    +0.000 C 
ATOM      3  C   UNL     1       2.307   4.059  17.522  0.00  0.00    +0.000 C 
ATOM      4  C   UNL     1       2.370   5.549  17.889  0.00  0.00    +0.000 C 
ATOM      5  C   UNL     1       3.450   5.872  18.930  0.00  0.00    +0.000 C 
ATOM      6  C   UNL     1       3.297   4.985  20.127  0.00  0.00    +0.000 C 
ATOM      7  C   UNL     1       2.796   3.751  19.986  0.00  0.00    +0.000 C 
ATOM      8  C   UNL     1       2.127   3.093  21.111  0.00  0.00    +0.000 C 
ATOM      9  O   UNL     1       2.381   3.226  22.294  0.00  0.00    +0.000 OA
ATOM     10  O   UNL     1       1.098   2.404  20.575  0.00  0.00    +0.000 OA
ATOM     11  C   UNL     1       1.099   2.515  19.213  0.00  0.00    +0.000 C 
ATOM     12  O   UNL     1       0.198   2.088  18.507  0.00  0.00    +0.000 OA
ENDROOT
TORSDOF 0
ENDMDL
MODEL 3
REMARK VINA RESULT:      -6.1      1.900      2.423
REMARK  Name = 
REMARK  1 active torsions:
REMARK  status: ('A' for Active; 'I' for Inactive)
REMARK    1  A    between atoms: C_1  and  C_2
REMARK                            x       y       z     vdW  Elec       q    Type
REMARK                         _______ _______ _______ _____ _____    ______ ____
ROOT
ATOM      1  C   UNL     1       3.659   1.367  18.371  0.00  0.00    +0.000 C 
ATOM      2  C   UNL     1       3.275   2.655  19.118  0.00  0.00    +0.000 C 
ATOM      3  C   UNL     1       3.615   2.496  20.614  0.00  0.00    +0.000 C 
ATOM      4  C   UNL     1       2.590   3.101  21.585  0.00  0.00    +0.000 C 
ATOM      5  C   UNL     1       1.136   2.805  21.193  0.00  0.00    +0.000 C 
ATOM      6  C   UNL     1       0.892   3.202  19.770  0.00  0.00    +0.000 C 
ATOM      7  C   UNL     1       1.891   3.146  18.879  0.00  0.00    +0.000 C 
ATOM      8  C   UNL     1       1.872   4.008  17.695  0.00  0.00    +0.000 C 
ATOM      9  O   UNL     1       0.891   4.396  17.086  0.00  0.00    +0.000 OA
ATOM     10  O   UNL     1       3.153   4.380  17.490  0.00  0.00    +0.000 OA
ATOM     11  C   UNL     1       3.982   3.778  18.394  0.00  0.00    +0.000 C 
ATOM     12  O   UNL     1       5.168   4.050  18.498  0.00  0.00    +0.000 OA
ENDROOT
TORSDOF 0
ENDMDL
MODEL 4
REMARK VINA RESULT:      -6.1      2.626      4.121
REMARK  Name = 
REMARK  1 active torsions:
REMARK  status: ('A' for Active; 'I' for Inactive)
REMARK    1  A    between atoms: C_1  and  C_2
REMARK                            x       y       z     vdW  Elec       q    Type
REMARK                         _______ _______ _______ _____ _____    ______ ____
ROOT
ATOM      1  C   UNL     1       5.359   6.647  16.502  0.00  0.00    +0.000 C 
ATOM      2  C   UNL     1       5.607   5.221  17.021  0.00  0.00    +0.000 C 
ATOM      3  C   UNL     1       4.579   4.263  16.387  0.00  0.00    +0.000 C 
ATOM      4  C   UNL     1       4.031   3.178  17.326  0.00  0.00    +0.000 C 
ATOM      5  C   UNL     1       3.681   3.707  18.724  0.00  0.00    +0.000 C 
ATOM      6  C   UNL     1       4.848   4.443  19.306  0.00  0.00    +0.000 C 
ATOM      7  C   UNL     1       5.704   5.085  18.499  0.00  0.00    +0.000 C 
ATOM      8  C   UNL     1       7.086   5.317  18.926  0.00  0.00    +0.000 C 
ATOM      9  O   UNL     1       7.480   5.505  20.063  0.00  0.00    +0.000 OA
ATOM     10  O   UNL     1       7.843   5.164  17.821  0.00  0.00    +0.000 OA
ATOM     11  C   UNL     1       7.060   4.923  16.727  0.00  0.00    +0.000 C 
ATOM     12  O   UNL     1       7.513   4.623  15.633  0.00  0.00    +0.000 OA
ENDROOT
TORSDOF 0
ENDMDL
MODEL 5
REMARK VINA RESULT:      -6.1      2.399      3.771
REMARK  Name = 
REMARK  1 active torsions:
REMARK  status: ('A' for Active; 'I' for Inactive)
REMARK    1  A    between atoms: C_1  and  C_2
REMARK                            x       y       z     vdW  Elec       q    Type
REMARK                         _______ _______ _______ _____ _____    ______ ____
ROOT
ATOM      1  C   UNL     1       1.706   5.614  20.456  0.00  0.00    +0.000 C 
ATOM      2  C   UNL     1       2.493   4.384  19.976  0.00  0.00    +0.000 C 
ATOM      3  C   UNL     1       3.985   4.754  19.848  0.00  0.00    +0.000 C 
ATOM      4  C   UNL     1       4.708   4.147  18.637  0.00  0.00    +0.000 C 
ATOM      5  C   UNL     1       3.886   4.220  17.342  0.00  0.00    +0.000 C 
ATOM      6  C   UNL     1       2.525   3.635  17.559  0.00  0.00    +0.000 C 
ATOM      7  C   UNL     1       1.950   3.707  18.768  0.00  0.00    +0.000 C 
ATOM      8  C   UNL     1       0.946   2.718  19.167  0.00  0.00    +0.000 C 
ATOM      9  O   UNL     1       0.150   2.148  18.442  0.00  0.00    +0.000 OA
ATOM     10  O   UNL     1       1.163   2.481  20.477  0.00  0.00    +0.000 OA
ATOM     11  C   UNL     1       2.166   3.278  20.952  0.00  0.00    +0.000 C 
ATOM     12  O   UNL     1       2.636   3.164  22.074  0.00  0.00    +0.000 OA
ENDROOT
TORSDOF 0
ENDMDL
MODEL 6
REMARK VINA RESULT:      -6.0      1.088      1.096
REMARK  Name = 
REMARK  1 active torsions:
REMARK  status: ('A' for Active; 'I' for Inactive)
REMARK    1  A    between atoms: C_1  and  C_2
REMARK                            x       y       z     vdW  Elec       q    Type
REMARK                         _______ _______ _______ _____ _____    ______ ____
ROOT
ATOM      1  C   UNL     1       2.632   3.527  17.124  0.00  0.00    +0.000 C 
ATOM      2  C   UNL     1       2.761   3.409  18.651  0.00  0.00    +0.000 C 
ATOM      3  C   UNL     1       1.406   2.971  19.243  0.00  0.00    +0.000 C 
ATOM      4  C   UNL     1       1.025   3.644  20.570  0.00  0.00    +0.000 C 
ATOM      5  C   UNL     1       1.309   5.153  20.588  0.00  0.00    +0.000 C 
ATOM      6  C   UNL     1       2.728   5.418  20.190  0.00  0.00    +0.000 C 
ATOM      7  C   UNL     1       3.350   4.589  19.339  0.00  0.00    +0.000 C 
ATOM      8  C   UNL     1       4.809   4.471  19.360  0.00  0.00    +0.000 C 
ATOM      9  O   UNL     1       5.612   5.345  19.636  0.00  0.00    +0.000 OA
ATOM     10  O   UNL     1       5.076   3.170  19.127  0.00  0.00    +0.000 OA
ATOM     11  C   UNL     1       3.923   2.473  18.896  0.00  0.00    +0.000 C 
ATOM     12  O   UNL     1       3.887   1.257  18.786  0.00  0.00    +0.000 OA
ENDROOT
TORSDOF 0
ENDMDL
MODEL 7
REMARK VINA RESULT:      -6.0      1.906      3.254
REMARK  Name = 
REMARK  1 active torsions:
REMARK  status: ('A' for Active; 'I' for Inactive)
REMARK    1  A    between atoms: C_1  and  C_2
REMARK                            x       y       z     vdW  Elec       q    Type
REMARK                         _______ _______ _______ _____ _____    ______ ____
ROOT
ATOM      1  C   UNL     1       1.305   2.141  18.522  0.00  0.00    +0.000 C 
ATOM      2  C   UNL     1       2.216   3.292  18.980  0.00  0.00    +0.000 C 
ATOM      3  C   UNL     1       1.829   4.579  18.225  0.00  0.00    +0.000 C 
ATOM      4  C   UNL     1       3.008   5.465  17.797  0.00  0.00    +0.000 C 
ATOM      5  C   UNL     1       4.182   4.669  17.208  0.00  0.00    +0.000 C 
ATOM      6  C   UNL     1       4.588   3.576  18.146  0.00  0.00    +0.000 C 
ATOM      7  C   UNL     1       3.676   3.006  18.945  0.00  0.00    +0.000 C 
ATOM      8  C   UNL     1       4.086   2.381  20.205  0.00  0.00    +0.000 C 
ATOM      9  O   UNL     1       5.142   1.819  20.435  0.00  0.00    +0.000 OA
ATOM     10  O   UNL     1       3.107   2.660  21.090  0.00  0.00    +0.000 OA
ATOM     11  C   UNL     1       2.090   3.343  20.486  0.00  0.00    +0.000 C 
ATOM     12  O   UNL     1       1.148   3.821  21.100  0.00  0.00    +0.000 OA
ENDROOT
TORSDOF 0
ENDMDL
MODEL 8
REMARK VINA RESULT:      -6.0      1.575      2.305
REMARK  Name = 
REMARK  1 active torsions:
REMARK  status: ('A' for Active; 'I' for Inactive)
REMARK    1  A    between atoms: C_1  and  C_2
REMARK                            x       y       z     vdW  Elec       q    Type
REMARK                         _______ _______ _______ _____ _____    ______ ____
ROOT
ATOM      1  C   UNL     1       4.436   4.029  16.622  0.00  0.00    +0.000 C 
ATOM      2  C   UNL     1       3.860   3.782  18.026  0.00  0.00    +0.000 C 
ATOM      3  C   UNL     1       3.614   2.271  18.216  0.00  0.00    +0.000 C 
ATOM      4  C   UNL     1       2.331   1.909  18.977  0.00  0.00    +0.000 C 
ATOM      5  C   UNL     1       1.113   2.736  18.541  0.00  0.00    +0.000 C 
ATOM      6  C   UNL     1       1.432   4.198  18.604  0.00  0.00    +0.000 C 
ATOM      7  C   UNL     1       2.687   4.619  18.394  0.00  0.00    +0.000 C 
ATOM      8  C   UNL     1       3.145   5.885  18.972  0.00  0.00    +0.000 C 
ATOM      9  O   UNL     1       2.478   6.883  19.174  0.00  0.00    +0.000 OA
ATOM     10  O   UNL     1       4.426   5.677  19.342  0.00  0.00    +0.000 OA
ATOM     11  C   UNL     1       4.833   4.421  18.990  0.00  0.00    +0.000 C 
ATOM     12  O   UNL     1       5.908   3.948  19.328  0.00  0.00    +0.000 OA
ENDROOT
TORSDOF 0
ENDMDL
MODEL 9
REMARK VINA RESULT:      -6.0      2.268      3.283
REMARK  Name = 
REMARK  1 active torsions:
REMARK  status: ('A' for Active; 'I' for Inactive)
REMARK    1  A    between atoms: C_1  and  C_2
REMARK                            x       y       z     vdW  Elec       q    Type
REMARK                         _______ _______ _______ _____ _____    ______ ____
ROOT
ATOM      1  C   UNL     1       4.357   2.827  19.649  0.00  0.00    +0.000 C 
ATOM      2  C   UNL     1       3.329   3.817  19.077  0.00  0.00    +0.000 C 
ATOM      3  C   UNL     1       3.798   5.258  19.360  0.00  0.00    +0.000 C 
ATOM      4  C   UNL     1       2.685   6.243  19.747  0.00  0.00    +0.000 C 
ATOM      5  C   UNL     1       1.678   5.657  20.747  0.00  0.00    +0.000 C 
ATOM      6  C   UNL     1       1.147   4.352  20.242  0.00  0.00    +0.000 C 
ATOM      7  C   UNL     1       1.915   3.571  19.470  0.00  0.00    +0.000 C 
ATOM      8  C   UNL     1       1.300   2.626  18.534  0.00  0.00    +0.000 C 
ATOM      9  O   UNL     1       0.244   2.036  18.676  0.00  0.00    +0.000 OA
ATOM     10  O   UNL     1       2.082   2.636  17.435  0.00  0.00    +0.000 OA
ATOM     11  C   UNL     1       3.167   3.447  17.621  0.00  0.00    +0.000 C 
ATOM     12  O   UNL     1       3.955   3.723  16.729  0.00  0.00    +0.000 OA
ENDROOT
TORSDOF 0
ENDMDL
