MODEL 1
REMARK VINA RESULT:      -8.5      0.000      0.000
REMARK  Name = 
REMARK  5 active torsions:
REMARK  status: ('A' for Active; 'I' for Inactive)
REMARK    1  A    between atoms: C_1  and  O_2
REMARK    2  A    between atoms: O_2  and  C_3
REMARK    3  A    between atoms: C_10  and  S_11
REMARK    4  A    between atoms: S_11  and  C_12
REMARK    5  A    between atoms: C_13  and  C_14
REMARK                            x       y       z     vdW  Elec       q    Type
REMARK                         _______ _______ _______ _____ _____    ______ ____
ROOT
ATOM      1  C   UNL     1      -0.786  11.313  22.578  0.00  0.00    +0.000 C 
ATOM      2  O   UNL     1      -0.657  10.483  23.450  0.00  0.00    +0.000 OA
ATOM      3  N   UNL     1      -0.339  11.246  21.278  0.00  0.00    +0.000 N 
ATOM      4  C   UNL     1       0.342  10.140  20.841  0.00  0.00    +0.000 A 
ATOM      5  N   UNL     1       0.651   9.056  21.515  0.00  0.00    +0.000 NA
ATOM      6  C   UNL     1       1.302   8.232  20.639  0.00  0.00    +0.000 A 
ATOM      7  C   UNL     1       1.798   6.932  20.816  0.00  0.00    +0.000 A 
ATOM      8  C   UNL     1       2.442   6.289  19.747  0.00  0.00    +0.000 A 
ATOM      9  C   UNL     1       2.601   6.969  18.526  0.00  0.00    +0.000 A 
ATOM     10  C   UNL     1       2.107   8.270  18.330  0.00  0.00    +0.000 A 
ATOM     11  C   UNL     1       1.448   8.854  19.409  0.00  0.00    +0.000 A 
ATOM     12  N   UNL     1       0.807  10.058  19.556  0.00  0.00    +0.000 N 
ATOM     13  H   UNL     1      -0.411  12.064  20.698  0.00  0.00    +0.000 HD
ATOM     14  H   UNL     1       0.688  10.752  18.839  0.00  0.00    +0.000 HD
ENDROOT
BRANCH   1  16
ATOM     15  C   UNL     1      -0.619  13.641  22.366  0.00  0.00    +0.000 C 
ATOM     16  O   UNL     1      -1.411  12.516  22.775  0.00  0.00    +0.000 OA
ENDBRANCH   1  16
BRANCH   8  17
ATOM     17  S   UNL     1       3.144   4.659  20.019  0.00  0.00    +0.000 S 
BRANCH  17  18
ATOM     18  C   UNL     1       3.960   4.252  18.513  0.00  0.00    +0.000 A 
ATOM     19  C   UNL     1       3.612   3.239  17.639  0.00  0.00    +0.000 A 
ATOM     20  C   UNL     1       2.492   2.264  17.637  0.00  0.00    +0.000 C 
ATOM     21  N   UNL     1       4.545   3.234  16.628  0.00  0.00    +0.000 N 
ATOM     22  C   UNL     1       5.493   4.211  16.832  0.00  0.00    +0.000 A 
ATOM     23  C   UNL     1       6.603   4.563  16.051  0.00  0.00    +0.000 A 
ATOM     24  C   UNL     1       7.400   5.620  16.499  0.00  0.00    +0.000 A 
ATOM     25  C   UNL     1       7.099   6.281  17.686  0.00  0.00    +0.000 A 
ATOM     26 CL   UNL     1       8.085   7.601  18.195  0.00  0.00    +0.000 Cl
ATOM     27  C   UNL     1       5.999   5.907  18.466  0.00  0.00    +0.000 A 
ATOM     28  C   UNL     1       5.162   4.858  18.028  0.00  0.00    +0.000 A 
ATOM     29  H   UNL     1       4.537   2.602  15.838  0.00  0.00    +0.000 HD
ENDBRANCH  17  18
ENDBRANCH   8  17
TORSDOF 3
ENDMDL
MODEL 2
REMARK VINA RESULT:      -8.3      5.002      9.145
REMARK  Name = 
REMARK  5 active torsions:
REMARK  status: ('A' for Active; 'I' for Inactive)
REMARK    1  A    between atoms: C_1  and  O_2
REMARK    2  A    between atoms: O_2  and  C_3
REMARK    3  A    between atoms: C_10  and  S_11
REMARK    4  A    between atoms: S_11  and  C_12
REMARK    5  A    between atoms: C_13  and  C_14
REMARK                            x       y       z     vdW  Elec       q    Type
REMARK                         _______ _______ _______ _____ _____    ______ ____
ROOT
ATOM      1  C   UNL     1       3.899   4.882  18.284  0.00  0.00    +0.000 C 
ATOM      2  O   UNL     1       4.051   5.586  17.311  0.00  0.00    +0.000 OA
ATOM      3  N   UNL     1       3.228   5.186  19.446  0.00  0.00    +0.000 N 
ATOM      4  C   UNL     1       2.634   6.411  19.597  0.00  0.00    +0.000 A 
ATOM      5  N   UNL     1       2.596   7.408  18.742  0.00  0.00    +0.000 NA
ATOM      6  C   UNL     1       1.863   8.397  19.338  0.00  0.00    +0.000 A 
ATOM      7  C   UNL     1       1.468   9.651  18.850  0.00  0.00    +0.000 A 
ATOM      8  C   UNL     1       0.709  10.501  19.669  0.00  0.00    +0.000 A 
ATOM      9  C   UNL     1       0.382  10.092  20.975  0.00  0.00    +0.000 A 
ATOM     10  C   UNL     1       0.767   8.838  21.479  0.00  0.00    +0.000 A 
ATOM     11  C   UNL     1       1.489   8.017  20.618  0.00  0.00    +0.000 A 
ATOM     12  N   UNL     1       1.972   6.739  20.750  0.00  0.00    +0.000 N 
ATOM     13  H   UNL     1       3.287   4.548  20.221  0.00  0.00    +0.000 HD
ATOM     14  H   UNL     1       1.847   6.143  21.549  0.00  0.00    +0.000 HD
ENDROOT
BRANCH   1  16
ATOM     15  C   UNL     1       4.020   2.934  19.581  0.00  0.00    +0.000 C 
ATOM     16  O   UNL     1       4.421   3.619  18.385  0.00  0.00    +0.000 OA
ENDBRANCH   1  16
BRANCH   8  17
ATOM     17  S   UNL     1       0.284  12.135  19.057  0.00  0.00    +0.000 S 
BRANCH  17  18
ATOM     18  C   UNL     1      -1.475  12.180  19.046  0.00  0.00    +0.000 A 
ATOM     19  C   UNL     1      -2.291  12.630  20.068  0.00  0.00    +0.000 A 
ATOM     20  C   UNL     1      -1.992  13.233  21.391  0.00  0.00    +0.000 C 
ATOM     21  N   UNL     1      -3.593  12.433  19.667  0.00  0.00    +0.000 N 
ATOM     22  C   UNL     1      -3.638  11.858  18.417  0.00  0.00    +0.000 A 
ATOM     23  C   UNL     1      -4.744  11.502  17.632  0.00  0.00    +0.000 A 
ATOM     24  C   UNL     1      -4.492  10.938  16.378  0.00  0.00    +0.000 A 
ATOM     25  C   UNL     1      -3.186  10.730  15.943  0.00  0.00    +0.000 A 
ATOM     26 CL   UNL     1      -2.910  10.061  14.378  0.00  0.00    +0.000 Cl
ATOM     27  C   UNL     1      -2.091  11.073  16.745  0.00  0.00    +0.000 A 
ATOM     28  C   UNL     1      -2.314  11.666  18.007  0.00  0.00    +0.000 A 
ATOM     29  H   UNL     1      -4.408  12.680  20.212  0.00  0.00    +0.000 HD
ENDBRANCH  17  18
ENDBRANCH   8  17
TORSDOF 3
ENDMDL
MODEL 3
REMARK VINA RESULT:      -8.3      5.667      8.302
REMARK  Name = 
REMARK  5 active torsions:
REMARK  status: ('A' for Active; 'I' for Inactive)
REMARK    1  A    between atoms: C_1  and  O_2
REMARK    2  A    between atoms: O_2  and  C_3
REMARK    3  A    between atoms: C_10  and  S_11
REMARK    4  A    between atoms: S_11  and  C_12
REMARK    5  A    between atoms: C_13  and  C_14
REMARK                            x       y       z     vdW  Elec       q    Type
REMARK                         _______ _______ _______ _____ _____    ______ ____
ROOT
ATOM      1  C   UNL     1      -3.414   9.694  12.941  0.00  0.00    +0.000 C 
ATOM      2  O   UNL     1      -2.206   9.671  13.015  0.00  0.00    +0.000 OA
ATOM      3  N   UNL     1      -4.309  10.097  13.905  0.00  0.00    +0.000 N 
ATOM      4  C   UNL     1      -3.858  10.539  15.121  0.00  0.00    +0.000 A 
ATOM      5  N   UNL     1      -2.617  10.653  15.535  0.00  0.00    +0.000 NA
ATOM      6  C   UNL     1      -2.681  11.165  16.802  0.00  0.00    +0.000 A 
ATOM      7  C   UNL     1      -1.653  11.534  17.683  0.00  0.00    +0.000 A 
ATOM      8  C   UNL     1      -1.981  12.041  18.950  0.00  0.00    +0.000 A 
ATOM      9  C   UNL     1      -3.333  12.144  19.325  0.00  0.00    +0.000 A 
ATOM     10  C   UNL     1      -4.376  11.782  18.453  0.00  0.00    +0.000 A 
ATOM     11  C   UNL     1      -4.001  11.316  17.196  0.00  0.00    +0.000 A 
ATOM     12  N   UNL     1      -4.731  10.933  16.099  0.00  0.00    +0.000 N 
ATOM     13  H   UNL     1      -5.291   9.946  13.749  0.00  0.00    +0.000 HD
ATOM     14  H   UNL     1      -5.733  10.954  16.023  0.00  0.00    +0.000 HD
ENDROOT
BRANCH   1  16
ATOM     15  C   UNL     1      -5.337   9.987  11.634  0.00  0.00    +0.000 C 
ATOM     16  O   UNL     1      -4.106   9.278  11.834  0.00  0.00    +0.000 OA
ENDBRANCH   1  16
BRANCH   8  17
ATOM     17  S   UNL     1      -0.653  12.429  20.094  0.00  0.00    +0.000 S 
BRANCH  17  18
ATOM     18  C   UNL     1      -0.285  10.910  20.905  0.00  0.00    +0.000 A 
ATOM     19  C   UNL     1      -0.666  10.549  22.184  0.00  0.00    +0.000 A 
ATOM     20  C   UNL     1      -1.497  11.233  23.207  0.00  0.00    +0.000 C 
ATOM     21  N   UNL     1      -0.119   9.313  22.439  0.00  0.00    +0.000 N 
ATOM     22  C   UNL     1       0.615   8.871  21.361  0.00  0.00    +0.000 A 
ATOM     23  C   UNL     1       1.322   7.673  21.187  0.00  0.00    +0.000 A 
ATOM     24  C   UNL     1       1.976   7.480  19.967  0.00  0.00    +0.000 A 
ATOM     25  C   UNL     1       1.931   8.455  18.976  0.00  0.00    +0.000 A 
ATOM     26 CL   UNL     1       2.723   8.172  17.470  0.00  0.00    +0.000 Cl
ATOM     27  C   UNL     1       1.237   9.655  19.170  0.00  0.00    +0.000 A 
ATOM     28  C   UNL     1       0.547   9.869  20.383  0.00  0.00    +0.000 A 
ATOM     29  H   UNL     1      -0.241   8.794  23.299  0.00  0.00    +0.000 HD
ENDBRANCH  17  18
ENDBRANCH   8  17
TORSDOF 3
ENDMDL
MODEL 4
REMARK VINA RESULT:      -8.2      1.010      1.109
REMARK  Name = 
REMARK  5 active torsions:
REMARK  status: ('A' for Active; 'I' for Inactive)
REMARK    1  A    between atoms: C_1  and  O_2
REMARK    2  A    between atoms: O_2  and  C_3
REMARK    3  A    between atoms: C_10  and  S_11
REMARK    4  A    between atoms: S_11  and  C_12
REMARK    5  A    between atoms: C_13  and  C_14
REMARK                            x       y       z     vdW  Elec       q    Type
REMARK                         _______ _______ _______ _____ _____    ______ ____
ROOT
ATOM      1  C   UNL     1      -0.503  12.722  21.474  0.00  0.00    +0.000 C 
ATOM      2  O   UNL     1      -0.361  12.059  22.477  0.00  0.00    +0.000 OA
ATOM      3  N   UNL     1      -0.156  12.384  20.186  0.00  0.00    +0.000 N 
ATOM      4  C   UNL     1       0.424  11.170  19.925  0.00  0.00    +0.000 A 
ATOM      5  N   UNL     1       0.714  10.209  20.772  0.00  0.00    +0.000 NA
ATOM      6  C   UNL     1       1.249   9.192  20.030  0.00  0.00    +0.000 A 
ATOM      7  C   UNL     1       1.677   7.915  20.419  0.00  0.00    +0.000 A 
ATOM      8  C   UNL     1       2.201   7.040  19.454  0.00  0.00    +0.000 A 
ATOM      9  C   UNL     1       2.312   7.470  18.119  0.00  0.00    +0.000 A 
ATOM     10  C   UNL     1       1.885   8.745  17.711  0.00  0.00    +0.000 A 
ATOM     11  C   UNL     1       1.342   9.564  18.698  0.00  0.00    +0.000 A 
ATOM     12  N   UNL     1       0.788  10.819  18.654  0.00  0.00    +0.000 N 
ATOM     13  H   UNL     1      -0.220  13.084  19.467  0.00  0.00    +0.000 HD
ATOM     14  H   UNL     1       0.660  11.376  17.827  0.00  0.00    +0.000 HD
ENDROOT
BRANCH   1  16
ATOM     15  C   UNL     1      -2.278  14.072  22.194  0.00  0.00    +0.000 C 
ATOM     16  O   UNL     1      -1.038  13.983  21.477  0.00  0.00    +0.000 OA
ENDBRANCH   1  16
BRANCH   8  17
ATOM     17  S   UNL     1       2.821   5.441  19.986  0.00  0.00    +0.000 S 
BRANCH  17  18
ATOM     18  C   UNL     1       3.528   4.719  18.545  0.00  0.00    +0.000 A 
ATOM     19  C   UNL     1       3.069   3.597  17.879  0.00  0.00    +0.000 A 
ATOM     20  C   UNL     1       1.889   2.723  18.094  0.00  0.00    +0.000 C 
ATOM     21  N   UNL     1       3.946   3.347  16.848  0.00  0.00    +0.000 N 
ATOM     22  C   UNL     1       4.965   4.272  16.839  0.00  0.00    +0.000 A 
ATOM     23  C   UNL     1       6.054   4.399  15.964  0.00  0.00    +0.000 A 
ATOM     24  C   UNL     1       6.942   5.456  16.185  0.00  0.00    +0.000 A 
ATOM     25  C   UNL     1       6.747   6.334  17.247  0.00  0.00    +0.000 A 
ATOM     26 CL   UNL     1       7.843   7.646  17.474  0.00  0.00    +0.000 Cl
ATOM     27  C   UNL     1       5.668   6.185  18.125  0.00  0.00    +0.000 A 
ATOM     28  C   UNL     1       4.741   5.140  17.913  0.00  0.00    +0.000 A 
ATOM     29  H   UNL     1       3.855   2.590  16.184  0.00  0.00    +0.000 HD
ENDBRANCH  17  18
ENDBRANCH   8  17
TORSDOF 3
ENDMDL
MODEL 5
REMARK VINA RESULT:      -8.2      2.827      3.862
REMARK  Name = 
REMARK  5 active torsions:
REMARK  status: ('A' for Active; 'I' for Inactive)
REMARK    1  A    between atoms: C_1  and  O_2
REMARK    2  A    between atoms: O_2  and  C_3
REMARK    3  A    between atoms: C_10  and  S_11
REMARK    4  A    between atoms: S_11  and  C_12
REMARK    5  A    between atoms: C_13  and  C_14
REMARK                            x       y       z     vdW  Elec       q    Type
REMARK                         _______ _______ _______ _____ _____    ______ ____
ROOT
ATOM      1  C   UNL     1       1.127  10.608  18.950  0.00  0.00    +0.000 C 
ATOM      2  O   UNL     1       1.590  10.483  17.839  0.00  0.00    +0.000 OA
ATOM      3  N   UNL     1       1.076   9.665  19.952  0.00  0.00    +0.000 N 
ATOM      4  C   UNL     1       1.589   8.412  19.743  0.00  0.00    +0.000 A 
ATOM      5  N   UNL     1       2.169   7.939  18.663  0.00  0.00    +0.000 NA
ATOM      6  C   UNL     1       2.535   6.654  18.956  0.00  0.00    +0.000 A 
ATOM      7  C   UNL     1       3.234   5.714  18.184  0.00  0.00    +0.000 A 
ATOM      8  C   UNL     1       3.488   4.439  18.715  0.00  0.00    +0.000 A 
ATOM      9  C   UNL     1       3.013   4.119  20.000  0.00  0.00    +0.000 A 
ATOM     10  C   UNL     1       2.314   5.050  20.788  0.00  0.00    +0.000 A 
ATOM     11  C   UNL     1       2.116   6.311  20.231  0.00  0.00    +0.000 A 
ATOM     12  N   UNL     1       1.537   7.455  20.721  0.00  0.00    +0.000 N 
ATOM     13  H   UNL     1       0.551   9.870  20.784  0.00  0.00    +0.000 HD
ATOM     14  H   UNL     1       1.155   7.572  21.643  0.00  0.00    +0.000 HD
ENDROOT
BRANCH   1  16
ATOM     15  C   UNL     1       0.568  11.907  20.819  0.00  0.00    +0.000 C 
ATOM     16  O   UNL     1       0.534  11.762  19.391  0.00  0.00    +0.000 OA
ENDBRANCH   1  16
BRANCH   8  17
ATOM     17  S   UNL     1       4.309   3.223  17.682  0.00  0.00    +0.000 S 
BRANCH  17  18
ATOM     18  C   UNL     1       5.640   4.087  16.921  0.00  0.00    +0.000 A 
ATOM     19  C   UNL     1       6.552   4.912  17.553  0.00  0.00    +0.000 A 
ATOM     20  C   UNL     1       6.745   5.277  18.980  0.00  0.00    +0.000 C 
ATOM     21  N   UNL     1       7.379   5.427  16.581  0.00  0.00    +0.000 N 
ATOM     22  C   UNL     1       7.017   4.965  15.337  0.00  0.00    +0.000 A 
ATOM     23  C   UNL     1       7.590   5.221  14.082  0.00  0.00    +0.000 A 
ATOM     24  C   UNL     1       7.017   4.598  12.970  0.00  0.00    +0.000 A 
ATOM     25  C   UNL     1       5.910   3.767  13.115  0.00  0.00    +0.000 A 
ATOM     26 CL   UNL     1       5.246   2.989  11.727  0.00  0.00    +0.000 Cl
ATOM     27  C   UNL     1       5.336   3.535  14.370  0.00  0.00    +0.000 A 
ATOM     28  C   UNL     1       5.907   4.132  15.515  0.00  0.00    +0.000 A 
ATOM     29  H   UNL     1       8.151   6.057  16.755  0.00  0.00    +0.000 HD
ENDBRANCH  17  18
ENDBRANCH   8  17
TORSDOF 3
ENDMDL
MODEL 6
REMARK VINA RESULT:      -8.1      2.211      2.921
REMARK  Name = 
REMARK  5 active torsions:
REMARK  status: ('A' for Active; 'I' for Inactive)
REMARK    1  A    between atoms: C_1  and  O_2
REMARK    2  A    between atoms: O_2  and  C_3
REMARK    3  A    between atoms: C_10  and  S_11
REMARK    4  A    between atoms: S_11  and  C_12
REMARK    5  A    between atoms: C_13  and  C_14
REMARK                            x       y       z     vdW  Elec       q    Type
REMARK                         _______ _______ _______ _____ _____    ______ ____
ROOT
ATOM      1  C   UNL     1      -0.338   9.855  22.453  0.00  0.00    +0.000 C 
ATOM      2  O   UNL     1      -0.124   8.853  23.097  0.00  0.00    +0.000 OA
ATOM      3  N   UNL     1       0.092  10.146  21.178  0.00  0.00    +0.000 N 
ATOM      4  C   UNL     1       0.859   9.244  20.489  0.00  0.00    +0.000 A 
ATOM      5  N   UNL     1       1.270   8.060  20.880  0.00  0.00    +0.000 NA
ATOM      6  C   UNL     1       1.977   7.533  19.833  0.00  0.00    +0.000 A 
ATOM      7  C   UNL     1       2.586   6.278  19.692  0.00  0.00    +0.000 A 
ATOM      8  C   UNL     1       3.265   5.973  18.502  0.00  0.00    +0.000 A 
ATOM      9  C   UNL     1       3.346   6.940  17.484  0.00  0.00    +0.000 A 
ATOM     10  C   UNL     1       2.738   8.202  17.608  0.00  0.00    +0.000 A 
ATOM     11  C   UNL     1       2.048   8.446  18.793  0.00  0.00    +0.000 A 
ATOM     12  N   UNL     1       1.309   9.518  19.226  0.00  0.00    +0.000 N 
ATOM     13  H   UNL     1      -0.059  11.071  20.815  0.00  0.00    +0.000 HD
ATOM     14  H   UNL     1       1.119  10.352  18.699  0.00  0.00    +0.000 HD
ENDROOT
BRANCH   1  16
ATOM     15  C   UNL     1      -0.778  12.149  22.257  0.00  0.00    +0.000 C 
ATOM     16  O   UNL     1      -1.062  10.915  22.933  0.00  0.00    +0.000 OA
ENDBRANCH   1  16
BRANCH   8  17
ATOM     17  S   UNL     1       4.110   4.394  18.372  0.00  0.00    +0.000 S 
BRANCH  17  18
ATOM     18  C   UNL     1       5.602   4.739  17.505  0.00  0.00    +0.000 A 
ATOM     19  C   UNL     1       6.756   5.279  18.041  0.00  0.00    +0.000 A 
ATOM     20  C   UNL     1       7.127   5.667  19.426  0.00  0.00    +0.000 C 
ATOM     21  N   UNL     1       7.651   5.437  17.008  0.00  0.00    +0.000 N 
ATOM     22  C   UNL     1       7.100   5.022  15.816  0.00  0.00    +0.000 A 
ATOM     23  C   UNL     1       7.659   4.994  14.530  0.00  0.00    +0.000 A 
ATOM     24  C   UNL     1       6.864   4.503  13.490  0.00  0.00    +0.000 A 
ATOM     25  C   UNL     1       5.562   4.075  13.735  0.00  0.00    +0.000 A 
ATOM     26 CL   UNL     1       4.618   3.447  12.436  0.00  0.00    +0.000 Cl
ATOM     27  C   UNL     1       5.010   4.127  15.020  0.00  0.00    +0.000 A 
ATOM     28  C   UNL     1       5.797   4.596  16.095  0.00  0.00    +0.000 A 
ATOM     29  H   UNL     1       8.589   5.803  17.107  0.00  0.00    +0.000 HD
ENDBRANCH  17  18
ENDBRANCH   8  17
TORSDOF 3
ENDMDL
MODEL 7
REMARK VINA RESULT:      -8.0      6.633      9.235
REMARK  Name = 
REMARK  5 active torsions:
REMARK  status: ('A' for Active; 'I' for Inactive)
REMARK    1  A    between atoms: C_1  and  O_2
REMARK    2  A    between atoms: O_2  and  C_3
REMARK    3  A    between atoms: C_10  and  S_11
REMARK    4  A    between atoms: S_11  and  C_12
REMARK    5  A    between atoms: C_13  and  C_14
REMARK                            x       y       z     vdW  Elec       q    Type
REMARK                         _______ _______ _______ _____ _____    ______ ____
ROOT
ATOM      1  C   UNL     1      -3.461   9.624  12.595  0.00  0.00    +0.000 C 
ATOM      2  O   UNL     1      -2.274   9.410  12.696  0.00  0.00    +0.000 OA
ATOM      3  N   UNL     1      -4.312  10.126  13.554  0.00  0.00    +0.000 N 
ATOM      4  C   UNL     1      -3.834  10.445  14.797  0.00  0.00    +0.000 A 
ATOM      5  N   UNL     1      -2.604  10.346  15.246  0.00  0.00    +0.000 NA
ATOM      6  C   UNL     1      -2.625  10.814  16.531  0.00  0.00    +0.000 A 
ATOM      7  C   UNL     1      -1.580  10.983  17.451  0.00  0.00    +0.000 A 
ATOM      8  C   UNL     1      -1.863  11.486  18.731  0.00  0.00    +0.000 A 
ATOM      9  C   UNL     1      -3.193  11.785  19.077  0.00  0.00    +0.000 A 
ATOM     10  C   UNL     1      -4.252  11.625  18.166  0.00  0.00    +0.000 A 
ATOM     11  C   UNL     1      -3.917  11.155  16.899  0.00  0.00    +0.000 A 
ATOM     12  N   UNL     1      -4.664  10.933  15.770  0.00  0.00    +0.000 N 
ATOM     13  H   UNL     1      -5.300  10.136  13.368  0.00  0.00    +0.000 HD
ATOM     14  H   UNL     1      -5.648  11.113  15.671  0.00  0.00    +0.000 HD
ENDROOT
BRANCH   1  16
ATOM     15  C   UNL     1      -5.579   9.634  11.591  0.00  0.00    +0.000 C 
ATOM     16  O   UNL     1      -4.176   9.364  11.455  0.00  0.00    +0.000 OA
ENDBRANCH   1  16
BRANCH   8  17
ATOM     17  S   UNL     1      -0.526  11.617  19.921  0.00  0.00    +0.000 S 
BRANCH  17  18
ATOM     18  C   UNL     1       0.856  12.203  19.001  0.00  0.00    +0.000 A 
ATOM     19  C   UNL     1       1.780  11.428  18.325  0.00  0.00    +0.000 A 
ATOM     20  C   UNL     1       1.886   9.962  18.110  0.00  0.00    +0.000 C 
ATOM     21  N   UNL     1       2.720  12.282  17.796  0.00  0.00    +0.000 N 
ATOM     22  C   UNL     1       2.432  13.588  18.123  0.00  0.00    +0.000 A 
ATOM     23  C   UNL     1       3.110  14.768  17.784  0.00  0.00    +0.000 A 
ATOM     24  C   UNL     1       2.579  15.975  18.249  0.00  0.00    +0.000 A 
ATOM     25  C   UNL     1       1.427  15.988  19.030  0.00  0.00    +0.000 A 
ATOM     26 CL   UNL     1       0.780  17.496  19.561  0.00  0.00    +0.000 Cl
ATOM     27  C   UNL     1       0.771  14.801  19.377  0.00  0.00    +0.000 A 
ATOM     28  C   UNL     1       1.271  13.569  18.902  0.00  0.00    +0.000 A 
ATOM     29  H   UNL     1       3.514  11.993  17.239  0.00  0.00    +0.000 HD
ENDBRANCH  17  18
ENDBRANCH   8  17
TORSDOF 3
ENDMDL
MODEL 8
REMARK VINA RESULT:      -8.0      5.142      9.313
REMARK  Name = 
REMARK  5 active torsions:
REMARK  status: ('A' for Active; 'I' for Inactive)
REMARK    1  A    between atoms: C_1  and  O_2
REMARK    2  A    between atoms: O_2  and  C_3
REMARK    3  A    between atoms: C_10  and  S_11
REMARK    4  A    between atoms: S_11  and  C_12
REMARK    5  A    between atoms: C_13  and  C_14
REMARK                            x       y       z     vdW  Elec       q    Type
REMARK                         _______ _______ _______ _____ _____    ______ ____
ROOT
ATOM      1  C   UNL     1       4.645   5.513  16.916  0.00  0.00    +0.000 C 
ATOM      2  O   UNL     1       4.800   6.395  16.102  0.00  0.00    +0.000 OA
ATOM      3  N   UNL     1       3.889   5.552  18.066  0.00  0.00    +0.000 N 
ATOM      4  C   UNL     1       3.199   6.689  18.398  0.00  0.00    +0.000 A 
ATOM      5  N   UNL     1       3.138   7.824  17.740  0.00  0.00    +0.000 NA
ATOM      6  C   UNL     1       2.302   8.637  18.455  0.00  0.00    +0.000 A 
ATOM      7  C   UNL     1       1.845   9.934  18.179  0.00  0.00    +0.000 A 
ATOM      8  C   UNL     1       0.982  10.568  19.086  0.00  0.00    +0.000 A 
ATOM      9  C   UNL     1       0.612   9.902  20.269  0.00  0.00    +0.000 A 
ATOM     10  C   UNL     1       1.058   8.601  20.560  0.00  0.00    +0.000 A 
ATOM     11  C   UNL     1       1.886   8.001  19.614  0.00  0.00    +0.000 A 
ATOM     12  N   UNL     1       2.451   6.753  19.542  0.00  0.00    +0.000 N 
ATOM     13  H   UNL     1       3.950   4.785  18.713  0.00  0.00    +0.000 HD
ATOM     14  H   UNL     1       2.325   6.011  20.208  0.00  0.00    +0.000 HD
ENDROOT
BRANCH   1  16
ATOM     15  C   UNL     1       6.610   4.360  16.369  0.00  0.00    +0.000 C 
ATOM     16  O   UNL     1       5.250   4.287  16.820  0.00  0.00    +0.000 OA
ENDBRANCH   1  16
BRANCH   8  17
ATOM     17  S   UNL     1       0.475  12.258  18.757  0.00  0.00    +0.000 S 
BRANCH  17  18
ATOM     18  C   UNL     1      -1.279  12.250  18.898  0.00  0.00    +0.000 A 
ATOM     19  C   UNL     1      -2.017  12.682  19.985  0.00  0.00    +0.000 A 
ATOM     20  C   UNL     1      -1.624  13.304  21.274  0.00  0.00    +0.000 C 
ATOM     21  N   UNL     1      -3.342  12.442  19.700  0.00  0.00    +0.000 N 
ATOM     22  C   UNL     1      -3.477  11.857  18.461  0.00  0.00    +0.000 A 
ATOM     23  C   UNL     1      -4.636  11.461  17.777  0.00  0.00    +0.000 A 
ATOM     24  C   UNL     1      -4.476  10.896  16.508  0.00  0.00    +0.000 A 
ATOM     25  C   UNL     1      -3.207  10.725  15.963  0.00  0.00    +0.000 A 
ATOM     26 CL   UNL     1      -3.047  10.054  14.383  0.00  0.00    +0.000 Cl
ATOM     27  C   UNL     1      -2.058  11.107  16.665  0.00  0.00    +0.000 A 
ATOM     28  C   UNL     1      -2.189  11.702  17.939  0.00  0.00    +0.000 A 
ATOM     29  H   UNL     1      -4.115  12.668  20.313  0.00  0.00    +0.000 HD
ENDBRANCH  17  18
ENDBRANCH   8  17
TORSDOF 3
ENDMDL
MODEL 9
REMARK VINA RESULT:      -7.9      4.854      6.866
REMARK  Name = 
REMARK  5 active torsions:
REMARK  status: ('A' for Active; 'I' for Inactive)
REMARK    1  A    between atoms: C_1  and  O_2
REMARK    2  A    between atoms: O_2  and  C_3
REMARK    3  A    between atoms: C_10  and  S_11
REMARK    4  A    between atoms: S_11  and  C_12
REMARK    5  A    between atoms: C_13  and  C_14
REMARK                            x       y       z     vdW  Elec       q    Type
REMARK                         _______ _______ _______ _____ _____    ______ ____
ROOT
ATOM      1  C   UNL     1       8.753  11.567  17.844  0.00  0.00    +0.000 C 
ATOM      2  O   UNL     1       7.817  11.695  17.086  0.00  0.00    +0.000 OA
ATOM      3  N   UNL     1       9.163  10.423  18.489  0.00  0.00    +0.000 N 
ATOM      4  C   UNL     1       8.484   9.247  18.304  0.00  0.00    +0.000 A 
ATOM      5  N   UNL     1       7.433   9.026  17.548  0.00  0.00    +0.000 NA
ATOM      6  C   UNL     1       7.145   7.694  17.673  0.00  0.00    +0.000 A 
ATOM      7  C   UNL     1       6.161   6.918  17.044  0.00  0.00    +0.000 A 
ATOM      8  C   UNL     1       6.063   5.551  17.347  0.00  0.00    +0.000 A 
ATOM      9  C   UNL     1       6.936   4.990  18.297  0.00  0.00    +0.000 A 
ATOM     10  C   UNL     1       7.930   5.753  18.935  0.00  0.00    +0.000 A 
ATOM     11  C   UNL     1       8.009   7.096  18.576  0.00  0.00    +0.000 A 
ATOM     12  N   UNL     1       8.867   8.100  18.946  0.00  0.00    +0.000 N 
ATOM     13  H   UNL     1       9.884  10.492  19.186  0.00  0.00    +0.000 HD
ATOM     14  H   UNL     1       9.651   8.005  19.568  0.00  0.00    +0.000 HD
ENDROOT
BRANCH   1  16
ATOM     15  C   UNL     1       8.858  13.814  18.502  0.00  0.00    +0.000 C 
ATOM     16  O   UNL     1       9.572  12.604  18.207  0.00  0.00    +0.000 OA
ENDBRANCH   1  16
BRANCH   8  17
ATOM     17  S   UNL     1       4.745   4.592  16.595  0.00  0.00    +0.000 S 
BRANCH  17  18
ATOM     18  C   UNL     1       3.720   4.088  17.935  0.00  0.00    +0.000 A 
ATOM     19  C   UNL     1       3.437   2.787  18.307  0.00  0.00    +0.000 A 
ATOM     20  C   UNL     1       3.905   1.477  17.789  0.00  0.00    +0.000 C 
ATOM     21  N   UNL     1       2.553   2.847  19.360  0.00  0.00    +0.000 N 
ATOM     22  C   UNL     1       2.251   4.153  19.670  0.00  0.00    +0.000 A 
ATOM     23  C   UNL     1       1.414   4.668  20.672  0.00  0.00    +0.000 A 
ATOM     24  C   UNL     1       1.300   6.058  20.768  0.00  0.00    +0.000 A 
ATOM     25  C   UNL     1       1.986   6.888  19.887  0.00  0.00    +0.000 A 
ATOM     26 CL   UNL     1       1.848   8.599  20.052  0.00  0.00    +0.000 Cl
ATOM     27  C   UNL     1       2.803   6.361  18.880  0.00  0.00    +0.000 A 
ATOM     28  C   UNL     1       2.956   4.961  18.773  0.00  0.00    +0.000 A 
ATOM     29  H   UNL     1       2.179   2.042  19.846  0.00  0.00    +0.000 HD
ENDBRANCH  17  18
ENDBRANCH   8  17
TORSDOF 3
ENDMDL
