MODEL 1
REMARK VINA RESULT:      -7.5      0.000      0.000
REMARK  Name = 
REMARK  4 active torsions:
REMARK  status: ('A' for Active; 'I' for Inactive)
REMARK    1  A    between atoms: C_2  and  S_4
REMARK    2  A    between atoms: S_4  and  C_5
REMARK    3  A    between atoms: C_8  and  N_9
REMARK    4  A    between atoms: N_9  and  C_10
REMARK                            x       y       z     vdW  Elec       q    Type
REMARK                         _______ _______ _______ _____ _____    ______ ____
ROOT
ATOM      1  N   UNL     1       5.897   4.969  18.381  0.00  0.00    +0.000 N 
ATOM      2  H   UNL     1       5.621   5.960  18.336  0.00  0.00    +0.000 HD
ENDROOT
BRANCH   1   3
ATOM      3  C   UNL     1       4.945   4.322  19.172  0.00  0.00    +0.000 A 
ATOM      4  N   UNL     1       5.090   2.989  19.519  0.00  0.00    +0.000 N 
ATOM      5  C   UNL     1       4.147   2.329  20.260  0.00  0.00    +0.000 A 
ATOM      6  N   UNL     1       3.033   2.829  20.689  0.00  0.00    +0.000 NA
ATOM      7  C   UNL     1       2.834   4.133  20.340  0.00  0.00    +0.000 A 
ATOM      8  N   UNL     1       1.775   4.853  20.544  0.00  0.00    +0.000 NA
ATOM      9  C   UNL     1       2.121   6.068  19.965  0.00  0.00    +0.000 A 
ATOM     10  N   UNL     1       3.306   6.174  19.425  0.00  0.00    +0.000 NA
ATOM     11  C   UNL     1       3.832   4.927  19.620  0.00  0.00    +0.000 A 
ATOM     12  H   UNL     1       5.943   2.546  19.205  0.00  0.00    +0.000 HD
ENDBRANCH   1   3
BRANCH   1  16
ATOM     13  C   UNL     1       6.229   4.147  14.209  0.00  0.00    +0.000 A 
ATOM     14  C   UNL     1       5.089   3.768  14.916  0.00  0.00    +0.000 A 
ATOM     15  C   UNL     1       4.988   3.998  16.291  0.00  0.00    +0.000 A 
ATOM     16  C   UNL     1       6.032   4.599  17.006  0.00  0.00    +0.000 A 
ATOM     17  C   UNL     1       7.161   5.014  16.298  0.00  0.00    +0.000 A 
ATOM     18  C   UNL     1       7.265   4.773  14.920  0.00  0.00    +0.000 A 
BRANCH  13  19
ATOM     19  S   UNL     1       6.472   3.912  12.455  0.00  0.00    +0.000 S 
BRANCH  19  21
ATOM     20  F   UNL     1       4.250   3.819  11.067  0.00  0.00    +0.000 F 
ATOM     21  C   UNL     1       4.978   3.053  11.917  0.00  0.00    +0.000 C 
ATOM     22  F   UNL     1       5.280   1.904  11.260  0.00  0.00    +0.000 F 
ENDBRANCH  19  21
ENDBRANCH  13  19
ENDBRANCH   1  16
TORSDOF 4
ENDMDL
MODEL 2
REMARK VINA RESULT:      -7.4      0.512      1.154
REMARK  Name = 
REMARK  4 active torsions:
REMARK  status: ('A' for Active; 'I' for Inactive)
REMARK    1  A    between atoms: C_2  and  S_4
REMARK    2  A    between atoms: S_4  and  C_5
REMARK    3  A    between atoms: C_8  and  N_9
REMARK    4  A    between atoms: N_9  and  C_10
REMARK                            x       y       z     vdW  Elec       q    Type
REMARK                         _______ _______ _______ _____ _____    ______ ____
ROOT
ATOM      1  N   UNL     1       5.504   5.547  18.349  0.00  0.00    +0.000 N 
ATOM      2  H   UNL     1       4.931   6.400  18.295  0.00  0.00    +0.000 HD
ENDROOT
BRANCH   1   3
ATOM      3  C   UNL     1       4.769   4.615  19.086  0.00  0.00    +0.000 A 
ATOM      4  N   UNL     1       5.179   3.296  19.181  0.00  0.00    +0.000 N 
ATOM      5  C   UNL     1       4.450   2.361  19.866  0.00  0.00    +0.000 A 
ATOM      6  N   UNL     1       3.320   2.569  20.462  0.00  0.00    +0.000 NA
ATOM      7  C   UNL     1       2.863   3.851  20.364  0.00  0.00    +0.000 A 
ATOM      8  N   UNL     1       1.725   4.317  20.775  0.00  0.00    +0.000 NA
ATOM      9  C   UNL     1       1.791   5.652  20.393  0.00  0.00    +0.000 A 
ATOM     10  N   UNL     1       2.874   6.063  19.788  0.00  0.00    +0.000 NA
ATOM     11  C   UNL     1       3.625   4.921  19.719  0.00  0.00    +0.000 A 
ATOM     12  H   UNL     1       6.056   3.076  18.728  0.00  0.00    +0.000 HD
ENDBRANCH   1   3
BRANCH   1  16
ATOM     13  C   UNL     1       6.388   4.426  14.330  0.00  0.00    +0.000 A 
ATOM     14  C   UNL     1       7.415   4.748  15.216  0.00  0.00    +0.000 A 
ATOM     15  C   UNL     1       7.132   5.154  16.523  0.00  0.00    +0.000 A 
ATOM     16  C   UNL     1       5.813   5.268  16.980  0.00  0.00    +0.000 A 
ATOM     17  C   UNL     1       4.782   4.913  16.109  0.00  0.00    +0.000 A 
ATOM     18  C   UNL     1       5.066   4.515  14.795  0.00  0.00    +0.000 A 
BRANCH  13  19
ATOM     19  S   UNL     1       6.622   3.890  12.641  0.00  0.00    +0.000 S 
BRANCH  19  21
ATOM     20  F   UNL     1       4.274   3.831  11.477  0.00  0.00    +0.000 F 
ATOM     21  C   UNL     1       5.080   3.044  12.233  0.00  0.00    +0.000 C 
ATOM     22  F   UNL     1       5.313   1.911  11.522  0.00  0.00    +0.000 F 
ENDBRANCH  19  21
ENDBRANCH  13  19
ENDBRANCH   1  16
TORSDOF 4
ENDMDL
MODEL 3
REMARK VINA RESULT:      -7.3      1.395      2.485
REMARK  Name = 
REMARK  4 active torsions:
REMARK  status: ('A' for Active; 'I' for Inactive)
REMARK    1  A    between atoms: C_2  and  S_4
REMARK    2  A    between atoms: S_4  and  C_5
REMARK    3  A    between atoms: C_8  and  N_9
REMARK    4  A    between atoms: N_9  and  C_10
REMARK                            x       y       z     vdW  Elec       q    Type
REMARK                         _______ _______ _______ _____ _____    ______ ____
ROOT
ATOM      1  N   UNL     1       5.246   5.460  19.372  0.00  0.00    +0.000 N 
ATOM      2  H   UNL     1       5.317   6.458  19.613  0.00  0.00    +0.000 HD
ENDROOT
BRANCH   1   3
ATOM      3  C   UNL     1       3.922   5.082  19.607  0.00  0.00    +0.000 A 
ATOM      4  N   UNL     1       3.025   5.952  20.204  0.00  0.00    +0.000 N 
ATOM      5  C   UNL     1       1.735   5.584  20.477  0.00  0.00    +0.000 A 
ATOM      6  N   UNL     1       1.215   4.420  20.253  0.00  0.00    +0.000 NA
ATOM      7  C   UNL     1       2.076   3.520  19.696  0.00  0.00    +0.000 A 
ATOM      8  N   UNL     1       1.861   2.264  19.456  0.00  0.00    +0.000 NA
ATOM      9  C   UNL     1       3.073   1.847  18.920  0.00  0.00    +0.000 A 
ATOM     10  N   UNL     1       4.024   2.735  18.794  0.00  0.00    +0.000 NA
ATOM     11  C   UNL     1       3.443   3.865  19.301  0.00  0.00    +0.000 A 
ATOM     12  H   UNL     1       3.381   6.877  20.405  0.00  0.00    +0.000 HD
ENDBRANCH   1   3
BRANCH   1  16
ATOM     13  C   UNL     1       6.590   5.075  15.343  0.00  0.00    +0.000 A 
ATOM     14  C   UNL     1       7.324   4.518  16.390  0.00  0.00    +0.000 A 
ATOM     15  C   UNL     1       6.912   4.673  17.716  0.00  0.00    +0.000 A 
ATOM     16  C   UNL     1       5.762   5.405  18.039  0.00  0.00    +0.000 A 
ATOM     17  C   UNL     1       5.004   5.934  16.994  0.00  0.00    +0.000 A 
ATOM     18  C   UNL     1       5.423   5.787  15.664  0.00  0.00    +0.000 A 
BRANCH  13  19
ATOM     19  S   UNL     1       7.011   4.940  13.611  0.00  0.00    +0.000 S 
BRANCH  19  21
ATOM     20  F   UNL     1       4.826   3.807  12.709  0.00  0.00    +0.000 F 
ATOM     21  C   UNL     1       6.099   3.486  13.051  0.00  0.00    +0.000 C 
ATOM     22  F   UNL     1       6.680   2.932  11.956  0.00  0.00    +0.000 F 
ENDBRANCH  19  21
ENDBRANCH  13  19
ENDBRANCH   1  16
TORSDOF 4
ENDMDL
MODEL 4
REMARK VINA RESULT:      -7.2      1.531      2.452
REMARK  Name = 
REMARK  4 active torsions:
REMARK  status: ('A' for Active; 'I' for Inactive)
REMARK    1  A    between atoms: C_2  and  S_4
REMARK    2  A    between atoms: S_4  and  C_5
REMARK    3  A    between atoms: C_8  and  N_9
REMARK    4  A    between atoms: N_9  and  C_10
REMARK                            x       y       z     vdW  Elec       q    Type
REMARK                         _______ _______ _______ _____ _____    ______ ____
ROOT
ATOM      1  N   UNL     1       4.958   5.484  19.329  0.00  0.00    +0.000 N 
ATOM      2  H   UNL     1       5.007   6.504  19.459  0.00  0.00    +0.000 HD
ENDROOT
BRANCH   1   3
ATOM      3  C   UNL     1       3.661   5.096  19.672  0.00  0.00    +0.000 A 
ATOM      4  N   UNL     1       2.815   5.955  20.354  0.00  0.00    +0.000 N 
ATOM      5  C   UNL     1       1.555   5.576  20.732  0.00  0.00    +0.000 A 
ATOM      6  N   UNL     1       1.022   4.413  20.538  0.00  0.00    +0.000 NA
ATOM      7  C   UNL     1       1.836   3.524  19.898  0.00  0.00    +0.000 A 
ATOM      8  N   UNL     1       1.606   2.271  19.662  0.00  0.00    +0.000 NA
ATOM      9  C   UNL     1       2.769   1.866  19.018  0.00  0.00    +0.000 A 
ATOM     10  N   UNL     1       3.702   2.761  18.822  0.00  0.00    +0.000 NA
ATOM     11  C   UNL     1       3.162   3.881  19.392  0.00  0.00    +0.000 A 
ATOM     12  H   UNL     1       3.183   6.879  20.536  0.00  0.00    +0.000 HD
ENDBRANCH   1   3
BRANCH   1  16
ATOM     13  C   UNL     1       6.517   5.136  15.374  0.00  0.00    +0.000 A 
ATOM     14  C   UNL     1       5.369   5.888  15.618  0.00  0.00    +0.000 A 
ATOM     15  C   UNL     1       4.829   5.976  16.904  0.00  0.00    +0.000 A 
ATOM     16  C   UNL     1       5.410   5.300  17.984  0.00  0.00    +0.000 A 
ATOM     17  C   UNL     1       6.581   4.575  17.753  0.00  0.00    +0.000 A 
ATOM     18  C   UNL     1       7.116   4.479  16.461  0.00  0.00    +0.000 A 
BRANCH  13  19
ATOM     19  S   UNL     1       7.304   4.954  13.780  0.00  0.00    +0.000 S 
BRANCH  19  21
ATOM     20  F   UNL     1       5.007   3.884  13.105  0.00  0.00    +0.000 F 
ATOM     21  C   UNL     1       6.338   3.666  12.960  0.00  0.00    +0.000 C 
ATOM     22  F   UNL     1       6.594   3.632  11.628  0.00  0.00    +0.000 F 
ENDBRANCH  19  21
ENDBRANCH  13  19
ENDBRANCH   1  16
TORSDOF 4
ENDMDL
MODEL 5
REMARK VINA RESULT:      -7.2      5.418      7.703
REMARK  Name = 
REMARK  4 active torsions:
REMARK  status: ('A' for Active; 'I' for Inactive)
REMARK    1  A    between atoms: C_2  and  S_4
REMARK    2  A    between atoms: S_4  and  C_5
REMARK    3  A    between atoms: C_8  and  N_9
REMARK    4  A    between atoms: N_9  and  C_10
REMARK                            x       y       z     vdW  Elec       q    Type
REMARK                         _______ _______ _______ _____ _____    ______ ____
ROOT
ATOM      1  N   UNL     1       3.441   5.101  17.978  0.00  0.00    +0.000 N 
ATOM      2  H   UNL     1       3.244   5.271  16.982  0.00  0.00    +0.000 HD
ENDROOT
BRANCH   1   3
ATOM      3  C   UNL     1       4.831   5.047  18.110  0.00  0.00    +0.000 A 
ATOM      4  N   UNL     1       5.450   5.397  19.297  0.00  0.00    +0.000 N 
ATOM      5  C   UNL     1       6.813   5.387  19.431  0.00  0.00    +0.000 A 
ATOM      6  N   UNL     1       7.664   5.092  18.501  0.00  0.00    +0.000 NA
ATOM      7  C   UNL     1       7.095   4.773  17.303  0.00  0.00    +0.000 A 
ATOM      8  N   UNL     1       7.699   4.534  16.180  0.00  0.00    +0.000 NA
ATOM      9  C   UNL     1       6.639   4.298  15.312  0.00  0.00    +0.000 A 
ATOM     10  N   UNL     1       5.427   4.357  15.797  0.00  0.00    +0.000 NA
ATOM     11  C   UNL     1       5.647   4.683  17.107  0.00  0.00    +0.000 A 
ATOM     12  H   UNL     1       4.832   5.641  20.058  0.00  0.00    +0.000 HD
ENDBRANCH   1   3
BRANCH   1  16
ATOM     13  C   UNL     1       1.544   8.326  20.026  0.00  0.00    +0.000 A 
ATOM     14  C   UNL     1       1.670   7.078  20.635  0.00  0.00    +0.000 A 
ATOM     15  C   UNL     1       2.255   6.005  19.956  0.00  0.00    +0.000 A 
ATOM     16  C   UNL     1       2.717   6.142  18.642  0.00  0.00    +0.000 A 
ATOM     17  C   UNL     1       2.627   7.398  18.039  0.00  0.00    +0.000 A 
ATOM     18  C   UNL     1       2.030   8.471  18.717  0.00  0.00    +0.000 A 
BRANCH  13  19
ATOM     19  S   UNL     1       0.822   9.771  20.791  0.00  0.00    +0.000 S 
BRANCH  19  21
ATOM     20  F   UNL     1      -0.150  10.193  23.189  0.00  0.00    +0.000 F 
ATOM     21  C   UNL     1       0.210   9.166  22.378  0.00  0.00    +0.000 C 
ATOM     22  F   UNL     1      -0.886   8.381  22.217  0.00  0.00    +0.000 F 
ENDBRANCH  19  21
ENDBRANCH  13  19
ENDBRANCH   1  16
TORSDOF 4
ENDMDL
MODEL 6
REMARK VINA RESULT:      -7.2      1.116      1.544
REMARK  Name = 
REMARK  4 active torsions:
REMARK  status: ('A' for Active; 'I' for Inactive)
REMARK    1  A    between atoms: C_2  and  S_4
REMARK    2  A    between atoms: S_4  and  C_5
REMARK    3  A    between atoms: C_8  and  N_9
REMARK    4  A    between atoms: N_9  and  C_10
REMARK                            x       y       z     vdW  Elec       q    Type
REMARK                         _______ _______ _______ _____ _____    ______ ____
ROOT
ATOM      1  N   UNL     1       5.566   4.072  18.870  0.00  0.00    +0.000 N 
ATOM      2  H   UNL     1       5.523   5.013  19.284  0.00  0.00    +0.000 HD
ENDROOT
BRANCH   1   3
ATOM      3  C   UNL     1       4.348   3.450  19.156  0.00  0.00    +0.000 A 
ATOM      4  N   UNL     1       4.133   2.120  18.838  0.00  0.00    +0.000 N 
ATOM      5  C   UNL     1       2.933   1.506  19.075  0.00  0.00    +0.000 A 
ATOM      6  N   UNL     1       1.880   2.067  19.576  0.00  0.00    +0.000 NA
ATOM      7  C   UNL     1       2.038   3.389  19.873  0.00  0.00    +0.000 A 
ATOM      8  N   UNL     1       1.134   4.220  20.289  0.00  0.00    +0.000 NA
ATOM      9  C   UNL     1       1.843   5.410  20.397  0.00  0.00    +0.000 A 
ATOM     10  N   UNL     1       3.115   5.394  20.095  0.00  0.00    +0.000 NA
ATOM     11  C   UNL     1       3.314   4.092  19.724  0.00  0.00    +0.000 A 
ATOM     12  H   UNL     1       4.924   1.632  18.438  0.00  0.00    +0.000 HD
ENDBRANCH   1   3
BRANCH   1  16
ATOM     13  C   UNL     1       6.644   4.535  14.769  0.00  0.00    +0.000 A 
ATOM     14  C   UNL     1       7.577   4.774  15.777  0.00  0.00    +0.000 A 
ATOM     15  C   UNL     1       7.222   4.663  17.124  0.00  0.00    +0.000 A 
ATOM     16  C   UNL     1       5.918   4.326  17.506  0.00  0.00    +0.000 A 
ATOM     17  C   UNL     1       4.988   4.051  16.502  0.00  0.00    +0.000 A 
ATOM     18  C   UNL     1       5.342   4.173  15.151  0.00  0.00    +0.000 A 
BRANCH  13  19
ATOM     19  S   UNL     1       6.979   4.639  13.017  0.00  0.00    +0.000 S 
BRANCH  19  21
ATOM     20  F   UNL     1       5.058   3.603  11.564  0.00  0.00    +0.000 F 
ATOM     21  C   UNL     1       6.114   3.215  12.321  0.00  0.00    +0.000 C 
ATOM     22  F   UNL     1       6.932   2.485  11.520  0.00  0.00    +0.000 F 
ENDBRANCH  19  21
ENDBRANCH  13  19
ENDBRANCH   1  16
TORSDOF 4
ENDMDL
MODEL 7
REMARK VINA RESULT:      -7.2      1.269      2.422
REMARK  Name = 
REMARK  4 active torsions:
REMARK  status: ('A' for Active; 'I' for Inactive)
REMARK    1  A    between atoms: C_2  and  S_4
REMARK    2  A    between atoms: S_4  and  C_5
REMARK    3  A    between atoms: C_8  and  N_9
REMARK    4  A    between atoms: N_9  and  C_10
REMARK                            x       y       z     vdW  Elec       q    Type
REMARK                         _______ _______ _______ _____ _____    ______ ____
ROOT
ATOM      1  N   UNL     1       5.220   3.996  19.072  0.00  0.00    +0.000 N 
ATOM      2  H   UNL     1       5.887   4.503  19.670  0.00  0.00    +0.000 HD
ENDROOT
BRANCH   1   3
ATOM      3  C   UNL     1       3.941   4.398  19.466  0.00  0.00    +0.000 A 
ATOM      4  N   UNL     1       3.695   5.698  19.876  0.00  0.00    +0.000 N 
ATOM      5  C   UNL     1       2.457   6.098  20.302  0.00  0.00    +0.000 A 
ATOM      6  N   UNL     1       1.409   5.344  20.404  0.00  0.00    +0.000 NA
ATOM      7  C   UNL     1       1.617   4.045  20.041  0.00  0.00    +0.000 A 
ATOM      8  N   UNL     1       0.785   3.056  20.134  0.00  0.00    +0.000 NA
ATOM      9  C   UNL     1       1.531   1.987  19.652  0.00  0.00    +0.000 A 
ATOM     10  N   UNL     1       2.754   2.224  19.257  0.00  0.00    +0.000 NA
ATOM     11  C   UNL     1       2.889   3.563  19.499  0.00  0.00    +0.000 A 
ATOM     12  H   UNL     1       4.481   6.330  19.821  0.00  0.00    +0.000 HD
ENDBRANCH   1   3
BRANCH   1  16
ATOM     13  C   UNL     1       6.598   4.596  15.081  0.00  0.00    +0.000 A 
ATOM     14  C   UNL     1       7.444   4.831  16.164  0.00  0.00    +0.000 A 
ATOM     15  C   UNL     1       6.989   4.675  17.476  0.00  0.00    +0.000 A 
ATOM     16  C   UNL     1       5.668   4.295  17.747  0.00  0.00    +0.000 A 
ATOM     17  C   UNL     1       4.827   4.023  16.667  0.00  0.00    +0.000 A 
ATOM     18  C   UNL     1       5.282   4.189  15.351  0.00  0.00    +0.000 A 
BRANCH  13  19
ATOM     19  S   UNL     1       7.065   4.754  13.363  0.00  0.00    +0.000 S 
BRANCH  19  21
ATOM     20  F   UNL     1       5.115   3.640  12.011  0.00  0.00    +0.000 F 
ATOM     21  C   UNL     1       6.308   3.319  12.570  0.00  0.00    +0.000 C 
ATOM     22  F   UNL     1       7.096   2.833  11.577  0.00  0.00    +0.000 F 
ENDBRANCH  19  21
ENDBRANCH  13  19
ENDBRANCH   1  16
TORSDOF 4
ENDMDL
MODEL 8
REMARK VINA RESULT:      -7.2      1.036      2.101
REMARK  Name = 
REMARK  4 active torsions:
REMARK  status: ('A' for Active; 'I' for Inactive)
REMARK    1  A    between atoms: C_2  and  S_4
REMARK    2  A    between atoms: S_4  and  C_5
REMARK    3  A    between atoms: C_8  and  N_9
REMARK    4  A    between atoms: N_9  and  C_10
REMARK                            x       y       z     vdW  Elec       q    Type
REMARK                         _______ _______ _______ _____ _____    ______ ____
ROOT
ATOM      1  N   UNL     1       5.498   4.323  19.118  0.00  0.00    +0.000 N 
ATOM      2  H   UNL     1       6.164   5.009  19.500  0.00  0.00    +0.000 HD
ENDROOT
BRANCH   1   3
ATOM      3  C   UNL     1       4.222   4.749  19.496  0.00  0.00    +0.000 A 
ATOM      4  N   UNL     1       3.805   6.048  19.265  0.00  0.00    +0.000 N 
ATOM      5  C   UNL     1       2.572   6.492  19.664  0.00  0.00    +0.000 A 
ATOM      6  N   UNL     1       1.687   5.798  20.306  0.00  0.00    +0.000 NA
ATOM      7  C   UNL     1       2.073   4.519  20.583  0.00  0.00    +0.000 A 
ATOM      8  N   UNL     1       1.438   3.639  21.292  0.00  0.00    +0.000 NA
ATOM      9  C   UNL     1       2.298   2.547  21.258  0.00  0.00    +0.000 A 
ATOM     10  N   UNL     1       3.410   2.665  20.582  0.00  0.00    +0.000 NA
ATOM     11  C   UNL     1       3.339   3.950  20.119  0.00  0.00    +0.000 A 
ATOM     12  H   UNL     1       4.460   6.637  18.769  0.00  0.00    +0.000 HD
ENDBRANCH   1   3
BRANCH   1  16
ATOM     13  C   UNL     1       6.461   4.468  14.966  0.00  0.00    +0.000 A 
ATOM     14  C   UNL     1       5.203   4.037  15.385  0.00  0.00    +0.000 A 
ATOM     15  C   UNL     1       4.893   3.949  16.745  0.00  0.00    +0.000 A 
ATOM     16  C   UNL     1       5.835   4.273  17.729  0.00  0.00    +0.000 A 
ATOM     17  C   UNL     1       7.084   4.741  17.315  0.00  0.00    +0.000 A 
ATOM     18  C   UNL     1       7.398   4.819  15.951  0.00  0.00    +0.000 A 
BRANCH  13  19
ATOM     19  S   UNL     1       6.973   4.628  13.261  0.00  0.00    +0.000 S 
BRANCH  19  21
ATOM     20  F   UNL     1       5.098   3.621  11.731  0.00  0.00    +0.000 F 
ATOM     21  C   UNL     1       6.188   3.228  12.435  0.00  0.00    +0.000 C 
ATOM     22  F   UNL     1       7.038   2.634  11.557  0.00  0.00    +0.000 F 
ENDBRANCH  19  21
ENDBRANCH  13  19
ENDBRANCH   1  16
TORSDOF 4
ENDMDL
MODEL 9
REMARK VINA RESULT:      -7.1      5.375      7.047
REMARK  Name = 
REMARK  4 active torsions:
REMARK  status: ('A' for Active; 'I' for Inactive)
REMARK    1  A    between atoms: C_2  and  S_4
REMARK    2  A    between atoms: S_4  and  C_5
REMARK    3  A    between atoms: C_8  and  N_9
REMARK    4  A    between atoms: N_9  and  C_10
REMARK                            x       y       z     vdW  Elec       q    Type
REMARK                         _______ _______ _______ _____ _____    ______ ____
ROOT
ATOM      1  N   UNL     1       3.186   6.436  19.813  0.00  0.00    +0.000 N 
ATOM      2  H   UNL     1       3.669   6.718  20.677  0.00  0.00    +0.000 HD
ENDROOT
BRANCH   1   3
ATOM      3  C   UNL     1       2.683   5.151  20.035  0.00  0.00    +0.000 A 
ATOM      4  N   UNL     1       2.365   4.719  21.311  0.00  0.00    +0.000 N 
ATOM      5  C   UNL     1       1.909   3.450  21.551  0.00  0.00    +0.000 A 
ATOM      6  N   UNL     1       1.751   2.521  20.663  0.00  0.00    +0.000 NA
ATOM      7  C   UNL     1       2.086   2.896  19.395  0.00  0.00    +0.000 A 
ATOM      8  N   UNL     1       2.122   2.151  18.334  0.00  0.00    +0.000 NA
ATOM      9  C   UNL     1       2.548   3.040  17.355  0.00  0.00    +0.000 A 
ATOM     10  N   UNL     1       2.772   4.278  17.709  0.00  0.00    +0.000 NA
ATOM     11  C   UNL     1       2.502   4.256  19.050  0.00  0.00    +0.000 A 
ATOM     12  H   UNL     1       2.474   5.405  22.046  0.00  0.00    +0.000 HD
ENDBRANCH   1   3
BRANCH   1  16
ATOM     13  C   UNL     1       0.695   9.830  19.131  0.00  0.00    +0.000 A 
ATOM     14  C   UNL     1       0.736   9.224  20.386  0.00  0.00    +0.000 A 
ATOM     15  C   UNL     1       1.520   8.088  20.608  0.00  0.00    +0.000 A 
ATOM     16  C   UNL     1       2.273   7.512  19.578  0.00  0.00    +0.000 A 
ATOM     17  C   UNL     1       2.264   8.135  18.328  0.00  0.00    +0.000 A 
ATOM     18  C   UNL     1       1.471   9.268  18.104  0.00  0.00    +0.000 A 
BRANCH  13  19
ATOM     19  S   UNL     1      -0.260  11.285  18.727  0.00  0.00    +0.000 S 
BRANCH  19  21
ATOM     20  F   UNL     1      -2.486  11.572  17.372  0.00  0.00    +0.000 F 
ATOM     21  C   UNL     1      -1.804  10.625  18.064  0.00  0.00    +0.000 C 
ATOM     22  F   UNL     1      -1.574   9.595  17.210  0.00  0.00    +0.000 F 
ENDBRANCH  19  21
ENDBRANCH  13  19
ENDBRANCH   1  16
TORSDOF 4
ENDMDL
