MODEL 1
REMARK VINA RESULT:      -8.1      0.000      0.000
REMARK  Name = 
REMARK  8 active torsions:
REMARK  status: ('A' for Active; 'I' for Inactive)
REMARK    1  A    between atoms: C_1  and  C_2
REMARK    2  A    between atoms: C_2  and  C_3
REMARK    3  A    between atoms: C_6  and  C_7
REMARK    4  A    between atoms: C_7  and  C_9
REMARK    5  A    between atoms: C_9  and  O_10
REMARK    6  A    between atoms: O_10  and  C_11
REMARK    7  A    between atoms: C_14  and  C_15
REMARK    8  A    between atoms: C_15  and  C_16
REMARK                            x       y       z     vdW  Elec       q    Type
REMARK                         _______ _______ _______ _____ _____    ______ ____
ROOT
ATOM      1  C   UNL     1       1.239   8.865  19.861  0.00  0.00    +0.000 A 
ATOM      2  C   UNL     1       1.758   9.044  18.579  0.00  0.00    +0.000 A 
ATOM      3  C   UNL     1       2.543   8.059  17.990  0.00  0.00    +0.000 A 
ATOM      4  C   UNL     1       2.841   6.877  18.668  0.00  0.00    +0.000 A 
ATOM      5  C   UNL     1       2.309   6.692  19.957  0.00  0.00    +0.000 A 
ATOM      6  C   UNL     1       1.527   7.691  20.556  0.00  0.00    +0.000 A 
ENDROOT
BRANCH   1   7
ATOM      7  O   UNL     1       0.470   9.796  20.507  0.00  0.00    +0.000 OA
BRANCH   7   8
ATOM      8  C   UNL     1       0.297  11.010  19.784  0.00  0.00    +0.000 C 
BRANCH   8   9
ATOM      9  C   UNL     1      -1.155  11.415  19.734  0.00  0.00    +0.000 C 
ATOM     10  O   UNL     1      -1.712  11.917  20.715  0.00  0.00    +0.000 OA
BRANCH   9  14
ATOM     11  C   UNL     1      -3.304  10.496  16.123  0.00  0.00    +0.000 A 
ATOM     12  C   UNL     1      -2.114   9.836  16.449  0.00  0.00    +0.000 A 
ATOM     13  C   UNL     1      -1.440  10.137  17.633  0.00  0.00    +0.000 A 
ATOM     14  C   UNL     1      -1.950  11.097  18.511  0.00  0.00    +0.000 A 
ATOM     15  C   UNL     1      -3.153  11.744  18.200  0.00  0.00    +0.000 A 
ATOM     16  C   UNL     1      -3.830  11.437  17.017  0.00  0.00    +0.000 A 
BRANCH  11  18
ATOM     17  C   UNL     1      -3.046   9.845  13.712  0.00  0.00    +0.000 C 
ATOM     18  C   UNL     1      -4.014  10.192  14.831  0.00  0.00    +0.000 C 
ENDBRANCH  11  18
ENDBRANCH   9  14
ENDBRANCH   8   9
ENDBRANCH   7   8
ENDBRANCH   1   7
BRANCH   4  19
ATOM     19  C   UNL     1       3.695   5.829  17.989  0.00  0.00    +0.000 C 
BRANCH  19  20
ATOM     20  C   UNL     1       5.195   5.817  18.317  0.00  0.00    +0.000 C 
ATOM     21  S   UNL     1       6.266   6.422  16.974  0.00  0.00    +0.000 S 
ATOM     22  C   UNL     1       7.096   4.894  16.837  0.00  0.00    +0.000 C 
ATOM     23  O   UNL     1       7.833   4.600  15.910  0.00  0.00    +0.000 OA
ATOM     24  N   UNL     1       6.780   4.089  17.874  0.00  0.00    +0.000 N 
ATOM     25  C   UNL     1       5.713   4.433  18.644  0.00  0.00    +0.000 C 
ATOM     26  O   UNL     1       5.232   3.687  19.491  0.00  0.00    +0.000 OA
ATOM     27  H   UNL     1       7.163   3.158  17.919  0.00  0.00    +0.000 HD
ENDBRANCH  19  20
ENDBRANCH   4  19
TORSDOF 7
ENDMDL
MODEL 2
REMARK VINA RESULT:      -7.8      0.500      1.427
REMARK  Name = 
REMARK  8 active torsions:
REMARK  status: ('A' for Active; 'I' for Inactive)
REMARK    1  A    between atoms: C_1  and  C_2
REMARK    2  A    between atoms: C_2  and  C_3
REMARK    3  A    between atoms: C_6  and  C_7
REMARK    4  A    between atoms: C_7  and  C_9
REMARK    5  A    between atoms: C_9  and  O_10
REMARK    6  A    between atoms: O_10  and  C_11
REMARK    7  A    between atoms: C_14  and  C_15
REMARK    8  A    between atoms: C_15  and  C_16
REMARK                            x       y       z     vdW  Elec       q    Type
REMARK                         _______ _______ _______ _____ _____    ______ ____
ROOT
ATOM      1  C   UNL     1       1.343   9.344  19.820  0.00  0.00    +0.000 A 
ATOM      2  C   UNL     1       1.619   8.163  20.509  0.00  0.00    +0.000 A 
ATOM      3  C   UNL     1       2.282   7.116  19.879  0.00  0.00    +0.000 A 
ATOM      4  C   UNL     1       2.676   7.214  18.544  0.00  0.00    +0.000 A 
ATOM      5  C   UNL     1       2.407   8.409  17.853  0.00  0.00    +0.000 A 
ATOM      6  C   UNL     1       1.727   9.461  18.485  0.00  0.00    +0.000 A 
ENDROOT
BRANCH   1   7
ATOM      7  O   UNL     1       0.684  10.410  20.371  0.00  0.00    +0.000 OA
BRANCH   7   8
ATOM      8  C   UNL     1      -0.725  10.231  20.478  0.00  0.00    +0.000 C 
BRANCH   8   9
ATOM      9  C   UNL     1      -1.471  11.311  19.735  0.00  0.00    +0.000 C 
ATOM     10  O   UNL     1      -1.670  12.417  20.245  0.00  0.00    +0.000 OA
BRANCH   9  14
ATOM     11  C   UNL     1      -3.347  10.373  15.979  0.00  0.00    +0.000 A 
ATOM     12  C   UNL     1      -3.910  11.303  16.861  0.00  0.00    +0.000 A 
ATOM     13  C   UNL     1      -3.277  11.605  18.068  0.00  0.00    +0.000 A 
ATOM     14  C   UNL     1      -2.071  10.988  18.406  0.00  0.00    +0.000 A 
ATOM     15  C   UNL     1      -1.492  10.074  17.516  0.00  0.00    +0.000 A 
ATOM     16  C   UNL     1      -2.123   9.777  16.305  0.00  0.00    +0.000 A 
BRANCH  11  18
ATOM     17  C   UNL     1      -3.072   9.866  13.535  0.00  0.00    +0.000 C 
ATOM     18  C   UNL     1      -4.046  10.026  14.692  0.00  0.00    +0.000 C 
ENDBRANCH  11  18
ENDBRANCH   9  14
ENDBRANCH   8   9
ENDBRANCH   7   8
ENDBRANCH   1   7
BRANCH   4  19
ATOM     19  C   UNL     1       3.399   6.053  17.899  0.00  0.00    +0.000 C 
BRANCH  19  20
ATOM     20  C   UNL     1       4.847   5.790  18.336  0.00  0.00    +0.000 C 
ATOM     21  S   UNL     1       6.110   6.456  17.204  0.00  0.00    +0.000 S 
ATOM     22  C   UNL     1       6.765   4.874  16.872  0.00  0.00    +0.000 C 
ATOM     23  O   UNL     1       7.550   4.638  15.969  0.00  0.00    +0.000 OA
ATOM     24  N   UNL     1       6.255   3.962  17.728  0.00  0.00    +0.000 N 
ATOM     25  C   UNL     1       5.165   4.315  18.460  0.00  0.00    +0.000 C 
ATOM     26  O   UNL     1       4.518   3.513  19.127  0.00  0.00    +0.000 OA
ATOM     27  H   UNL     1       6.520   2.993  17.643  0.00  0.00    +0.000 HD
ENDBRANCH  19  20
ENDBRANCH   4  19
TORSDOF 7
ENDMDL
MODEL 3
REMARK VINA RESULT:      -7.8      5.492      8.271
REMARK  Name = 
REMARK  8 active torsions:
REMARK  status: ('A' for Active; 'I' for Inactive)
REMARK    1  A    between atoms: C_1  and  C_2
REMARK    2  A    between atoms: C_2  and  C_3
REMARK    3  A    between atoms: C_6  and  C_7
REMARK    4  A    between atoms: C_7  and  C_9
REMARK    5  A    between atoms: C_9  and  O_10
REMARK    6  A    between atoms: O_10  and  C_11
REMARK    7  A    between atoms: C_14  and  C_15
REMARK    8  A    between atoms: C_15  and  C_16
REMARK                            x       y       z     vdW  Elec       q    Type
REMARK                         _______ _______ _______ _____ _____    ______ ____
ROOT
ATOM      1  C   UNL     1       4.835   6.464  17.703  0.00  0.00    +0.000 A 
ATOM      2  C   UNL     1       5.138   5.817  18.901  0.00  0.00    +0.000 A 
ATOM      3  C   UNL     1       4.128   5.266  19.682  0.00  0.00    +0.000 A 
ATOM      4  C   UNL     1       2.791   5.356  19.295  0.00  0.00    +0.000 A 
ATOM      5  C   UNL     1       2.486   5.999  18.082  0.00  0.00    +0.000 A 
ATOM      6  C   UNL     1       3.504   6.566  17.300  0.00  0.00    +0.000 A 
ENDROOT
BRANCH   1   7
ATOM      7  O   UNL     1       5.775   7.040  16.890  0.00  0.00    +0.000 OA
BRANCH   7   8
ATOM      8  C   UNL     1       7.113   6.645  17.179  0.00  0.00    +0.000 C 
BRANCH   8   9
ATOM      9  C   UNL     1       7.352   5.205  16.800  0.00  0.00    +0.000 C 
ATOM     10  O   UNL     1       7.993   4.449  17.535  0.00  0.00    +0.000 OA
BRANCH   9  14
ATOM     11  C   UNL     1       6.026   3.681  13.003  0.00  0.00    +0.000 A 
ATOM     12  C   UNL     1       5.380   3.329  14.193  0.00  0.00    +0.000 A 
ATOM     13  C   UNL     1       5.816   3.846  15.413  0.00  0.00    +0.000 A 
ATOM     14  C   UNL     1       6.898   4.729  15.459  0.00  0.00    +0.000 A 
ATOM     15  C   UNL     1       7.533   5.102  14.267  0.00  0.00    +0.000 A 
ATOM     16  C   UNL     1       7.091   4.588  13.045  0.00  0.00    +0.000 A 
BRANCH  11  18
ATOM     17  C   UNL     1       4.099   3.356  11.425  0.00  0.00    +0.000 C 
ATOM     18  C   UNL     1       5.573   3.098  11.690  0.00  0.00    +0.000 C 
ENDBRANCH  11  18
ENDBRANCH   9  14
ENDBRANCH   8   9
ENDBRANCH   7   8
ENDBRANCH   1   7
BRANCH   4  19
ATOM     19  C   UNL     1       1.723   4.739  20.171  0.00  0.00    +0.000 C 
BRANCH  19  20
ATOM     20  C   UNL     1       1.662   3.206  20.238  0.00  0.00    +0.000 C 
ATOM     21  S   UNL     1       3.274   2.396  20.493  0.00  0.00    +0.000 S 
ATOM     22  C   UNL     1       3.176   1.540  18.977  0.00  0.00    +0.000 C 
ATOM     23  O   UNL     1       4.116   0.955  18.463  0.00  0.00    +0.000 OA
ATOM     24  N   UNL     1       1.937   1.648  18.452  0.00  0.00    +0.000 N 
ATOM     25  C   UNL     1       1.103   2.586  18.975  0.00  0.00    +0.000 C 
ATOM     26  O   UNL     1       0.031   2.890  18.460  0.00  0.00    +0.000 OA
ATOM     27  H   UNL     1       1.733   1.225  17.559  0.00  0.00    +0.000 HD
ENDBRANCH  19  20
ENDBRANCH   4  19
TORSDOF 7
ENDMDL
MODEL 4
REMARK VINA RESULT:      -7.7      1.807      2.411
REMARK  Name = 
REMARK  8 active torsions:
REMARK  status: ('A' for Active; 'I' for Inactive)
REMARK    1  A    between atoms: C_1  and  C_2
REMARK    2  A    between atoms: C_2  and  C_3
REMARK    3  A    between atoms: C_6  and  C_7
REMARK    4  A    between atoms: C_7  and  C_9
REMARK    5  A    between atoms: C_9  and  O_10
REMARK    6  A    between atoms: O_10  and  C_11
REMARK    7  A    between atoms: C_14  and  C_15
REMARK    8  A    between atoms: C_15  and  C_16
REMARK                            x       y       z     vdW  Elec       q    Type
REMARK                         _______ _______ _______ _____ _____    ______ ____
ROOT
ATOM      1  C   UNL     1       2.345   7.679  18.908  0.00  0.00    +0.000 A 
ATOM      2  C   UNL     1       3.031   7.612  17.695  0.00  0.00    +0.000 A 
ATOM      3  C   UNL     1       3.808   6.502  17.383  0.00  0.00    +0.000 A 
ATOM      4  C   UNL     1       3.932   5.437  18.276  0.00  0.00    +0.000 A 
ATOM      5  C   UNL     1       3.231   5.500  19.494  0.00  0.00    +0.000 A 
ATOM      6  C   UNL     1       2.457   6.625  19.814  0.00  0.00    +0.000 A 
ENDROOT
BRANCH   1   7
ATOM      7  O   UNL     1       1.572   8.744  19.287  0.00  0.00    +0.000 OA
BRANCH   7   8
ATOM      8  C   UNL     1       1.445   9.754  18.290  0.00  0.00    +0.000 C 
BRANCH   8   9
ATOM      9  C   UNL     1       0.616  10.911  18.787  0.00  0.00    +0.000 C 
ATOM     10  O   UNL     1       1.111  11.797  19.490  0.00  0.00    +0.000 OA
BRANCH   9  14
ATOM     11  C   UNL     1      -3.578  10.904  17.833  0.00  0.00    +0.000 A 
ATOM     12  C   UNL     1      -2.701   9.975  17.261  0.00  0.00    +0.000 A 
ATOM     13  C   UNL     1      -1.346   9.985  17.596  0.00  0.00    +0.000 A 
ATOM     14  C   UNL     1      -0.852  10.916  18.511  0.00  0.00    +0.000 A 
ATOM     15  C   UNL     1      -1.731  11.832  19.104  0.00  0.00    +0.000 A 
ATOM     16  C   UNL     1      -3.088  11.818  18.772  0.00  0.00    +0.000 A 
BRANCH  11  18
ATOM     17  C   UNL     1      -5.652  12.296  17.571  0.00  0.00    +0.000 C 
ATOM     18  C   UNL     1      -5.034  10.913  17.447  0.00  0.00    +0.000 C 
ENDBRANCH  11  18
ENDBRANCH   9  14
ENDBRANCH   8   9
ENDBRANCH   7   8
ENDBRANCH   1   7
BRANCH   4  19
ATOM     19  C   UNL     1       4.783   4.247  17.895  0.00  0.00    +0.000 C 
BRANCH  19  20
ATOM     20  C   UNL     1       6.289   4.485  17.708  0.00  0.00    +0.000 C 
ATOM     21  S   UNL     1       6.959   5.877  18.672  0.00  0.00    +0.000 S 
ATOM     22  C   UNL     1       7.453   6.739  17.239  0.00  0.00    +0.000 C 
ATOM     23  O   UNL     1       7.802   7.908  17.234  0.00  0.00    +0.000 OA
ATOM     24  N   UNL     1       7.362   5.942  16.152  0.00  0.00    +0.000 N 
ATOM     25  C   UNL     1       6.662   4.783  16.271  0.00  0.00    +0.000 C 
ATOM     26  O   UNL     1       6.364   4.079  15.310  0.00  0.00    +0.000 OA
ATOM     27  H   UNL     1       7.589   6.310  15.242  0.00  0.00    +0.000 HD
ENDBRANCH  19  20
ENDBRANCH   4  19
TORSDOF 7
ENDMDL
MODEL 5
REMARK VINA RESULT:      -7.7      1.796      2.596
REMARK  Name = 
REMARK  8 active torsions:
REMARK  status: ('A' for Active; 'I' for Inactive)
REMARK    1  A    between atoms: C_1  and  C_2
REMARK    2  A    between atoms: C_2  and  C_3
REMARK    3  A    between atoms: C_6  and  C_7
REMARK    4  A    between atoms: C_7  and  C_9
REMARK    5  A    between atoms: C_9  and  O_10
REMARK    6  A    between atoms: O_10  and  C_11
REMARK    7  A    between atoms: C_14  and  C_15
REMARK    8  A    between atoms: C_15  and  C_16
REMARK                            x       y       z     vdW  Elec       q    Type
REMARK                         _______ _______ _______ _____ _____    ______ ____
ROOT
ATOM      1  C   UNL     1       2.390   7.672  18.905  0.00  0.00    +0.000 A 
ATOM      2  C   UNL     1       3.101   7.728  17.706  0.00  0.00    +0.000 A 
ATOM      3  C   UNL     1       3.887   6.656  17.299  0.00  0.00    +0.000 A 
ATOM      4  C   UNL     1       3.993   5.505  18.081  0.00  0.00    +0.000 A 
ATOM      5  C   UNL     1       3.267   5.444  19.284  0.00  0.00    +0.000 A 
ATOM      6  C   UNL     1       2.484   6.531  19.701  0.00  0.00    +0.000 A 
ENDROOT
BRANCH   1   7
ATOM      7  O   UNL     1       1.607   8.692  19.374  0.00  0.00    +0.000 OA
BRANCH   7   8
ATOM      8  C   UNL     1       1.218   9.632  18.376  0.00  0.00    +0.000 C 
BRANCH   8   9
ATOM      9  C   UNL     1       0.332  10.707  18.954  0.00  0.00    +0.000 C 
ATOM     10  O   UNL     1       0.733  11.451  19.853  0.00  0.00    +0.000 OA
BRANCH   9  14
ATOM     11  C   UNL     1      -3.806  10.960  17.804  0.00  0.00    +0.000 A 
ATOM     12  C   UNL     1      -3.265  11.818  18.769  0.00  0.00    +0.000 A 
ATOM     13  C   UNL     1      -1.917  11.730  19.116  0.00  0.00    +0.000 A 
ATOM     14  C   UNL     1      -1.089  10.789  18.500  0.00  0.00    +0.000 A 
ATOM     15  C   UNL     1      -1.620   9.944  17.517  0.00  0.00    +0.000 A 
ATOM     16  C   UNL     1      -2.970  10.037  17.165  0.00  0.00    +0.000 A 
BRANCH  11  18
ATOM     17  C   UNL     1      -5.770  12.469  17.388  0.00  0.00    +0.000 C 
ATOM     18  C   UNL     1      -5.268  11.035  17.452  0.00  0.00    +0.000 C 
ENDBRANCH  11  18
ENDBRANCH   9  14
ENDBRANCH   8   9
ENDBRANCH   7   8
ENDBRANCH   1   7
BRANCH   4  19
ATOM     19  C   UNL     1       4.855   4.360  17.599  0.00  0.00    +0.000 C 
BRANCH  19  20
ATOM     20  C   UNL     1       6.371   4.596  17.527  0.00  0.00    +0.000 C 
ATOM     21  S   UNL     1       7.019   5.733  18.795  0.00  0.00    +0.000 S 
ATOM     22  C   UNL     1       7.588   6.869  17.602  0.00  0.00    +0.000 C 
ATOM     23  O   UNL     1       7.955   8.004  17.862  0.00  0.00    +0.000 OA
ATOM     24  N   UNL     1       7.533   6.326  16.366  0.00  0.00    +0.000 N 
ATOM     25  C   UNL     1       6.811   5.186  16.204  0.00  0.00    +0.000 C 
ATOM     26  O   UNL     1       6.545   4.712  15.104  0.00  0.00    +0.000 OA
ATOM     27  H   UNL     1       7.805   6.876  15.565  0.00  0.00    +0.000 HD
ENDBRANCH  19  20
ENDBRANCH   4  19
TORSDOF 7
ENDMDL
MODEL 6
REMARK VINA RESULT:      -7.6      2.806      3.970
REMARK  Name = 
REMARK  8 active torsions:
REMARK  status: ('A' for Active; 'I' for Inactive)
REMARK    1  A    between atoms: C_1  and  C_2
REMARK    2  A    between atoms: C_2  and  C_3
REMARK    3  A    between atoms: C_6  and  C_7
REMARK    4  A    between atoms: C_7  and  C_9
REMARK    5  A    between atoms: C_9  and  O_10
REMARK    6  A    between atoms: O_10  and  C_11
REMARK    7  A    between atoms: C_14  and  C_15
REMARK    8  A    between atoms: C_15  and  C_16
REMARK                            x       y       z     vdW  Elec       q    Type
REMARK                         _______ _______ _______ _____ _____    ______ ____
ROOT
ATOM      1  C   UNL     1       1.197   9.124  19.440  0.00  0.00    +0.000 A 
ATOM      2  C   UNL     1       1.668   9.059  18.129  0.00  0.00    +0.000 A 
ATOM      3  C   UNL     1       2.430   7.976  17.704  0.00  0.00    +0.000 A 
ATOM      4  C   UNL     1       2.753   6.938  18.578  0.00  0.00    +0.000 A 
ATOM      5  C   UNL     1       2.269   6.998  19.897  0.00  0.00    +0.000 A 
ATOM      6  C   UNL     1       1.510   8.096  20.329  0.00  0.00    +0.000 A 
ENDROOT
BRANCH   1   7
ATOM      7  O   UNL     1       0.452  10.163  19.931  0.00  0.00    +0.000 OA
BRANCH   7   8
ATOM      8  C   UNL     1       1.016  11.448  19.686  0.00  0.00    +0.000 C 
BRANCH   8   9
ATOM      9  C   UNL     1       0.784  12.378  20.851  0.00  0.00    +0.000 C 
ATOM     10  O   UNL     1       1.713  13.018  21.352  0.00  0.00    +0.000 OA
BRANCH   9  14
ATOM     11  C   UNL     1      -3.134  12.690  22.597  0.00  0.00    +0.000 A 
ATOM     12  C   UNL     1      -2.839  13.282  21.364  0.00  0.00    +0.000 A 
ATOM     13  C   UNL     1      -1.565  13.156  20.807  0.00  0.00    +0.000 A 
ATOM     14  C   UNL     1      -0.574  12.431  21.471  0.00  0.00    +0.000 A 
ATOM     15  C   UNL     1      -0.872  11.817  22.694  0.00  0.00    +0.000 A 
ATOM     16  C   UNL     1      -2.149  11.939  23.248  0.00  0.00    +0.000 A 
BRANCH  11  18
ATOM     17  C   UNL     1      -4.537  12.386  24.658  0.00  0.00    +0.000 C 
ATOM     18  C   UNL     1      -4.500  12.853  23.212  0.00  0.00    +0.000 C 
ENDBRANCH  11  18
ENDBRANCH   9  14
ENDBRANCH   8   9
ENDBRANCH   7   8
ENDBRANCH   1   7
BRANCH   4  19
ATOM     19  C   UNL     1       3.580   5.776  18.073  0.00  0.00    +0.000 C 
BRANCH  19  20
ATOM     20  C   UNL     1       5.083   5.789  18.387  0.00  0.00    +0.000 C 
ATOM     21  S   UNL     1       6.126   6.469  17.058  0.00  0.00    +0.000 S 
ATOM     22  C   UNL     1       6.991   4.969  16.856  0.00  0.00    +0.000 C 
ATOM     23  O   UNL     1       7.726   4.727  15.913  0.00  0.00    +0.000 OA
ATOM     24  N   UNL     1       6.705   4.119  17.866  0.00  0.00    +0.000 N 
ATOM     25  C   UNL     1       5.638   4.407  18.658  0.00  0.00    +0.000 C 
ATOM     26  O   UNL     1       5.183   3.619  19.481  0.00  0.00    +0.000 OA
ATOM     27  H   UNL     1       7.111   3.196  17.873  0.00  0.00    +0.000 HD
ENDBRANCH  19  20
ENDBRANCH   4  19
TORSDOF 7
ENDMDL
MODEL 7
REMARK VINA RESULT:      -7.6      2.294      3.150
REMARK  Name = 
REMARK  8 active torsions:
REMARK  status: ('A' for Active; 'I' for Inactive)
REMARK    1  A    between atoms: C_1  and  C_2
REMARK    2  A    between atoms: C_2  and  C_3
REMARK    3  A    between atoms: C_6  and  C_7
REMARK    4  A    between atoms: C_7  and  C_9
REMARK    5  A    between atoms: C_9  and  O_10
REMARK    6  A    between atoms: O_10  and  C_11
REMARK    7  A    between atoms: C_14  and  C_15
REMARK    8  A    between atoms: C_15  and  C_16
REMARK                            x       y       z     vdW  Elec       q    Type
REMARK                         _______ _______ _______ _____ _____    ______ ____
ROOT
ATOM      1  C   UNL     1       2.102   7.949  19.056  0.00  0.00    +0.000 A 
ATOM      2  C   UNL     1       2.862   7.900  17.887  0.00  0.00    +0.000 A 
ATOM      3  C   UNL     1       3.725   6.836  17.648  0.00  0.00    +0.000 A 
ATOM      4  C   UNL     1       3.862   5.801  18.573  0.00  0.00    +0.000 A 
ATOM      5  C   UNL     1       3.087   5.844  19.746  0.00  0.00    +0.000 A 
ATOM      6  C   UNL     1       2.226   6.924  19.993  0.00  0.00    +0.000 A 
ENDROOT
BRANCH   1   7
ATOM      7  O   UNL     1       1.243   8.970  19.362  0.00  0.00    +0.000 OA
BRANCH   7   8
ATOM      8  C   UNL     1       1.175   9.990  18.371  0.00  0.00    +0.000 C 
BRANCH   8   9
ATOM      9  C   UNL     1       0.336  11.152  18.839  0.00  0.00    +0.000 C 
ATOM     10  O   UNL     1       0.827  12.067  19.507  0.00  0.00    +0.000 OA
BRANCH   9  14
ATOM     11  C   UNL     1      -3.867  11.074  17.927  0.00  0.00    +0.000 A 
ATOM     12  C   UNL     1      -2.973  10.189  17.314  0.00  0.00    +0.000 A 
ATOM     13  C   UNL     1      -1.616  10.220  17.635  0.00  0.00    +0.000 A 
ATOM     14  C   UNL     1      -1.134  11.130  18.578  0.00  0.00    +0.000 A 
ATOM     15  C   UNL     1      -2.029  12.003  19.212  0.00  0.00    +0.000 A 
ATOM     16  C   UNL     1      -3.389  11.966  18.894  0.00  0.00    +0.000 A 
BRANCH  11  18
ATOM     17  C   UNL     1      -6.210  10.649  18.724  0.00  0.00    +0.000 C 
ATOM     18  C   UNL     1      -5.327  11.060  17.558  0.00  0.00    +0.000 C 
ENDBRANCH  11  18
ENDBRANCH   9  14
ENDBRANCH   8   9
ENDBRANCH   7   8
ENDBRANCH   1   7
BRANCH   4  19
ATOM     19  C   UNL     1       4.808   4.659  18.272  0.00  0.00    +0.000 C 
BRANCH  19  20
ATOM     20  C   UNL     1       4.192   3.273  18.035  0.00  0.00    +0.000 C 
ATOM     21  S   UNL     1       2.542   3.302  17.262  0.00  0.00    +0.000 S 
ATOM     22  C   UNL     1       1.796   2.521  18.631  0.00  0.00    +0.000 C 
ATOM     23  O   UNL     1       0.590   2.448  18.800  0.00  0.00    +0.000 OA
ATOM     24  N   UNL     1       2.738   2.048  19.477  0.00  0.00    +0.000 N 
ATOM     25  C   UNL     1       4.015   2.482  19.314  0.00  0.00    +0.000 C 
ATOM     26  O   UNL     1       4.906   2.261  20.128  0.00  0.00    +0.000 OA
ATOM     27  H   UNL     1       2.458   1.592  20.332  0.00  0.00    +0.000 HD
ENDBRANCH  19  20
ENDBRANCH   4  19
TORSDOF 7
ENDMDL
MODEL 8
REMARK VINA RESULT:      -7.6      3.415      4.439
REMARK  Name = 
REMARK  8 active torsions:
REMARK  status: ('A' for Active; 'I' for Inactive)
REMARK    1  A    between atoms: C_1  and  C_2
REMARK    2  A    between atoms: C_2  and  C_3
REMARK    3  A    between atoms: C_6  and  C_7
REMARK    4  A    between atoms: C_7  and  C_9
REMARK    5  A    between atoms: C_9  and  O_10
REMARK    6  A    between atoms: O_10  and  C_11
REMARK    7  A    between atoms: C_14  and  C_15
REMARK    8  A    between atoms: C_15  and  C_16
REMARK                            x       y       z     vdW  Elec       q    Type
REMARK                         _______ _______ _______ _____ _____    ______ ____
ROOT
ATOM      1  C   UNL     1       2.301   7.518  19.252  0.00  0.00    +0.000 A 
ATOM      2  C   UNL     1       2.427   6.255  19.832  0.00  0.00    +0.000 A 
ATOM      3  C   UNL     1       3.184   5.266  19.214  0.00  0.00    +0.000 A 
ATOM      4  C   UNL     1       3.824   5.506  17.998  0.00  0.00    +0.000 A 
ATOM      5  C   UNL     1       3.706   6.782  17.419  0.00  0.00    +0.000 A 
ATOM      6  C   UNL     1       2.932   7.776  18.036  0.00  0.00    +0.000 A 
ENDROOT
BRANCH   1   7
ATOM      7  O   UNL     1       1.563   8.535  19.796  0.00  0.00    +0.000 OA
BRANCH   7   8
ATOM      8  C   UNL     1       0.996   8.226  21.066  0.00  0.00    +0.000 C 
BRANCH   8   9
ATOM      9  C   UNL     1       1.107   9.395  22.013  0.00  0.00    +0.000 C 
ATOM     10  O   UNL     1       2.035   9.475  22.822  0.00  0.00    +0.000 OA
BRANCH   9  14
ATOM     11  C   UNL     1      -2.155  12.196  22.149  0.00  0.00    +0.000 A 
ATOM     12  C   UNL     1      -1.898  11.327  23.215  0.00  0.00    +0.000 A 
ATOM     13  C   UNL     1      -0.825  10.437  23.158  0.00  0.00    +0.000 A 
ATOM     14  C   UNL     1       0.009  10.407  22.039  0.00  0.00    +0.000 A 
ATOM     15  C   UNL     1      -0.231  11.291  20.978  0.00  0.00    +0.000 A 
ATOM     16  C   UNL     1      -1.302  12.187  21.039  0.00  0.00    +0.000 A 
BRANCH  11  18
ATOM     17  C   UNL     1      -3.990  13.158  23.568  0.00  0.00    +0.000 C 
ATOM     18  C   UNL     1      -3.331  13.135  22.198  0.00  0.00    +0.000 C 
ENDBRANCH  11  18
ENDBRANCH   9  14
ENDBRANCH   8   9
ENDBRANCH   7   8
ENDBRANCH   1   7
BRANCH   4  19
ATOM     19  C   UNL     1       4.642   4.403  17.362  0.00  0.00    +0.000 C 
BRANCH  19  20
ATOM     20  C   UNL     1       6.168   4.570  17.352  0.00  0.00    +0.000 C 
ATOM     21  S   UNL     1       6.823   5.605  18.701  0.00  0.00    +0.000 S 
ATOM     22  C   UNL     1       7.485   6.776  17.592  0.00  0.00    +0.000 C 
ATOM     23  O   UNL     1       7.895   7.876  17.926  0.00  0.00    +0.000 OA
ATOM     24  N   UNL     1       7.448   6.304  16.327  0.00  0.00    +0.000 N 
ATOM     25  C   UNL     1       6.680   5.209  16.079  0.00  0.00    +0.000 C 
ATOM     26  O   UNL     1       6.432   4.809  14.946  0.00  0.00    +0.000 OA
ATOM     27  H   UNL     1       7.773   6.882  15.567  0.00  0.00    +0.000 HD
ENDBRANCH  19  20
ENDBRANCH   4  19
TORSDOF 7
ENDMDL
MODEL 9
REMARK VINA RESULT:      -7.5      2.639      3.754
REMARK  Name = 
REMARK  8 active torsions:
REMARK  status: ('A' for Active; 'I' for Inactive)
REMARK    1  A    between atoms: C_1  and  C_2
REMARK    2  A    between atoms: C_2  and  C_3
REMARK    3  A    between atoms: C_6  and  C_7
REMARK    4  A    between atoms: C_7  and  C_9
REMARK    5  A    between atoms: C_9  and  O_10
REMARK    6  A    between atoms: O_10  and  C_11
REMARK    7  A    between atoms: C_14  and  C_15
REMARK    8  A    between atoms: C_15  and  C_16
REMARK                            x       y       z     vdW  Elec       q    Type
REMARK                         _______ _______ _______ _____ _____    ______ ____
ROOT
ATOM      1  C   UNL     1       3.009   7.607  18.134  0.00  0.00    +0.000 A 
ATOM      2  C   UNL     1       4.028   7.003  17.397  0.00  0.00    +0.000 A 
ATOM      3  C   UNL     1       4.563   5.784  17.797  0.00  0.00    +0.000 A 
ATOM      4  C   UNL     1       4.104   5.141  18.947  0.00  0.00    +0.000 A 
ATOM      5  C   UNL     1       3.069   5.744  19.684  0.00  0.00    +0.000 A 
ATOM      6  C   UNL     1       2.538   6.980  19.287  0.00  0.00    +0.000 A 
ENDROOT
BRANCH   1   7
ATOM      7  O   UNL     1       2.444   8.811  17.807  0.00  0.00    +0.000 OA
BRANCH   7   8
ATOM      8  C   UNL     1       1.021   8.791  17.757  0.00  0.00    +0.000 C 
BRANCH   8   9
ATOM      9  C   UNL     1       0.431   9.944  18.530  0.00  0.00    +0.000 C 
ATOM     10  O   UNL     1       1.033  10.451  19.481  0.00  0.00    +0.000 OA
BRANCH   9  14
ATOM     11  C   UNL     1      -3.591  11.251  17.745  0.00  0.00    +0.000 A 
ATOM     12  C   UNL     1      -2.831  11.817  18.775  0.00  0.00    +0.000 A 
ATOM     13  C   UNL     1      -1.522  11.389  19.004  0.00  0.00    +0.000 A 
ATOM     14  C   UNL     1      -0.953  10.398  18.202  0.00  0.00    +0.000 A 
ATOM     15  C   UNL     1      -1.703   9.845  17.154  0.00  0.00    +0.000 A 
ATOM     16  C   UNL     1      -3.011  10.278  16.922  0.00  0.00    +0.000 A 
BRANCH  11  18
ATOM     17  C   UNL     1      -6.002  10.885  18.345  0.00  0.00    +0.000 C 
ATOM     18  C   UNL     1      -5.013  11.692  17.519  0.00  0.00    +0.000 C 
ENDBRANCH  11  18
ENDBRANCH   9  14
ENDBRANCH   8   9
ENDBRANCH   7   8
ENDBRANCH   1   7
BRANCH   4  19
ATOM     19  C   UNL     1       4.710   3.813  19.344  0.00  0.00    +0.000 C 
BRANCH  19  20
ATOM     20  C   UNL     1       3.800   2.577  19.293  0.00  0.00    +0.000 C 
ATOM     21  S   UNL     1       2.713   2.499  17.833  0.00  0.00    +0.000 S 
ATOM     22  C   UNL     1       1.267   2.538  18.806  0.00  0.00    +0.000 C 
ATOM     23  O   UNL     1       0.148   2.729  18.356  0.00  0.00    +0.000 OA
ATOM     24  N   UNL     1       1.568   2.362  20.111  0.00  0.00    +0.000 N 
ATOM     25  C   UNL     1       2.870   2.483  20.484  0.00  0.00    +0.000 C 
ATOM     26  O   UNL     1       3.229   2.522  21.657  0.00  0.00    +0.000 OA
ATOM     27  H   UNL     1       0.835   2.388  20.802  0.00  0.00    +0.000 HD
ENDBRANCH  19  20
ENDBRANCH   4  19
TORSDOF 7
ENDMDL
