MODEL 1
REMARK VINA RESULT:      -6.8      0.000      0.000
REMARK  Name = 
REMARK  7 active torsions:
REMARK  status: ('A' for Active; 'I' for Inactive)
REMARK    1  A    between atoms: C_1  and  O_2
REMARK    2  A    between atoms: O_2  and  C_3
REMARK    3  A    between atoms: C_6  and  N_7
REMARK    4  A    between atoms: N_7  and  C_8
REMARK    5  A    between atoms: N_7  and  C_11
REMARK    6  A    between atoms: C_8  and  C_9
REMARK    7  A    between atoms: C_11  and  C_12
REMARK                            x       y       z     vdW  Elec       q    Type
REMARK                         _______ _______ _______ _____ _____    ______ ____
ROOT
ATOM      1  N   UNL     1       2.140   5.247  19.517  0.00  0.00    +0.000 N 
ENDROOT
BRANCH   1   5
ATOM      2  C   UNL     1       5.703   4.413  17.345  0.00  0.00    +0.000 A 
ATOM      3  C   UNL     1       5.739   4.994  18.606  0.00  0.00    +0.000 A 
ATOM      4  C   UNL     1       4.556   5.229  19.317  0.00  0.00    +0.000 A 
ATOM      5  C   UNL     1       3.291   4.930  18.785  0.00  0.00    +0.000 A 
ATOM      6  C   UNL     1       3.275   4.331  17.517  0.00  0.00    +0.000 A 
ATOM      7  C   UNL     1       4.468   4.063  16.807  0.00  0.00    +0.000 A 
BRANCH   2   9
ATOM      8  C   UNL     1       7.010   4.702  15.381  0.00  0.00    +0.000 C 
ATOM      9  O   UNL     1       6.922   4.297  16.740  0.00  0.00    +0.000 OA
ENDBRANCH   2   9
ENDBRANCH   1   5
BRANCH   1  10
ATOM     10  C   UNL     1       1.214   4.168  19.972  0.00  0.00    +0.000 C 
BRANCH  10  11
ATOM     11  C   UNL     1       1.830   3.453  21.163  0.00  0.00    +0.000 C 
ATOM     12  N   UNL     1       2.342   2.859  22.152  0.00  0.00    +0.000 NA
ENDBRANCH  10  11
ENDBRANCH   1  10
BRANCH   1  13
ATOM     13  C   UNL     1       2.280   6.416  20.425  0.00  0.00    +0.000 C 
BRANCH  13  14
ATOM     14  C   UNL     1       1.881   7.745  19.808  0.00  0.00    +0.000 A 
ATOM     15  C   UNL     1       2.157   8.106  18.480  0.00  0.00    +0.000 A 
ATOM     16  C   UNL     1       1.775   9.359  17.987  0.00  0.00    +0.000 A 
ATOM     17  C   UNL     1       1.096  10.247  18.814  0.00  0.00    +0.000 A 
ATOM     18  F   UNL     1       0.755  11.456  18.347  0.00  0.00    +0.000 F 
ATOM     19  C   UNL     1       0.773   9.900  20.115  0.00  0.00    +0.000 A 
ATOM     20  C   UNL     1       1.159   8.653  20.595  0.00  0.00    +0.000 A 
ATOM     21  F   UNL     1       0.824   8.320  21.851  0.00  0.00    +0.000 F 
ENDBRANCH  13  14
ENDBRANCH   1  13
TORSDOF 6
ENDMDL
MODEL 2
REMARK VINA RESULT:      -6.8      1.264      1.451
REMARK  Name = 
REMARK  7 active torsions:
REMARK  status: ('A' for Active; 'I' for Inactive)
REMARK    1  A    between atoms: C_1  and  O_2
REMARK    2  A    between atoms: O_2  and  C_3
REMARK    3  A    between atoms: C_6  and  N_7
REMARK    4  A    between atoms: N_7  and  C_8
REMARK    5  A    between atoms: N_7  and  C_11
REMARK    6  A    between atoms: C_8  and  C_9
REMARK    7  A    between atoms: C_11  and  C_12
REMARK                            x       y       z     vdW  Elec       q    Type
REMARK                         _______ _______ _______ _____ _____    ______ ____
ROOT
ATOM      1  N   UNL     1       2.733   5.513  18.068  0.00  0.00    +0.000 N 
ENDROOT
BRANCH   1   5
ATOM      2  C   UNL     1       6.363   4.868  15.943  0.00  0.00    +0.000 A 
ATOM      3  C   UNL     1       6.064   6.097  16.516  0.00  0.00    +0.000 A 
ATOM      4  C   UNL     1       4.879   6.278  17.239  0.00  0.00    +0.000 A 
ATOM      5  C   UNL     1       3.929   5.254  17.388  0.00  0.00    +0.000 A 
ATOM      6  C   UNL     1       4.254   4.015  16.815  0.00  0.00    +0.000 A 
ATOM      7  C   UNL     1       5.464   3.819  16.109  0.00  0.00    +0.000 A 
BRANCH   2   9
ATOM      8  C   UNL     1       7.396   4.938  13.803  0.00  0.00    +0.000 C 
ATOM      9  O   UNL     1       7.519   4.848  15.215  0.00  0.00    +0.000 OA
ENDBRANCH   2   9
ENDBRANCH   1   5
BRANCH   1  10
ATOM     10  C   UNL     1       1.663   4.474  18.133  0.00  0.00    +0.000 C 
BRANCH  10  11
ATOM     11  C   UNL     1       1.426   4.092  19.585  0.00  0.00    +0.000 C 
ATOM     12  N   UNL     1       1.229   3.775  20.790  0.00  0.00    +0.000 NA
ENDBRANCH  10  11
ENDBRANCH   1  10
BRANCH   1  13
ATOM     13  C   UNL     1       2.869   6.388  19.261  0.00  0.00    +0.000 C 
BRANCH  13  14
ATOM     14  C   UNL     1       2.143   7.717  19.154  0.00  0.00    +0.000 A 
ATOM     15  C   UNL     1       2.084   8.486  17.982  0.00  0.00    +0.000 A 
ATOM     16  C   UNL     1       1.411   9.713  17.966  0.00  0.00    +0.000 A 
ATOM     17  C   UNL     1       0.775  10.166  19.117  0.00  0.00    +0.000 A 
ATOM     18  F   UNL     1       0.154  11.353  19.105  0.00  0.00    +0.000 F 
ATOM     19  C   UNL     1       0.780   9.408  20.276  0.00  0.00    +0.000 A 
ATOM     20  C   UNL     1       1.455   8.191  20.281  0.00  0.00    +0.000 A 
ATOM     21  F   UNL     1       1.437   7.456  21.403  0.00  0.00    +0.000 F 
ENDBRANCH  13  14
ENDBRANCH   1  13
TORSDOF 6
ENDMDL
MODEL 3
REMARK VINA RESULT:      -6.8      0.267      1.070
REMARK  Name = 
REMARK  7 active torsions:
REMARK  status: ('A' for Active; 'I' for Inactive)
REMARK    1  A    between atoms: C_1  and  O_2
REMARK    2  A    between atoms: O_2  and  C_3
REMARK    3  A    between atoms: C_6  and  N_7
REMARK    4  A    between atoms: N_7  and  C_8
REMARK    5  A    between atoms: N_7  and  C_11
REMARK    6  A    between atoms: C_8  and  C_9
REMARK    7  A    between atoms: C_11  and  C_12
REMARK                            x       y       z     vdW  Elec       q    Type
REMARK                         _______ _______ _______ _____ _____    ______ ____
ROOT
ATOM      1  N   UNL     1       2.339   5.185  19.355  0.00  0.00    +0.000 N 
ENDROOT
BRANCH   1   5
ATOM      2  C   UNL     1       6.008   4.620  17.275  0.00  0.00    +0.000 A 
ATOM      3  C   UNL     1       4.782   4.432  16.651  0.00  0.00    +0.000 A 
ATOM      4  C   UNL     1       3.587   4.656  17.345  0.00  0.00    +0.000 A 
ATOM      5  C   UNL     1       3.566   5.039  18.696  0.00  0.00    +0.000 A 
ATOM      6  C   UNL     1       4.813   5.238  19.306  0.00  0.00    +0.000 A 
ATOM      7  C   UNL     1       6.024   5.043  18.601  0.00  0.00    +0.000 A 
BRANCH   2   9
ATOM      8  C   UNL     1       7.001   4.598  15.115  0.00  0.00    +0.000 C 
ATOM      9  O   UNL     1       7.091   4.308  16.503  0.00  0.00    +0.000 OA
ENDBRANCH   2   9
ENDBRANCH   1   5
BRANCH   1  10
ATOM     10  C   UNL     1       1.507   3.987  19.674  0.00  0.00    +0.000 C 
BRANCH  10  11
ATOM     11  C   UNL     1       1.947   3.417  21.012  0.00  0.00    +0.000 C 
ATOM     12  N   UNL     1       2.311   2.945  22.124  0.00  0.00    +0.000 NA
ENDBRANCH  10  11
ENDBRANCH   1  10
BRANCH   1  13
ATOM     13  C   UNL     1       2.287   6.299  20.338  0.00  0.00    +0.000 C 
BRANCH  13  14
ATOM     14  C   UNL     1       1.905   7.644  19.746  0.00  0.00    +0.000 A 
ATOM     15  C   UNL     1       2.139   8.008  18.411  0.00  0.00    +0.000 A 
ATOM     16  C   UNL     1       1.776   9.276  17.943  0.00  0.00    +0.000 A 
ATOM     17  C   UNL     1       1.158  10.178  18.803  0.00  0.00    +0.000 A 
ATOM     18  F   UNL     1       0.835  11.400  18.358  0.00  0.00    +0.000 F 
ATOM     19  C   UNL     1       0.876   9.830  20.113  0.00  0.00    +0.000 A 
ATOM     20  C   UNL     1       1.243   8.568  20.569  0.00  0.00    +0.000 A 
ATOM     21  F   UNL     1       0.948   8.235  21.834  0.00  0.00    +0.000 F 
ENDBRANCH  13  14
ENDBRANCH   1  13
TORSDOF 6
ENDMDL
MODEL 4
REMARK VINA RESULT:      -6.8      3.472      5.920
REMARK  Name = 
REMARK  7 active torsions:
REMARK  status: ('A' for Active; 'I' for Inactive)
REMARK    1  A    between atoms: C_1  and  O_2
REMARK    2  A    between atoms: O_2  and  C_3
REMARK    3  A    between atoms: C_6  and  N_7
REMARK    4  A    between atoms: N_7  and  C_8
REMARK    5  A    between atoms: N_7  and  C_11
REMARK    6  A    between atoms: C_8  and  C_9
REMARK    7  A    between atoms: C_11  and  C_12
REMARK                            x       y       z     vdW  Elec       q    Type
REMARK                         _______ _______ _______ _____ _____    ______ ____
ROOT
ATOM      1  N   UNL     1       2.864   4.969  18.583  0.00  0.00    +0.000 N 
ENDROOT
BRANCH   1   5
ATOM      2  C   UNL     1       1.520   8.915  19.437  0.00  0.00    +0.000 A 
ATOM      3  C   UNL     1       1.856   8.524  18.148  0.00  0.00    +0.000 A 
ATOM      4  C   UNL     1       2.265   7.211  17.884  0.00  0.00    +0.000 A 
ATOM      5  C   UNL     1       2.389   6.248  18.898  0.00  0.00    +0.000 A 
ATOM      6  C   UNL     1       2.031   6.656  20.191  0.00  0.00    +0.000 A 
ATOM      7  C   UNL     1       1.590   7.973  20.459  0.00  0.00    +0.000 A 
BRANCH   2   9
ATOM      8  C   UNL     1       0.050  10.552  20.337  0.00  0.00    +0.000 C 
ATOM      9  O   UNL     1       1.199  10.237  19.563  0.00  0.00    +0.000 OA
ENDBRANCH   2   9
ENDBRANCH   1   5
BRANCH   1  10
ATOM     10  C   UNL     1       1.960   3.785  18.676  0.00  0.00    +0.000 C 
BRANCH  10  11
ATOM     11  C   UNL     1       2.784   2.516  18.537  0.00  0.00    +0.000 C 
ATOM     12  N   UNL     1       3.468   1.462  18.420  0.00  0.00    +0.000 NA
ENDBRANCH  10  11
ENDBRANCH   1  10
BRANCH   1  13
ATOM     13  C   UNL     1       3.884   4.930  17.503  0.00  0.00    +0.000 C 
BRANCH  13  14
ATOM     14  C   UNL     1       5.231   5.519  17.886  0.00  0.00    +0.000 A 
ATOM     15  C   UNL     1       5.986   5.094  18.991  0.00  0.00    +0.000 A 
ATOM     16  C   UNL     1       7.211   5.699  19.293  0.00  0.00    +0.000 A 
ATOM     17  C   UNL     1       7.697   6.717  18.479  0.00  0.00    +0.000 A 
ATOM     18  F   UNL     1       8.857   7.312  18.785  0.00  0.00    +0.000 F 
ATOM     19  C   UNL     1       6.993   7.126  17.358  0.00  0.00    +0.000 A 
ATOM     20  C   UNL     1       5.775   6.519  17.068  0.00  0.00    +0.000 A 
ATOM     21  F   UNL     1       5.112   6.910  15.970  0.00  0.00    +0.000 F 
ENDBRANCH  13  14
ENDBRANCH   1  13
TORSDOF 6
ENDMDL
MODEL 5
REMARK VINA RESULT:      -6.7      3.349      5.789
REMARK  Name = 
REMARK  7 active torsions:
REMARK  status: ('A' for Active; 'I' for Inactive)
REMARK    1  A    between atoms: C_1  and  O_2
REMARK    2  A    between atoms: O_2  and  C_3
REMARK    3  A    between atoms: C_6  and  N_7
REMARK    4  A    between atoms: N_7  and  C_8
REMARK    5  A    between atoms: N_7  and  C_11
REMARK    6  A    between atoms: C_8  and  C_9
REMARK    7  A    between atoms: C_11  and  C_12
REMARK                            x       y       z     vdW  Elec       q    Type
REMARK                         _______ _______ _______ _____ _____    ______ ____
ROOT
ATOM      1  N   UNL     1       2.719   5.019  18.516  0.00  0.00    +0.000 N 
ENDROOT
BRANCH   1   5
ATOM      2  C   UNL     1       1.502   8.990  19.440  0.00  0.00    +0.000 A 
ATOM      3  C   UNL     1       1.647   8.026  20.428  0.00  0.00    +0.000 A 
ATOM      4  C   UNL     1       2.080   6.734  20.106  0.00  0.00    +0.000 A 
ATOM      5  C   UNL     1       2.351   6.343  18.784  0.00  0.00    +0.000 A 
ATOM      6  C   UNL     1       2.213   7.334  17.801  0.00  0.00    +0.000 A 
ATOM      7  C   UNL     1       1.804   8.649  18.125  0.00  0.00    +0.000 A 
BRANCH   2   9
ATOM      8  C   UNL     1      -0.167  10.152  20.670  0.00  0.00    +0.000 C 
ATOM      9  O   UNL     1       1.014  10.187  19.883  0.00  0.00    +0.000 OA
ENDBRANCH   2   9
ENDBRANCH   1   5
BRANCH   1  10
ATOM     10  C   UNL     1       1.705   3.925  18.588  0.00  0.00    +0.000 C 
BRANCH  10  11
ATOM     11  C   UNL     1       1.838   3.210  19.922  0.00  0.00    +0.000 C 
ATOM     12  N   UNL     1       1.948   2.616  21.030  0.00  0.00    +0.000 NA
ENDBRANCH  10  11
ENDBRANCH   1  10
BRANCH   1  13
ATOM     13  C   UNL     1       3.779   4.862  17.486  0.00  0.00    +0.000 C 
BRANCH  13  14
ATOM     14  C   UNL     1       5.124   5.453  17.871  0.00  0.00    +0.000 A 
ATOM     15  C   UNL     1       5.857   5.061  19.002  0.00  0.00    +0.000 A 
ATOM     16  C   UNL     1       7.083   5.667  19.302  0.00  0.00    +0.000 A 
ATOM     17  C   UNL     1       7.590   6.652  18.461  0.00  0.00    +0.000 A 
ATOM     18  F   UNL     1       8.750   7.248  18.766  0.00  0.00    +0.000 F 
ATOM     19  C   UNL     1       6.908   7.027  17.315  0.00  0.00    +0.000 A 
ATOM     20  C   UNL     1       5.690   6.420  17.027  0.00  0.00    +0.000 A 
ATOM     21  F   UNL     1       5.048   6.778  15.905  0.00  0.00    +0.000 F 
ENDBRANCH  13  14
ENDBRANCH   1  13
TORSDOF 6
ENDMDL
MODEL 6
REMARK VINA RESULT:      -6.7      3.919      5.788
REMARK  Name = 
REMARK  7 active torsions:
REMARK  status: ('A' for Active; 'I' for Inactive)
REMARK    1  A    between atoms: C_1  and  O_2
REMARK    2  A    between atoms: O_2  and  C_3
REMARK    3  A    between atoms: C_6  and  N_7
REMARK    4  A    between atoms: N_7  and  C_8
REMARK    5  A    between atoms: N_7  and  C_11
REMARK    6  A    between atoms: C_8  and  C_9
REMARK    7  A    between atoms: C_11  and  C_12
REMARK                            x       y       z     vdW  Elec       q    Type
REMARK                         _______ _______ _______ _____ _____    ______ ____
ROOT
ATOM      1  N   UNL     1       5.394   4.405  16.458  0.00  0.00    +0.000 N 
ENDROOT
BRANCH   1   5
ATOM      2  C   UNL     1       7.898   7.286  18.339  0.00  0.00    +0.000 A 
ATOM      3  C   UNL     1       6.919   7.658  17.428  0.00  0.00    +0.000 A 
ATOM      4  C   UNL     1       6.084   6.697  16.846  0.00  0.00    +0.000 A 
ATOM      5  C   UNL     1       6.216   5.325  17.120  0.00  0.00    +0.000 A 
ATOM      6  C   UNL     1       7.202   4.969  18.052  0.00  0.00    +0.000 A 
ATOM      7  C   UNL     1       8.028   5.939  18.666  0.00  0.00    +0.000 A 
BRANCH   2   9
ATOM      8  C   UNL     1       8.476   9.586  18.184  0.00  0.00    +0.000 C 
ATOM      9  O   UNL     1       8.681   8.314  18.782  0.00  0.00    +0.000 OA
ENDBRANCH   2   9
ENDBRANCH   1   5
BRANCH   1  10
ATOM     10  C   UNL     1       5.619   4.095  15.015  0.00  0.00    +0.000 C 
BRANCH  10  11
ATOM     11  C   UNL     1       6.867   4.820  14.538  0.00  0.00    +0.000 C 
ATOM     12  N   UNL     1       7.903   5.422  14.142  0.00  0.00    +0.000 NA
ENDBRANCH  10  11
ENDBRANCH   1  10
BRANCH   1  13
ATOM     13  C   UNL     1       4.910   3.281  17.301  0.00  0.00    +0.000 C 
BRANCH  13  14
ATOM     14  C   UNL     1       3.749   3.633  18.215  0.00  0.00    +0.000 A 
ATOM     15  C   UNL     1       3.901   4.116  19.524  0.00  0.00    +0.000 A 
ATOM     16  C   UNL     1       2.781   4.400  20.314  0.00  0.00    +0.000 A 
ATOM     17  C   UNL     1       1.505   4.223  19.790  0.00  0.00    +0.000 A 
ATOM     18  F   UNL     1       0.435   4.471  20.558  0.00  0.00    +0.000 F 
ATOM     19  C   UNL     1       1.326   3.789  18.487  0.00  0.00    +0.000 A 
ATOM     20  C   UNL     1       2.446   3.507  17.712  0.00  0.00    +0.000 A 
ATOM     21  F   UNL     1       2.261   3.106  16.445  0.00  0.00    +0.000 F 
ENDBRANCH  13  14
ENDBRANCH   1  13
TORSDOF 6
ENDMDL
MODEL 7
REMARK VINA RESULT:      -6.7      3.638      5.499
REMARK  Name = 
REMARK  7 active torsions:
REMARK  status: ('A' for Active; 'I' for Inactive)
REMARK    1  A    between atoms: C_1  and  O_2
REMARK    2  A    between atoms: O_2  and  C_3
REMARK    3  A    between atoms: C_6  and  N_7
REMARK    4  A    between atoms: N_7  and  C_8
REMARK    5  A    between atoms: N_7  and  C_11
REMARK    6  A    between atoms: C_8  and  C_9
REMARK    7  A    between atoms: C_11  and  C_12
REMARK                            x       y       z     vdW  Elec       q    Type
REMARK                         _______ _______ _______ _____ _____    ______ ____
ROOT
ATOM      1  N   UNL     1       6.000   5.632  17.165  0.00  0.00    +0.000 N 
ENDROOT
BRANCH   1   5
ATOM      2  C   UNL     1       6.484   4.005  13.263  0.00  0.00    +0.000 A 
ATOM      3  C   UNL     1       5.347   3.754  14.020  0.00  0.00    +0.000 A 
ATOM      4  C   UNL     1       5.194   4.327  15.288  0.00  0.00    +0.000 A 
ATOM      5  C   UNL     1       6.182   5.140  15.867  0.00  0.00    +0.000 A 
ATOM      6  C   UNL     1       7.317   5.394  15.083  0.00  0.00    +0.000 A 
ATOM      7  C   UNL     1       7.464   4.842  13.789  0.00  0.00    +0.000 A 
BRANCH   2   9
ATOM      8  C   UNL     1       5.385   2.582  11.708  0.00  0.00    +0.000 C 
ATOM      9  O   UNL     1       6.532   3.335  12.073  0.00  0.00    +0.000 OA
ENDBRANCH   2   9
ENDBRANCH   1   5
BRANCH   1  10
ATOM     10  C   UNL     1       7.058   6.465  17.810  0.00  0.00    +0.000 C 
BRANCH  10  11
ATOM     11  C   UNL     1       7.471   5.818  19.122  0.00  0.00    +0.000 C 
ATOM     12  N   UNL     1       7.814   5.280  20.210  0.00  0.00    +0.000 NA
ENDBRANCH  10  11
ENDBRANCH   1  10
BRANCH   1  13
ATOM     13  C   UNL     1       4.596   5.972  17.513  0.00  0.00    +0.000 C 
BRANCH  13  14
ATOM     14  C   UNL     1       3.855   4.888  18.277  0.00  0.00    +0.000 A 
ATOM     15  C   UNL     1       4.486   3.806  18.909  0.00  0.00    +0.000 A 
ATOM     16  C   UNL     1       3.733   2.834  19.578  0.00  0.00    +0.000 A 
ATOM     17  C   UNL     1       2.349   2.952  19.636  0.00  0.00    +0.000 A 
ATOM     18  F   UNL     1       1.630   2.006  20.255  0.00  0.00    +0.000 F 
ATOM     19  C   UNL     1       1.704   4.033  19.058  0.00  0.00    +0.000 A 
ATOM     20  C   UNL     1       2.462   4.992  18.394  0.00  0.00    +0.000 A 
ATOM     21  F   UNL     1       1.828   6.045  17.854  0.00  0.00    +0.000 F 
ENDBRANCH  13  14
ENDBRANCH   1  13
TORSDOF 6
ENDMDL
MODEL 8
REMARK VINA RESULT:      -6.7      3.664      5.397
REMARK  Name = 
REMARK  7 active torsions:
REMARK  status: ('A' for Active; 'I' for Inactive)
REMARK    1  A    between atoms: C_1  and  O_2
REMARK    2  A    between atoms: O_2  and  C_3
REMARK    3  A    between atoms: C_6  and  N_7
REMARK    4  A    between atoms: N_7  and  C_8
REMARK    5  A    between atoms: N_7  and  C_11
REMARK    6  A    between atoms: C_8  and  C_9
REMARK    7  A    between atoms: C_11  and  C_12
REMARK                            x       y       z     vdW  Elec       q    Type
REMARK                         _______ _______ _______ _____ _____    ______ ____
ROOT
ATOM      1  N   UNL     1       6.061   5.561  17.471  0.00  0.00    +0.000 N 
ENDROOT
BRANCH   1   5
ATOM      2  C   UNL     1       6.296   4.034  13.506  0.00  0.00    +0.000 A 
ATOM      3  C   UNL     1       7.376   4.665  14.107  0.00  0.00    +0.000 A 
ATOM      4  C   UNL     1       7.288   5.131  15.424  0.00  0.00    +0.000 A 
ATOM      5  C   UNL     1       6.110   5.019  16.181  0.00  0.00    +0.000 A 
ATOM      6  C   UNL     1       5.033   4.366  15.562  0.00  0.00    +0.000 A 
ATOM      7  C   UNL     1       5.127   3.867  14.242  0.00  0.00    +0.000 A 
BRANCH   2   9
ATOM      8  C   UNL     1       5.770   2.568  11.710  0.00  0.00    +0.000 C 
ATOM      9  O   UNL     1       6.497   3.685  12.200  0.00  0.00    +0.000 OA
ENDBRANCH   2   9
ENDBRANCH   1   5
BRANCH   1  10
ATOM     10  C   UNL     1       7.206   6.362  17.995  0.00  0.00    +0.000 C 
BRANCH  10  11
ATOM     11  C   UNL     1       7.659   5.777  19.322  0.00  0.00    +0.000 C 
ATOM     12  N   UNL     1       8.035   5.290  20.424  0.00  0.00    +0.000 NA
ENDBRANCH  10  11
ENDBRANCH   1  10
BRANCH   1  13
ATOM     13  C   UNL     1       4.708   5.979  17.922  0.00  0.00    +0.000 C 
BRANCH  13  14
ATOM     14  C   UNL     1       3.898   4.881  18.588  0.00  0.00    +0.000 A 
ATOM     15  C   UNL     1       4.457   3.867  19.382  0.00  0.00    +0.000 A 
ATOM     16  C   UNL     1       3.647   2.876  19.947  0.00  0.00    +0.000 A 
ATOM     17  C   UNL     1       2.272   2.907  19.739  0.00  0.00    +0.000 A 
ATOM     18  F   UNL     1       1.502   1.942  20.260  0.00  0.00    +0.000 F 
ATOM     19  C   UNL     1       1.689   3.920  18.996  0.00  0.00    +0.000 A 
ATOM     20  C   UNL     1       2.504   4.899  18.437  0.00  0.00    +0.000 A 
ATOM     21  F   UNL     1       1.927   5.886  17.735  0.00  0.00    +0.000 F 
ENDBRANCH  13  14
ENDBRANCH   1  13
TORSDOF 6
ENDMDL
MODEL 9
REMARK VINA RESULT:      -6.6      3.049      4.935
REMARK  Name = 
REMARK  7 active torsions:
REMARK  status: ('A' for Active; 'I' for Inactive)
REMARK    1  A    between atoms: C_1  and  O_2
REMARK    2  A    between atoms: O_2  and  C_3
REMARK    3  A    between atoms: C_6  and  N_7
REMARK    4  A    between atoms: N_7  and  C_8
REMARK    5  A    between atoms: N_7  and  C_11
REMARK    6  A    between atoms: C_8  and  C_9
REMARK    7  A    between atoms: C_11  and  C_12
REMARK                            x       y       z     vdW  Elec       q    Type
REMARK                         _______ _______ _______ _____ _____    ______ ____
ROOT
ATOM      1  N   UNL     1       5.912   5.804  17.357  0.00  0.00    +0.000 N 
ENDROOT
BRANCH   1   5
ATOM      2  C   UNL     1       6.308   4.050  13.500  0.00  0.00    +0.000 A 
ATOM      3  C   UNL     1       7.360   4.727  14.102  0.00  0.00    +0.000 A 
ATOM      4  C   UNL     1       7.218   5.268  15.385  0.00  0.00    +0.000 A 
ATOM      5  C   UNL     1       6.014   5.188  16.103  0.00  0.00    +0.000 A 
ATOM      6  C   UNL     1       4.967   4.488  15.486  0.00  0.00    +0.000 A 
ATOM      7  C   UNL     1       5.114   3.914  14.202  0.00  0.00    +0.000 A 
BRANCH   2   9
ATOM      8  C   UNL     1       5.857   2.480  11.773  0.00  0.00    +0.000 C 
ATOM      9  O   UNL     1       6.561   3.628  12.226  0.00  0.00    +0.000 OA
ENDBRANCH   2   9
ENDBRANCH   1   5
BRANCH   1  10
ATOM     10  C   UNL     1       7.076   6.541  17.930  0.00  0.00    +0.000 C 
BRANCH  10  11
ATOM     11  C   UNL     1       7.519   5.854  19.212  0.00  0.00    +0.000 C 
ATOM     12  N   UNL     1       7.885   5.285  20.277  0.00  0.00    +0.000 NA
ENDBRANCH  10  11
ENDBRANCH   1  10
BRANCH   1  13
ATOM     13  C   UNL     1       4.568   6.352  17.676  0.00  0.00    +0.000 C 
BRANCH  13  14
ATOM     14  C   UNL     1       3.802   5.571  18.728  0.00  0.00    +0.000 A 
ATOM     15  C   UNL     1       4.088   4.242  19.080  0.00  0.00    +0.000 A 
ATOM     16  C   UNL     1       3.323   3.580  20.048  0.00  0.00    +0.000 A 
ATOM     17  C   UNL     1       2.283   4.251  20.682  0.00  0.00    +0.000 A 
ATOM     18  F   UNL     1       1.537   3.606  21.589  0.00  0.00    +0.000 F 
ATOM     19  C   UNL     1       2.007   5.575  20.386  0.00  0.00    +0.000 A 
ATOM     20  C   UNL     1       2.771   6.223  19.421  0.00  0.00    +0.000 A 
ATOM     21  F   UNL     1       2.507   7.511  19.156  0.00  0.00    +0.000 F 
ENDBRANCH  13  14
ENDBRANCH   1  13
TORSDOF 6
ENDMDL
