MODEL 1
REMARK VINA RESULT:      -6.8      0.000      0.000
REMARK  Name = 
REMARK  5 active torsions:
REMARK  status: ('A' for Active; 'I' for Inactive)
REMARK    1  A    between atoms: C_1  and  C_2
REMARK    2  A    between atoms: C_2  and  C_3
REMARK    3  A    between atoms: C_2  and  N_4
REMARK    4  A    between atoms: N_6  and  C_7
REMARK    5  A    between atoms: C_10  and  C_11
REMARK                            x       y       z     vdW  Elec       q    Type
REMARK                         _______ _______ _______ _____ _____    ______ ____
ROOT
ATOM      1  C   UNL     1       4.330   5.207  17.719  0.00  0.00    +0.000 A 
ATOM      2  C   UNL     1       4.699   3.941  17.256  0.00  0.00    +0.000 A 
ATOM      3  C   UNL     1       5.451   3.787  16.089  0.00  0.00    +0.000 A 
ATOM      4  C   UNL     1       5.854   4.901  15.347  0.00  0.00    +0.000 A 
ATOM      5  C   UNL     1       5.517   6.172  15.827  0.00  0.00    +0.000 A 
ATOM      6  C   UNL     1       4.774   6.324  17.005  0.00  0.00    +0.000 A 
ENDROOT
BRANCH   4   7
ATOM      7  C   UNL     1       6.584   4.758  14.097  0.00  0.00    +0.000 A 
ATOM      8  C   UNL     1       6.279   3.890  13.068  0.00  0.00    +0.000 A 
ATOM      9  N   UNL     1       7.210   4.137  12.096  0.00  0.00    +0.000 N 
ATOM     10  C   UNL     1       8.033   5.123  12.559  0.00  0.00    +0.000 A 
ATOM     11  N   UNL     1       7.685   5.516  13.761  0.00  0.00    +0.000 NA
ATOM     12  H   UNL     1       7.275   3.679  11.200  0.00  0.00    +0.000 HD
ENDBRANCH   4   7
BRANCH   1  15
ATOM     13  N   UNL     1       2.125   4.569  20.554  0.00  0.00    +0.000 NA
ATOM     14  C   UNL     1       2.656   4.443  19.386  0.00  0.00    +0.000 C 
ATOM     15  N   UNL     1       3.616   5.285  18.921  0.00  0.00    +0.000 N 
ATOM     16  H   UNL     1       3.886   6.015  19.567  0.00  0.00    +0.000 HD
BRANCH  13  18
ATOM     17  C   UNL     1       0.717   2.866  19.578  0.00  0.00    +0.000 C 
ATOM     18  C   UNL     1       1.112   3.557  20.880  0.00  0.00    +0.000 C 
ATOM     19  C   UNL     1       1.691   2.545  21.863  0.00  0.00    +0.000 C 
ENDBRANCH  13  18
ENDBRANCH   1  15
TORSDOF 3
ENDMDL
MODEL 2
REMARK VINA RESULT:      -6.7      1.953      7.226
REMARK  Name = 
REMARK  5 active torsions:
REMARK  status: ('A' for Active; 'I' for Inactive)
REMARK    1  A    between atoms: C_1  and  C_2
REMARK    2  A    between atoms: C_2  and  C_3
REMARK    3  A    between atoms: C_2  and  N_4
REMARK    4  A    between atoms: N_6  and  C_7
REMARK    5  A    between atoms: C_10  and  C_11
REMARK                            x       y       z     vdW  Elec       q    Type
REMARK                         _______ _______ _______ _____ _____    ______ ____
ROOT
ATOM      1  C   UNL     1       5.353   4.886  15.790  0.00  0.00    +0.000 A 
ATOM      2  C   UNL     1       4.467   4.032  16.454  0.00  0.00    +0.000 A 
ATOM      3  C   UNL     1       3.647   4.498  17.485  0.00  0.00    +0.000 A 
ATOM      4  C   UNL     1       3.695   5.837  17.886  0.00  0.00    +0.000 A 
ATOM      5  C   UNL     1       4.554   6.702  17.200  0.00  0.00    +0.000 A 
ATOM      6  C   UNL     1       5.365   6.235  16.157  0.00  0.00    +0.000 A 
ENDROOT
BRANCH   4   7
ATOM      7  C   UNL     1       2.894   6.325  18.998  0.00  0.00    +0.000 A 
ATOM      8  C   UNL     1       2.581   5.628  20.147  0.00  0.00    +0.000 A 
ATOM      9  N   UNL     1       1.853   6.497  20.912  0.00  0.00    +0.000 N 
ATOM     10  C   UNL     1       1.747   7.666  20.216  0.00  0.00    +0.000 A 
ATOM     11  N   UNL     1       2.361   7.595  19.058  0.00  0.00    +0.000 NA
ATOM     12  H   UNL     1       1.467   6.311  21.826  0.00  0.00    +0.000 HD
ENDBRANCH   4   7
BRANCH   1  15
ATOM     13  N   UNL     1       6.466   3.468  12.619  0.00  0.00    +0.000 NA
ATOM     14  C   UNL     1       5.667   3.850  13.556  0.00  0.00    +0.000 C 
ATOM     15  N   UNL     1       6.109   4.358  14.736  0.00  0.00    +0.000 N 
ATOM     16  H   UNL     1       7.114   4.421  14.820  0.00  0.00    +0.000 HD
BRANCH  13  18
ATOM     17  C   UNL     1       6.067   1.455  11.347  0.00  0.00    +0.000 C 
ATOM     18  C   UNL     1       5.800   2.955  11.416  0.00  0.00    +0.000 C 
ATOM     19  C   UNL     1       4.301   3.224  11.502  0.00  0.00    +0.000 C 
ENDBRANCH  13  18
ENDBRANCH   1  15
TORSDOF 3
ENDMDL
MODEL 3
REMARK VINA RESULT:      -6.6      1.442      7.512
REMARK  Name = 
REMARK  5 active torsions:
REMARK  status: ('A' for Active; 'I' for Inactive)
REMARK    1  A    between atoms: C_1  and  C_2
REMARK    2  A    between atoms: C_2  and  C_3
REMARK    3  A    between atoms: C_2  and  N_4
REMARK    4  A    between atoms: N_6  and  C_7
REMARK    5  A    between atoms: C_10  and  C_11
REMARK                            x       y       z     vdW  Elec       q    Type
REMARK                         _______ _______ _______ _____ _____    ______ ____
ROOT
ATOM      1  C   UNL     1       5.664   4.925  17.156  0.00  0.00    +0.000 A 
ATOM      2  C   UNL     1       4.704   4.001  16.733  0.00  0.00    +0.000 A 
ATOM      3  C   UNL     1       3.678   3.581  17.584  0.00  0.00    +0.000 A 
ATOM      4  C   UNL     1       3.587   4.074  18.890  0.00  0.00    +0.000 A 
ATOM      5  C   UNL     1       4.526   5.026  19.304  0.00  0.00    +0.000 A 
ATOM      6  C   UNL     1       5.545   5.455  18.444  0.00  0.00    +0.000 A 
ENDROOT
BRANCH   4   7
ATOM      7  C   UNL     1       2.563   3.603  19.810  0.00  0.00    +0.000 A 
ATOM      8  C   UNL     1       1.198   3.703  19.633  0.00  0.00    +0.000 A 
ATOM      9  N   UNL     1       0.645   3.093  20.725  0.00  0.00    +0.000 N 
ATOM     10  C   UNL     1       1.670   2.656  21.513  0.00  0.00    +0.000 A 
ATOM     11  N   UNL     1       2.838   2.950  20.992  0.00  0.00    +0.000 NA
ATOM     12  H   UNL     1      -0.341   2.982  20.913  0.00  0.00    +0.000 HD
ENDBRANCH   4   7
BRANCH   1  15
ATOM     13  N   UNL     1       7.704   5.403  14.170  0.00  0.00    +0.000 NA
ATOM     14  C   UNL     1       6.825   4.890  14.962  0.00  0.00    +0.000 C 
ATOM     15  N   UNL     1       6.634   5.332  16.232  0.00  0.00    +0.000 N 
ATOM     16  H   UNL     1       7.230   6.102  16.506  0.00  0.00    +0.000 HD
BRANCH  13  18
ATOM     17  C   UNL     1       6.537   3.889  12.694  0.00  0.00    +0.000 C 
ATOM     18  C   UNL     1       7.756   4.796  12.834  0.00  0.00    +0.000 C 
ATOM     19  C   UNL     1       7.728   5.889  11.769  0.00  0.00    +0.000 C 
ENDBRANCH  13  18
ENDBRANCH   1  15
TORSDOF 3
ENDMDL
MODEL 4
REMARK VINA RESULT:      -6.6      1.042      1.110
REMARK  Name = 
REMARK  5 active torsions:
REMARK  status: ('A' for Active; 'I' for Inactive)
REMARK    1  A    between atoms: C_1  and  C_2
REMARK    2  A    between atoms: C_2  and  C_3
REMARK    3  A    between atoms: C_2  and  N_4
REMARK    4  A    between atoms: N_6  and  C_7
REMARK    5  A    between atoms: C_10  and  C_11
REMARK                            x       y       z     vdW  Elec       q    Type
REMARK                         _______ _______ _______ _____ _____    ______ ____
ROOT
ATOM      1  C   UNL     1       5.222   4.228  18.089  0.00  0.00    +0.000 A 
ATOM      2  C   UNL     1       4.449   3.903  16.970  0.00  0.00    +0.000 A 
ATOM      3  C   UNL     1       4.973   3.991  15.677  0.00  0.00    +0.000 A 
ATOM      4  C   UNL     1       6.290   4.412  15.468  0.00  0.00    +0.000 A 
ATOM      5  C   UNL     1       7.077   4.703  16.588  0.00  0.00    +0.000 A 
ATOM      6  C   UNL     1       6.553   4.601  17.883  0.00  0.00    +0.000 A 
ENDROOT
BRANCH   4   7
ATOM      7  C   UNL     1       6.833   4.568  14.128  0.00  0.00    +0.000 A 
ATOM      8  C   UNL     1       6.471   3.844  13.010  0.00  0.00    +0.000 A 
ATOM      9  N   UNL     1       7.211   4.364  11.984  0.00  0.00    +0.000 N 
ATOM     10  C   UNL     1       7.983   5.363  12.502  0.00  0.00    +0.000 A 
ATOM     11  N   UNL     1       7.782   5.509  13.790  0.00  0.00    +0.000 NA
ATOM     12  H   UNL     1       7.187   4.068  11.019  0.00  0.00    +0.000 HD
ENDBRANCH   4   7
BRANCH   1  15
ATOM     13  N   UNL     1       2.927   3.661  20.867  0.00  0.00    +0.000 NA
ATOM     14  C   UNL     1       3.334   3.878  19.663  0.00  0.00    +0.000 C 
ATOM     15  N   UNL     1       4.643   4.071  19.354  0.00  0.00    +0.000 N 
ATOM     16  H   UNL     1       5.274   4.024  20.142  0.00  0.00    +0.000 HD
BRANCH  13  18
ATOM     17  C   UNL     1       0.944   3.040  19.635  0.00  0.00    +0.000 C 
ATOM     18  C   UNL     1       1.478   3.467  20.999  0.00  0.00    +0.000 C 
ATOM     19  C   UNL     1       1.194   2.389  22.041  0.00  0.00    +0.000 C 
ENDBRANCH  13  18
ENDBRANCH   1  15
TORSDOF 3
ENDMDL
MODEL 5
REMARK VINA RESULT:      -6.6      0.361      1.214
REMARK  Name = 
REMARK  5 active torsions:
REMARK  status: ('A' for Active; 'I' for Inactive)
REMARK    1  A    between atoms: C_1  and  C_2
REMARK    2  A    between atoms: C_2  and  C_3
REMARK    3  A    between atoms: C_2  and  N_4
REMARK    4  A    between atoms: N_6  and  C_7
REMARK    5  A    between atoms: C_10  and  C_11
REMARK                            x       y       z     vdW  Elec       q    Type
REMARK                         _______ _______ _______ _____ _____    ______ ____
ROOT
ATOM      1  C   UNL     1       4.487   5.172  17.714  0.00  0.00    +0.000 A 
ATOM      2  C   UNL     1       4.695   6.269  16.872  0.00  0.00    +0.000 A 
ATOM      3  C   UNL     1       5.338   6.125  15.640  0.00  0.00    +0.000 A 
ATOM      4  C   UNL     1       5.797   4.874  15.215  0.00  0.00    +0.000 A 
ATOM      5  C   UNL     1       5.558   3.768  16.040  0.00  0.00    +0.000 A 
ATOM      6  C   UNL     1       4.901   3.914  17.268  0.00  0.00    +0.000 A 
ENDROOT
BRANCH   4   7
ATOM      7  C   UNL     1       6.522   4.716  13.965  0.00  0.00    +0.000 A 
ATOM      8  C   UNL     1       6.277   3.766  12.993  0.00  0.00    +0.000 A 
ATOM      9  N   UNL     1       7.173   4.029  11.994  0.00  0.00    +0.000 N 
ATOM     10  C   UNL     1       7.918   5.104  12.385  0.00  0.00    +0.000 A 
ATOM     11  N   UNL     1       7.553   5.539  13.568  0.00  0.00    +0.000 NA
ATOM     12  H   UNL     1       7.265   3.525  11.125  0.00  0.00    +0.000 HD
ENDBRANCH   4   7
BRANCH   1  15
ATOM     13  N   UNL     1       2.445   4.811  20.715  0.00  0.00    +0.000 NA
ATOM     14  C   UNL     1       2.963   4.534  19.567  0.00  0.00    +0.000 C 
ATOM     15  N   UNL     1       3.795   5.386  18.912  0.00  0.00    +0.000 N 
ATOM     16  H   UNL     1       3.982   6.252  19.399  0.00  0.00    +0.000 HD
BRANCH  13  18
ATOM     17  C   UNL     1       0.651   3.297  20.148  0.00  0.00    +0.000 C 
ATOM     18  C   UNL     1       1.579   3.761  21.266  0.00  0.00    +0.000 C 
ATOM     19  C   UNL     1       2.432   2.598  21.765  0.00  0.00    +0.000 C 
ENDBRANCH  13  18
ENDBRANCH   1  15
TORSDOF 3
ENDMDL
MODEL 6
REMARK VINA RESULT:      -6.5      1.435      7.597
REMARK  Name = 
REMARK  5 active torsions:
REMARK  status: ('A' for Active; 'I' for Inactive)
REMARK    1  A    between atoms: C_1  and  C_2
REMARK    2  A    between atoms: C_2  and  C_3
REMARK    3  A    between atoms: C_2  and  N_4
REMARK    4  A    between atoms: N_6  and  C_7
REMARK    5  A    between atoms: C_10  and  C_11
REMARK                            x       y       z     vdW  Elec       q    Type
REMARK                         _______ _______ _______ _____ _____    ______ ____
ROOT
ATOM      1  C   UNL     1       5.488   4.909  16.999  0.00  0.00    +0.000 A 
ATOM      2  C   UNL     1       5.543   5.317  18.335  0.00  0.00    +0.000 A 
ATOM      3  C   UNL     1       4.608   4.867  19.270  0.00  0.00    +0.000 A 
ATOM      4  C   UNL     1       3.584   3.993  18.892  0.00  0.00    +0.000 A 
ATOM      5  C   UNL     1       3.547   3.554  17.563  0.00  0.00    +0.000 A 
ATOM      6  C   UNL     1       4.495   3.997  16.631  0.00  0.00    +0.000 A 
ENDROOT
BRANCH   4   7
ATOM      7  C   UNL     1       2.566   3.561  19.837  0.00  0.00    +0.000 A 
ATOM      8  C   UNL     1       1.200   3.669  19.671  0.00  0.00    +0.000 A 
ATOM      9  N   UNL     1       0.652   3.100  20.788  0.00  0.00    +0.000 N 
ATOM     10  C   UNL     1       1.682   2.678  21.579  0.00  0.00    +0.000 A 
ATOM     11  N   UNL     1       2.847   2.944  21.036  0.00  0.00    +0.000 NA
ATOM     12  H   UNL     1      -0.332   3.005  20.990  0.00  0.00    +0.000 HD
ENDBRANCH   4   7
BRANCH   1  15
ATOM     13  N   UNL     1       7.668   5.489  14.133  0.00  0.00    +0.000 NA
ATOM     14  C   UNL     1       6.774   4.931  14.876  0.00  0.00    +0.000 C 
ATOM     15  N   UNL     1       6.487   5.366  16.130  0.00  0.00    +0.000 N 
ATOM     16  H   UNL     1       7.024   6.167  16.434  0.00  0.00    +0.000 HD
BRANCH  13  18
ATOM     17  C   UNL     1       6.677   3.902  12.605  0.00  0.00    +0.000 C 
ATOM     18  C   UNL     1       7.829   4.882  12.806  0.00  0.00    +0.000 C 
ATOM     19  C   UNL     1       7.794   5.968  11.734  0.00  0.00    +0.000 C 
ENDBRANCH  13  18
ENDBRANCH   1  15
TORSDOF 3
ENDMDL
MODEL 7
REMARK VINA RESULT:      -6.5      1.025      1.208
REMARK  Name = 
REMARK  5 active torsions:
REMARK  status: ('A' for Active; 'I' for Inactive)
REMARK    1  A    between atoms: C_1  and  C_2
REMARK    2  A    between atoms: C_2  and  C_3
REMARK    3  A    between atoms: C_2  and  N_4
REMARK    4  A    between atoms: N_6  and  C_7
REMARK    5  A    between atoms: C_10  and  C_11
REMARK                            x       y       z     vdW  Elec       q    Type
REMARK                         _______ _______ _______ _____ _____    ______ ____
ROOT
ATOM      1  C   UNL     1       5.106   4.174  17.974  0.00  0.00    +0.000 A 
ATOM      2  C   UNL     1       6.457   4.506  17.834  0.00  0.00    +0.000 A 
ATOM      3  C   UNL     1       7.034   4.680  16.574  0.00  0.00    +0.000 A 
ATOM      4  C   UNL     1       6.272   4.520  15.411  0.00  0.00    +0.000 A 
ATOM      5  C   UNL     1       4.912   4.222  15.549  0.00  0.00    +0.000 A 
ATOM      6  C   UNL     1       4.333   4.063  16.815  0.00  0.00    +0.000 A 
ENDROOT
BRANCH   4   7
ATOM      7  C   UNL     1       6.869   4.636  14.090  0.00  0.00    +0.000 A 
ATOM      8  C   UNL     1       6.520   3.910  12.970  0.00  0.00    +0.000 A 
ATOM      9  N   UNL     1       7.316   4.386  11.965  0.00  0.00    +0.000 N 
ATOM     10  C   UNL     1       8.108   5.362  12.498  0.00  0.00    +0.000 A 
ATOM     11  N   UNL     1       7.866   5.535  13.776  0.00  0.00    +0.000 NA
ATOM     12  H   UNL     1       7.316   4.078  11.004  0.00  0.00    +0.000 HD
ENDBRANCH   4   7
BRANCH   1  15
ATOM     13  N   UNL     1       2.950   3.685  20.876  0.00  0.00    +0.000 NA
ATOM     14  C   UNL     1       3.299   3.857  19.646  0.00  0.00    +0.000 C 
ATOM     15  N   UNL     1       4.588   4.062  19.270  0.00  0.00    +0.000 N 
ATOM     16  H   UNL     1       5.255   4.061  20.030  0.00  0.00    +0.000 HD
BRANCH  13  18
ATOM     17  C   UNL     1       0.908   3.085  19.735  0.00  0.00    +0.000 C 
ATOM     18  C   UNL     1       1.513   3.470  21.082  0.00  0.00    +0.000 C 
ATOM     19  C   UNL     1       1.299   2.353  22.098  0.00  0.00    +0.000 C 
ENDBRANCH  13  18
ENDBRANCH   1  15
TORSDOF 3
ENDMDL
MODEL 8
REMARK VINA RESULT:      -6.4      4.495      7.490
REMARK  Name = 
REMARK  5 active torsions:
REMARK  status: ('A' for Active; 'I' for Inactive)
REMARK    1  A    between atoms: C_1  and  C_2
REMARK    2  A    between atoms: C_2  and  C_3
REMARK    3  A    between atoms: C_2  and  N_4
REMARK    4  A    between atoms: N_6  and  C_7
REMARK    5  A    between atoms: C_10  and  C_11
REMARK                            x       y       z     vdW  Elec       q    Type
REMARK                         _______ _______ _______ _____ _____    ______ ____
ROOT
ATOM      1  C   UNL     1       7.247   7.469  17.723  0.00  0.00    +0.000 A 
ATOM      2  C   UNL     1       5.976   7.310  17.163  0.00  0.00    +0.000 A 
ATOM      3  C   UNL     1       5.221   6.157  17.393  0.00  0.00    +0.000 A 
ATOM      4  C   UNL     1       5.722   5.124  18.192  0.00  0.00    +0.000 A 
ATOM      5  C   UNL     1       6.979   5.295  18.783  0.00  0.00    +0.000 A 
ATOM      6  C   UNL     1       7.728   6.458  18.561  0.00  0.00    +0.000 A 
ENDROOT
BRANCH   4   7
ATOM      7  C   UNL     1       4.977   3.891  18.393  0.00  0.00    +0.000 A 
ATOM      8  C   UNL     1       4.277   3.193  17.429  0.00  0.00    +0.000 A 
ATOM      9  N   UNL     1       3.780   2.091  18.068  0.00  0.00    +0.000 N 
ATOM     10  C   UNL     1       4.183   2.156  19.371  0.00  0.00    +0.000 A 
ATOM     11  N   UNL     1       4.903   3.229  19.599  0.00  0.00    +0.000 NA
ATOM     12  H   UNL     1       3.221   1.360  17.653  0.00  0.00    +0.000 HD
ENDBRANCH   4   7
BRANCH   1  15
ATOM     13  N   UNL     1       9.276  10.486  18.014  0.00  0.00    +0.000 NA
ATOM     14  C   UNL     1       8.617   9.436  18.368  0.00  0.00    +0.000 C 
ATOM     15  N   UNL     1       7.925   8.671  17.484  0.00  0.00    +0.000 N 
ATOM     16  H   UNL     1       7.973   8.985  16.525  0.00  0.00    +0.000 HD
BRANCH  13  18
ATOM     17  C   UNL     1      11.358  11.554  18.613  0.00  0.00    +0.000 C 
ATOM     18  C   UNL     1       9.966  11.176  19.111  0.00  0.00    +0.000 C 
ATOM     19  C   UNL     1       9.187  12.427  19.505  0.00  0.00    +0.000 C 
ENDBRANCH  13  18
ENDBRANCH   1  15
TORSDOF 3
ENDMDL
MODEL 9
REMARK VINA RESULT:      -6.4      4.348      7.458
REMARK  Name = 
REMARK  5 active torsions:
REMARK  status: ('A' for Active; 'I' for Inactive)
REMARK    1  A    between atoms: C_1  and  C_2
REMARK    2  A    between atoms: C_2  and  C_3
REMARK    3  A    between atoms: C_2  and  N_4
REMARK    4  A    between atoms: N_6  and  C_7
REMARK    5  A    between atoms: C_10  and  C_11
REMARK                            x       y       z     vdW  Elec       q    Type
REMARK                         _______ _______ _______ _____ _____    ______ ____
ROOT
ATOM      1  C   UNL     1       7.233   7.268  17.625  0.00  0.00    +0.000 A 
ATOM      2  C   UNL     1       7.679   6.301  18.531  0.00  0.00    +0.000 A 
ATOM      3  C   UNL     1       6.915   5.166  18.814  0.00  0.00    +0.000 A 
ATOM      4  C   UNL     1       5.675   4.968  18.198  0.00  0.00    +0.000 A 
ATOM      5  C   UNL     1       5.242   5.916  17.264  0.00  0.00    +0.000 A 
ATOM      6  C   UNL     1       6.017   7.046  16.972  0.00  0.00    +0.000 A 
ENDROOT
BRANCH   4   7
ATOM      7  C   UNL     1       4.838   3.824  18.526  0.00  0.00    +0.000 A 
ATOM      8  C   UNL     1       3.898   3.238  17.703  0.00  0.00    +0.000 A 
ATOM      9  N   UNL     1       3.397   2.184  18.416  0.00  0.00    +0.000 N 
ATOM     10  C   UNL     1       4.035   2.167  19.623  0.00  0.00    +0.000 A 
ATOM     11  N   UNL     1       4.906   3.143  19.722  0.00  0.00    +0.000 NA
ATOM     12  H   UNL     1       2.690   1.533  18.107  0.00  0.00    +0.000 HD
ENDBRANCH   4   7
BRANCH   1  15
ATOM     13  N   UNL     1       9.164  10.357  17.812  0.00  0.00    +0.000 NA
ATOM     14  C   UNL     1       8.297   9.455  18.123  0.00  0.00    +0.000 C 
ATOM     15  N   UNL     1       8.074   8.355  17.358  0.00  0.00    +0.000 N 
ATOM     16  H   UNL     1       8.648   8.295  16.528  0.00  0.00    +0.000 HD
BRANCH  13  18
ATOM     17  C   UNL     1      10.606  11.333  19.486  0.00  0.00    +0.000 C 
ATOM     18  C   UNL     1       9.266  11.466  18.768  0.00  0.00    +0.000 C 
ATOM     19  C   UNL     1       9.193  12.797  18.024  0.00  0.00    +0.000 C 
ENDBRANCH  13  18
ENDBRANCH   1  15
TORSDOF 3
ENDMDL
