MODEL 1
REMARK VINA RESULT:      -7.3      0.000      0.000
REMARK  Name = 
REMARK  7 active torsions:
REMARK  status: ('A' for Active; 'I' for Inactive)
REMARK    1  A    between atoms: C_1  and  C_2
REMARK    2  A    between atoms: C_3  and  C_4
REMARK    3  A    between atoms: C_6  and  C_7
REMARK    4  A    between atoms: N_12  and  C_13
REMARK    5  A    between atoms: C_13  and  C_14
REMARK    6  A    between atoms: C_22  and  C_23
REMARK    7  A    between atoms: C_23  and  O_25
REMARK                            x       y       z     vdW  Elec       q    Type
REMARK                         _______ _______ _______ _____ _____    ______ ____
ROOT
ATOM      1  C   UNL     1       1.209   8.838  20.188  0.00  0.00    +0.000 C 
ATOM      2  O   UNL     1       0.726   8.930  21.317  0.00  0.00    +0.000 OA
ATOM      3  N   UNL     1       1.925   7.714  19.796  0.00  0.00    +0.000 N 
ATOM      4  C   UNL     1       1.896   6.514  20.637  0.00  0.00    +0.000 C 
ATOM      5  C   UNL     1       1.763   5.229  19.781  0.00  0.00    +0.000 C 
ATOM      6  N   UNL     1       2.714   5.118  18.640  0.00  0.00    +0.000 NA
ATOM      7  C   UNL     1       2.639   6.367  17.849  0.00  0.00    +0.000 C 
ATOM      8  C   UNL     1       2.873   7.642  18.676  0.00  0.00    +0.000 C 
ENDROOT
BRANCH   1  14
ATOM      9  C   UNL     1      -2.802  12.382  19.340  0.00  0.00    +0.000 C 
ATOM     10  C   UNL     1      -1.574  11.519  19.147  0.00  0.00    +0.000 C 
ATOM     11  C   UNL     1      -1.531  10.397  18.413  0.00  0.00    +0.000 C 
ATOM     12  C   UNL     1      -2.696   9.801  17.644  0.00  0.00    +0.000 C 
ATOM     13  C   UNL     1      -0.296   9.541  18.311  0.00  0.00    +0.000 C 
ATOM     14  C   UNL     1       0.961   9.914  19.121  0.00  0.00    +0.000 C 
ATOM     15  C   UNL     1       0.971  11.337  19.711  0.00  0.00    +0.000 C 
ATOM     16  C   UNL     1      -0.385  12.019  19.937  0.00  0.00    +0.000 C 
BRANCH  15  17
ATOM     17  C   UNL     1       1.928  12.193  18.903  0.00  0.00    +0.000 C 
ATOM     18  O   UNL     1       2.417  13.235  19.312  0.00  0.00    +0.000 OA
BRANCH  17  19
ATOM     19  O   UNL     1       2.281  11.669  17.708  0.00  0.00    +0.000 OA
ATOM     20  H   UNL     1       1.720  11.965  16.960  0.00  0.00    +0.000 HD
ENDBRANCH  17  19
ENDBRANCH  15  17
ENDBRANCH   1  14
BRANCH   6  21
ATOM     21  C   UNL     1       4.070   4.826  19.132  0.00  0.00    +0.000 C 
BRANCH  21  22
ATOM     22  C   UNL     1       5.110   4.610  18.052  0.00  0.00    +0.000 A 
ATOM     23  C   UNL     1       4.743   4.037  16.824  0.00  0.00    +0.000 A 
ATOM     24  C   UNL     1       5.684   3.879  15.804  0.00  0.00    +0.000 A 
ATOM     25  C   UNL     1       6.999   4.293  16.000  0.00  0.00    +0.000 A 
ATOM     26  C   UNL     1       7.380   4.848  17.220  0.00  0.00    +0.000 A 
ATOM     27  C   UNL     1       6.442   5.001  18.244  0.00  0.00    +0.000 A 
ENDBRANCH  21  22
ENDBRANCH   6  21
TORSDOF 5
ENDMDL
MODEL 2
REMARK VINA RESULT:      -7.1      1.198      1.259
REMARK  Name = 
REMARK  7 active torsions:
REMARK  status: ('A' for Active; 'I' for Inactive)
REMARK    1  A    between atoms: C_1  and  C_2
REMARK    2  A    between atoms: C_3  and  C_4
REMARK    3  A    between atoms: C_6  and  C_7
REMARK    4  A    between atoms: N_12  and  C_13
REMARK    5  A    between atoms: C_13  and  C_14
REMARK    6  A    between atoms: C_22  and  C_23
REMARK    7  A    between atoms: C_23  and  O_25
REMARK                            x       y       z     vdW  Elec       q    Type
REMARK                         _______ _______ _______ _____ _____    ______ ____
ROOT
ATOM      1  C   UNL     1       0.727   9.805  19.883  0.00  0.00    +0.000 C 
ATOM      2  O   UNL     1       0.350   9.898  21.052  0.00  0.00    +0.000 OA
ATOM      3  N   UNL     1       1.578   8.785  19.475  0.00  0.00    +0.000 N 
ATOM      4  C   UNL     1       1.832   7.659  20.377  0.00  0.00    +0.000 C 
ATOM      5  C   UNL     1       1.831   6.311  19.610  0.00  0.00    +0.000 C 
ATOM      6  N   UNL     1       2.668   6.274  18.379  0.00  0.00    +0.000 NA
ATOM      7  C   UNL     1       2.307   7.436  17.536  0.00  0.00    +0.000 C 
ATOM      8  C   UNL     1       2.408   8.787  18.263  0.00  0.00    +0.000 C 
ENDROOT
BRANCH   1  14
ATOM      9  C   UNL     1      -4.110  12.061  18.943  0.00  0.00    +0.000 C 
ATOM     10  C   UNL     1      -2.686  11.576  18.775  0.00  0.00    +0.000 C 
ATOM     11  C   UNL     1      -2.321  10.499  18.062  0.00  0.00    +0.000 C 
ATOM     12  C   UNL     1      -3.262   9.586  17.298  0.00  0.00    +0.000 C 
ATOM     13  C   UNL     1      -0.894  10.024  17.984  0.00  0.00    +0.000 C 
ATOM     14  C   UNL     1       0.198  10.750  18.794  0.00  0.00    +0.000 C 
ATOM     15  C   UNL     1      -0.200  12.128  19.357  0.00  0.00    +0.000 C 
ATOM     16  C   UNL     1      -1.696  12.403  19.562  0.00  0.00    +0.000 C 
BRANCH  15  17
ATOM     17  C   UNL     1       0.487  13.205  18.539  0.00  0.00    +0.000 C 
ATOM     18  O   UNL     1       0.163  14.383  18.559  0.00  0.00    +0.000 OA
BRANCH  17  19
ATOM     19  O   UNL     1       1.562  12.781  17.837  0.00  0.00    +0.000 OA
ATOM     20  H   UNL     1       1.365  12.063  17.199  0.00  0.00    +0.000 HD
ENDBRANCH  17  19
ENDBRANCH  15  17
ENDBRANCH   1  14
BRANCH   6  21
ATOM     21  C   UNL     1       4.097   6.238  18.734  0.00  0.00    +0.000 C 
BRANCH  21  22
ATOM     22  C   UNL     1       5.004   5.650  17.673  0.00  0.00    +0.000 A 
ATOM     23  C   UNL     1       4.558   4.588  16.872  0.00  0.00    +0.000 A 
ATOM     24  C   UNL     1       5.368   4.072  15.859  0.00  0.00    +0.000 A 
ATOM     25  C   UNL     1       6.632   4.614  15.634  0.00  0.00    +0.000 A 
ATOM     26  C   UNL     1       7.094   5.658  16.434  0.00  0.00    +0.000 A 
ATOM     27  C   UNL     1       6.286   6.172  17.452  0.00  0.00    +0.000 A 
ENDBRANCH  21  22
ENDBRANCH   6  21
TORSDOF 5
ENDMDL
MODEL 3
REMARK VINA RESULT:      -7.0      1.319      1.715
REMARK  Name = 
REMARK  7 active torsions:
REMARK  status: ('A' for Active; 'I' for Inactive)
REMARK    1  A    between atoms: C_1  and  C_2
REMARK    2  A    between atoms: C_3  and  C_4
REMARK    3  A    between atoms: C_6  and  C_7
REMARK    4  A    between atoms: N_12  and  C_13
REMARK    5  A    between atoms: C_13  and  C_14
REMARK    6  A    between atoms: C_22  and  C_23
REMARK    7  A    between atoms: C_23  and  O_25
REMARK                            x       y       z     vdW  Elec       q    Type
REMARK                         _______ _______ _______ _____ _____    ______ ____
ROOT
ATOM      1  C   UNL     1       0.662   9.918  19.936  0.00  0.00    +0.000 C 
ATOM      2  O   UNL     1       0.298  10.012  21.108  0.00  0.00    +0.000 OA
ATOM      3  N   UNL     1       1.519   8.907  19.521  0.00  0.00    +0.000 N 
ATOM      4  C   UNL     1       1.795   7.786  20.424  0.00  0.00    +0.000 C 
ATOM      5  C   UNL     1       1.799   6.436  19.661  0.00  0.00    +0.000 C 
ATOM      6  N   UNL     1       2.622   6.404  18.421  0.00  0.00    +0.000 NA
ATOM      7  C   UNL     1       2.240   7.559  17.578  0.00  0.00    +0.000 C 
ATOM      8  C   UNL     1       2.335   8.914  18.299  0.00  0.00    +0.000 C 
ENDROOT
BRANCH   1  14
ATOM      9  C   UNL     1      -4.228  12.061  19.002  0.00  0.00    +0.000 C 
ATOM     10  C   UNL     1      -2.793  11.611  18.832  0.00  0.00    +0.000 C 
ATOM     11  C   UNL     1      -2.402  10.546  18.116  0.00  0.00    +0.000 C 
ATOM     12  C   UNL     1      -3.320   9.613  17.348  0.00  0.00    +0.000 C 
ATOM     13  C   UNL     1      -0.964  10.106  18.036  0.00  0.00    +0.000 C 
ATOM     14  C   UNL     1       0.110  10.854  18.850  0.00  0.00    +0.000 C 
ATOM     15  C   UNL     1      -0.321  12.221  19.417  0.00  0.00    +0.000 C 
ATOM     16  C   UNL     1      -1.822  12.459  19.622  0.00  0.00    +0.000 C 
BRANCH  15  17
ATOM     17  C   UNL     1       0.340  13.317  18.603  0.00  0.00    +0.000 C 
ATOM     18  O   UNL     1       1.485  13.253  18.182  0.00  0.00    +0.000 OA
BRANCH  17  19
ATOM     19  O   UNL     1      -0.468  14.355  18.293  0.00  0.00    +0.000 OA
ATOM     20  H   UNL     1      -0.146  15.224  18.615  0.00  0.00    +0.000 HD
ENDBRANCH  17  19
ENDBRANCH  15  17
ENDBRANCH   1  14
BRANCH   6  21
ATOM     21  C   UNL     1       4.056   6.384  18.759  0.00  0.00    +0.000 C 
BRANCH  21  22
ATOM     22  C   UNL     1       4.956   5.790  17.695  0.00  0.00    +0.000 A 
ATOM     23  C   UNL     1       6.229   6.334  17.463  0.00  0.00    +0.000 A 
ATOM     24  C   UNL     1       7.084   5.764  16.519  0.00  0.00    +0.000 A 
ATOM     25  C   UNL     1       6.679   4.642  15.799  0.00  0.00    +0.000 A 
ATOM     26  C   UNL     1       5.411   4.102  16.009  0.00  0.00    +0.000 A 
ATOM     27  C   UNL     1       4.550   4.676  16.948  0.00  0.00    +0.000 A 
ENDBRANCH  21  22
ENDBRANCH   6  21
TORSDOF 5
ENDMDL
MODEL 4
REMARK VINA RESULT:      -6.9      2.304      4.058
REMARK  Name = 
REMARK  7 active torsions:
REMARK  status: ('A' for Active; 'I' for Inactive)
REMARK    1  A    between atoms: C_1  and  C_2
REMARK    2  A    between atoms: C_3  and  C_4
REMARK    3  A    between atoms: C_6  and  C_7
REMARK    4  A    between atoms: N_12  and  C_13
REMARK    5  A    between atoms: C_13  and  C_14
REMARK    6  A    between atoms: C_22  and  C_23
REMARK    7  A    between atoms: C_23  and  O_25
REMARK                            x       y       z     vdW  Elec       q    Type
REMARK                         _______ _______ _______ _____ _____    ______ ____
ROOT
ATOM      1  C   UNL     1       0.913  10.575  19.458  0.00  0.00    +0.000 C 
ATOM      2  O   UNL     1       0.728  11.447  18.608  0.00  0.00    +0.000 OA
ATOM      3  N   UNL     1       1.282   9.284  19.103  0.00  0.00    +0.000 N 
ATOM      4  C   UNL     1       1.709   9.012  17.728  0.00  0.00    +0.000 C 
ATOM      5  C   UNL     1       2.939   8.068  17.695  0.00  0.00    +0.000 C 
ATOM      6  N   UNL     1       2.823   6.837  18.525  0.00  0.00    +0.000 NA
ATOM      7  C   UNL     1       2.416   7.233  19.892  0.00  0.00    +0.000 C 
ATOM      8  C   UNL     1       1.137   8.084  19.938  0.00  0.00    +0.000 C 
ENDROOT
BRANCH   1  14
ATOM      9  C   UNL     1      -1.947  14.137  22.374  0.00  0.00    +0.000 C 
ATOM     10  C   UNL     1      -0.915  13.111  21.955  0.00  0.00    +0.000 C 
ATOM     11  C   UNL     1       0.367  13.385  21.670  0.00  0.00    +0.000 C 
ATOM     12  C   UNL     1       1.009  14.759  21.722  0.00  0.00    +0.000 C 
ATOM     13  C   UNL     1       1.334  12.333  21.194  0.00  0.00    +0.000 C 
ATOM     14  C   UNL     1       0.840  10.892  20.959  0.00  0.00    +0.000 C 
ATOM     15  C   UNL     1      -0.537  10.557  21.563  0.00  0.00    +0.000 C 
ATOM     16  C   UNL     1      -1.499  11.723  21.821  0.00  0.00    +0.000 C 
BRANCH  15  17
ATOM     17  C   UNL     1      -0.333   9.684  22.787  0.00  0.00    +0.000 C 
ATOM     18  O   UNL     1       0.291  10.037  23.776  0.00  0.00    +0.000 OA
BRANCH  17  19
ATOM     19  O   UNL     1      -0.975   8.495  22.746  0.00  0.00    +0.000 OA
ATOM     20  H   UNL     1      -1.875   8.512  23.137  0.00  0.00    +0.000 HD
ENDBRANCH  17  19
ENDBRANCH  15  17
ENDBRANCH   1  14
BRANCH   6  21
ATOM     21  C   UNL     1       1.891   5.884  17.898  0.00  0.00    +0.000 C 
BRANCH  21  22
ATOM     22  C   UNL     1       2.274   4.425  18.043  0.00  0.00    +0.000 A 
ATOM     23  C   UNL     1       3.532   3.978  17.609  0.00  0.00    +0.000 A 
ATOM     24  C   UNL     1       3.913   2.647  17.784  0.00  0.00    +0.000 A 
ATOM     25  C   UNL     1       3.042   1.748  18.397  0.00  0.00    +0.000 A 
ATOM     26  C   UNL     1       1.784   2.175  18.817  0.00  0.00    +0.000 A 
ATOM     27  C   UNL     1       1.399   3.506  18.637  0.00  0.00    +0.000 A 
ENDBRANCH  21  22
ENDBRANCH   6  21
TORSDOF 5
ENDMDL
MODEL 5
REMARK VINA RESULT:      -6.9      3.014      8.525
REMARK  Name = 
REMARK  7 active torsions:
REMARK  status: ('A' for Active; 'I' for Inactive)
REMARK    1  A    between atoms: C_1  and  C_2
REMARK    2  A    between atoms: C_3  and  C_4
REMARK    3  A    between atoms: C_6  and  C_7
REMARK    4  A    between atoms: N_12  and  C_13
REMARK    5  A    between atoms: C_13  and  C_14
REMARK    6  A    between atoms: C_22  and  C_23
REMARK    7  A    between atoms: C_23  and  O_25
REMARK                            x       y       z     vdW  Elec       q    Type
REMARK                         _______ _______ _______ _____ _____    ______ ____
ROOT
ATOM      1  C   UNL     1       2.245   7.915  18.658  0.00  0.00    +0.000 C 
ATOM      2  O   UNL     1       2.123   8.084  17.445  0.00  0.00    +0.000 OA
ATOM      3  N   UNL     1       1.603   8.740  19.573  0.00  0.00    +0.000 N 
ATOM      4  C   UNL     1       0.565   9.662  19.103  0.00  0.00    +0.000 C 
ATOM      5  C   UNL     1      -0.646   9.688  20.071  0.00  0.00    +0.000 C 
ATOM      6  N   UNL     1      -0.311   9.870  21.511  0.00  0.00    +0.000 NA
ATOM      7  C   UNL     1       0.720   8.874  21.879  0.00  0.00    +0.000 C 
ATOM      8  C   UNL     1       1.970   8.914  20.985  0.00  0.00    +0.000 C 
ENDROOT
BRANCH   1  14
ATOM      9  C   UNL     1       2.066   2.571  17.773  0.00  0.00    +0.000 C 
ATOM     10  C   UNL     1       2.367   3.925  18.381  0.00  0.00    +0.000 C 
ATOM     11  C   UNL     1       1.778   4.422  19.478  0.00  0.00    +0.000 C 
ATOM     12  C   UNL     1       0.717   3.720  20.305  0.00  0.00    +0.000 C 
ATOM     13  C   UNL     1       2.070   5.805  20.000  0.00  0.00    +0.000 C 
ATOM     14  C   UNL     1       3.034   6.725  19.226  0.00  0.00    +0.000 C 
ATOM     15  C   UNL     1       3.897   6.031  18.154  0.00  0.00    +0.000 C 
ATOM     16  C   UNL     1       3.375   4.711  17.572  0.00  0.00    +0.000 C 
BRANCH  15  17
ATOM     17  C   UNL     1       5.319   5.921  18.671  0.00  0.00    +0.000 C 
ATOM     18  O   UNL     1       5.626   5.324  19.692  0.00  0.00    +0.000 OA
BRANCH  17  19
ATOM     19  O   UNL     1       6.257   6.464  17.863  0.00  0.00    +0.000 OA
ATOM     20  H   UNL     1       7.117   6.633  18.305  0.00  0.00    +0.000 HD
ENDBRANCH  17  19
ENDBRANCH  15  17
ENDBRANCH   1  14
BRANCH   6  21
ATOM     21  C   UNL     1       0.109  11.259  21.765  0.00  0.00    +0.000 C 
BRANCH  21  22
ATOM     22  C   UNL     1      -0.905  12.108  22.504  0.00  0.00    +0.000 A 
ATOM     23  C   UNL     1      -0.702  13.491  22.641  0.00  0.00    +0.000 A 
ATOM     24  C   UNL     1      -1.654  14.289  23.277  0.00  0.00    +0.000 A 
ATOM     25  C   UNL     1      -2.820  13.716  23.780  0.00  0.00    +0.000 A 
ATOM     26  C   UNL     1      -3.026  12.342  23.665  0.00  0.00    +0.000 A 
ATOM     27  C   UNL     1      -2.071  11.540  23.035  0.00  0.00    +0.000 A 
ENDBRANCH  21  22
ENDBRANCH   6  21
TORSDOF 5
ENDMDL
MODEL 6
REMARK VINA RESULT:      -6.8      0.752      1.277
REMARK  Name = 
REMARK  7 active torsions:
REMARK  status: ('A' for Active; 'I' for Inactive)
REMARK    1  A    between atoms: C_1  and  C_2
REMARK    2  A    between atoms: C_3  and  C_4
REMARK    3  A    between atoms: C_6  and  C_7
REMARK    4  A    between atoms: N_12  and  C_13
REMARK    5  A    between atoms: C_13  and  C_14
REMARK    6  A    between atoms: C_22  and  C_23
REMARK    7  A    between atoms: C_23  and  O_25
REMARK                            x       y       z     vdW  Elec       q    Type
REMARK                         _______ _______ _______ _____ _____    ______ ____
ROOT
ATOM      1  C   UNL     1       0.915   9.089  20.247  0.00  0.00    +0.000 C 
ATOM      2  O   UNL     1       0.368   9.194  21.345  0.00  0.00    +0.000 OA
ATOM      3  N   UNL     1       1.673   7.972  19.919  0.00  0.00    +0.000 N 
ATOM      4  C   UNL     1       1.619   6.789  20.782  0.00  0.00    +0.000 C 
ATOM      5  C   UNL     1       1.559   5.484  19.946  0.00  0.00    +0.000 C 
ATOM      6  N   UNL     1       2.574   5.371  18.862  0.00  0.00    +0.000 NA
ATOM      7  C   UNL     1       2.520   6.602  18.042  0.00  0.00    +0.000 C 
ATOM      8  C   UNL     1       2.684   7.897  18.855  0.00  0.00    +0.000 C 
ENDROOT
BRANCH   1  14
ATOM      9  C   UNL     1      -1.733  13.814  20.064  0.00  0.00    +0.000 C 
ATOM     10  C   UNL     1      -0.995  12.555  19.659  0.00  0.00    +0.000 C 
ATOM     11  C   UNL     1      -1.569  11.468  19.124  0.00  0.00    +0.000 C 
ATOM     12  C   UNL     1      -3.048  11.306  18.825  0.00  0.00    +0.000 C 
ATOM     13  C   UNL     1      -0.794  10.217  18.801  0.00  0.00    +0.000 C 
ATOM     14  C   UNL     1       0.707  10.139  19.146  0.00  0.00    +0.000 C 
ATOM     15  C   UNL     1       1.380  11.483  19.483  0.00  0.00    +0.000 C 
ATOM     16  C   UNL     1       0.480  12.619  19.985  0.00  0.00    +0.000 C 
BRANCH  15  17
ATOM     17  C   UNL     1       2.251  11.899  18.312  0.00  0.00    +0.000 C 
ATOM     18  O   UNL     1       2.829  12.973  18.244  0.00  0.00    +0.000 OA
BRANCH  17  19
ATOM     19  O   UNL     1       2.418  10.946  17.367  0.00  0.00    +0.000 OA
ATOM     20  H   UNL     1       3.115  10.289  17.581  0.00  0.00    +0.000 HD
ENDBRANCH  17  19
ENDBRANCH  15  17
ENDBRANCH   1  14
BRANCH   6  21
ATOM     21  C   UNL     1       3.906   5.115  19.435  0.00  0.00    +0.000 C 
BRANCH  21  22
ATOM     22  C   UNL     1       5.022   4.970  18.420  0.00  0.00    +0.000 A 
ATOM     23  C   UNL     1       6.247   5.626  18.618  0.00  0.00    +0.000 A 
ATOM     24  C   UNL     1       7.297   5.459  17.714  0.00  0.00    +0.000 A 
ATOM     25  C   UNL     1       7.136   4.633  16.604  0.00  0.00    +0.000 A 
ATOM     26  C   UNL     1       5.918   3.989  16.386  0.00  0.00    +0.000 A 
ATOM     27  C   UNL     1       4.864   4.160  17.287  0.00  0.00    +0.000 A 
ENDBRANCH  21  22
ENDBRANCH   6  21
TORSDOF 5
ENDMDL
MODEL 7
REMARK VINA RESULT:      -6.7      2.784      8.465
REMARK  Name = 
REMARK  7 active torsions:
REMARK  status: ('A' for Active; 'I' for Inactive)
REMARK    1  A    between atoms: C_1  and  C_2
REMARK    2  A    between atoms: C_3  and  C_4
REMARK    3  A    between atoms: C_6  and  C_7
REMARK    4  A    between atoms: N_12  and  C_13
REMARK    5  A    between atoms: C_13  and  C_14
REMARK    6  A    between atoms: C_22  and  C_23
REMARK    7  A    between atoms: C_23  and  O_25
REMARK                            x       y       z     vdW  Elec       q    Type
REMARK                         _______ _______ _______ _____ _____    ______ ____
ROOT
ATOM      1  C   UNL     1       2.586   7.837  18.452  0.00  0.00    +0.000 C 
ATOM      2  O   UNL     1       2.678   8.075  17.248  0.00  0.00    +0.000 OA
ATOM      3  N   UNL     1       1.774   8.601  19.281  0.00  0.00    +0.000 N 
ATOM      4  C   UNL     1       0.818   9.538  18.685  0.00  0.00    +0.000 C 
ATOM      5  C   UNL     1      -0.546   9.495  19.421  0.00  0.00    +0.000 C 
ATOM      6  N   UNL     1      -0.477   9.598  20.904  0.00  0.00    +0.000 NA
ATOM      7  C   UNL     1       0.493   8.593  21.396  0.00  0.00    +0.000 C 
ATOM      8  C   UNL     1       1.881   8.697  20.744  0.00  0.00    +0.000 C 
ENDROOT
BRANCH   1  14
ATOM      9  C   UNL     1       2.257   2.494  17.611  0.00  0.00    +0.000 C 
ATOM     10  C   UNL     1       2.569   3.842  18.224  0.00  0.00    +0.000 C 
ATOM     11  C   UNL     1       1.925   4.376  19.272  0.00  0.00    +0.000 C 
ATOM     12  C   UNL     1       0.782   3.727  20.031  0.00  0.00    +0.000 C 
ATOM     13  C   UNL     1       2.235   5.753  19.800  0.00  0.00    +0.000 C 
ATOM     14  C   UNL     1       3.286   6.625  19.085  0.00  0.00    +0.000 C 
ATOM     15  C   UNL     1       4.193   5.884  18.084  0.00  0.00    +0.000 C 
ATOM     16  C   UNL     1       3.660   4.578  17.480  0.00  0.00    +0.000 C 
BRANCH  15  17
ATOM     17  C   UNL     1       5.570   5.725  18.700  0.00  0.00    +0.000 C 
ATOM     18  O   UNL     1       5.813   4.979  19.636  0.00  0.00    +0.000 OA
BRANCH  17  19
ATOM     19  O   UNL     1       6.551   6.414  18.074  0.00  0.00    +0.000 OA
ATOM     20  H   UNL     1       6.287   7.314  17.786  0.00  0.00    +0.000 HD
ENDBRANCH  17  19
ENDBRANCH  15  17
ENDBRANCH   1  14
BRANCH   6  21
ATOM     21  C   UNL     1      -0.138  10.973  21.306  0.00  0.00    +0.000 C 
BRANCH  21  22
ATOM     22  C   UNL     1      -1.316  11.824  21.733  0.00  0.00    +0.000 A 
ATOM     23  C   UNL     1      -1.878  11.663  23.010  0.00  0.00    +0.000 A 
ATOM     24  C   UNL     1      -2.932  12.475  23.430  0.00  0.00    +0.000 A 
ATOM     25  C   UNL     1      -3.434  13.460  22.582  0.00  0.00    +0.000 A 
ATOM     26  C   UNL     1      -2.896  13.619  21.306  0.00  0.00    +0.000 A 
ATOM     27  C   UNL     1      -1.845  12.802  20.881  0.00  0.00    +0.000 A 
ENDBRANCH  21  22
ENDBRANCH   6  21
TORSDOF 5
ENDMDL
MODEL 8
REMARK VINA RESULT:      -6.7      2.579      4.285
REMARK  Name = 
REMARK  7 active torsions:
REMARK  status: ('A' for Active; 'I' for Inactive)
REMARK    1  A    between atoms: C_1  and  C_2
REMARK    2  A    between atoms: C_3  and  C_4
REMARK    3  A    between atoms: C_6  and  C_7
REMARK    4  A    between atoms: N_12  and  C_13
REMARK    5  A    between atoms: C_13  and  C_14
REMARK    6  A    between atoms: C_22  and  C_23
REMARK    7  A    between atoms: C_23  and  O_25
REMARK                            x       y       z     vdW  Elec       q    Type
REMARK                         _______ _______ _______ _____ _____    ______ ____
ROOT
ATOM      1  C   UNL     1       0.878  10.361  19.292  0.00  0.00    +0.000 C 
ATOM      2  O   UNL     1       0.514  11.076  18.358  0.00  0.00    +0.000 OA
ATOM      3  N   UNL     1       1.356   9.075  19.077  0.00  0.00    +0.000 N 
ATOM      4  C   UNL     1       1.674   8.646  17.713  0.00  0.00    +0.000 C 
ATOM      5  C   UNL     1       2.994   7.833  17.671  0.00  0.00    +0.000 C 
ATOM      6  N   UNL     1       3.101   6.733  18.668  0.00  0.00    +0.000 NA
ATOM      7  C   UNL     1       2.787   7.285  20.006  0.00  0.00    +0.000 C 
ATOM      8  C   UNL     1       1.429   8.003  20.080  0.00  0.00    +0.000 C 
ENDROOT
BRANCH   1  14
ATOM      9  C   UNL     1      -1.740  14.346  21.869  0.00  0.00    +0.000 C 
ATOM     10  C   UNL     1      -0.747  13.255  21.528  0.00  0.00    +0.000 C 
ATOM     11  C   UNL     1       0.512  13.464  21.116  0.00  0.00    +0.000 C 
ATOM     12  C   UNL     1       1.165  14.821  20.927  0.00  0.00    +0.000 C 
ATOM     13  C   UNL     1       1.436  12.340  20.727  0.00  0.00    +0.000 C 
ATOM     14  C   UNL     1       0.917  10.888  20.734  0.00  0.00    +0.000 C 
ATOM     15  C   UNL     1      -0.415  10.664  21.476  0.00  0.00    +0.000 C 
ATOM     16  C   UNL     1      -1.348  11.871  21.634  0.00  0.00    +0.000 C 
BRANCH  15  17
ATOM     17  C   UNL     1      -0.127   9.969  22.794  0.00  0.00    +0.000 C 
ATOM     18  O   UNL     1       0.998   9.786  23.233  0.00  0.00    +0.000 OA
BRANCH  17  19
ATOM     19  O   UNL     1      -1.226   9.637  23.508  0.00  0.00    +0.000 OA
ATOM     20  H   UNL     1      -1.790  10.402  23.755  0.00  0.00    +0.000 HD
ENDBRANCH  17  19
ENDBRANCH  15  17
ENDBRANCH   1  14
BRANCH   6  21
ATOM     21  C   UNL     1       2.226   5.611  18.287  0.00  0.00    +0.000 C 
BRANCH  21  22
ATOM     22  C   UNL     1       2.212   4.451  19.261  0.00  0.00    +0.000 A 
ATOM     23  C   UNL     1       3.376   3.697  19.479  0.00  0.00    +0.000 A 
ATOM     24  C   UNL     1       3.387   2.658  20.410  0.00  0.00    +0.000 A 
ATOM     25  C   UNL     1       2.235   2.363  21.137  0.00  0.00    +0.000 A 
ATOM     26  C   UNL     1       1.068   3.093  20.919  0.00  0.00    +0.000 A 
ATOM     27  C   UNL     1       1.054   4.129  19.981  0.00  0.00    +0.000 A 
ENDBRANCH  21  22
ENDBRANCH   6  21
TORSDOF 5
ENDMDL
MODEL 9
REMARK VINA RESULT:      -6.5      2.440      4.290
REMARK  Name = 
REMARK  7 active torsions:
REMARK  status: ('A' for Active; 'I' for Inactive)
REMARK    1  A    between atoms: C_1  and  C_2
REMARK    2  A    between atoms: C_3  and  C_4
REMARK    3  A    between atoms: C_6  and  C_7
REMARK    4  A    between atoms: N_12  and  C_13
REMARK    5  A    between atoms: C_13  and  C_14
REMARK    6  A    between atoms: C_22  and  C_23
REMARK    7  A    between atoms: C_23  and  O_25
REMARK                            x       y       z     vdW  Elec       q    Type
REMARK                         _______ _______ _______ _____ _____    ______ ____
ROOT
ATOM      1  C   UNL     1       0.932  10.985  19.380  0.00  0.00    +0.000 C 
ATOM      2  O   UNL     1       0.781  11.783  18.454  0.00  0.00    +0.000 OA
ATOM      3  N   UNL     1       1.223   9.648  19.143  0.00  0.00    +0.000 N 
ATOM      4  C   UNL     1       1.608   9.225  17.793  0.00  0.00    +0.000 C 
ATOM      5  C   UNL     1       2.782   8.213  17.833  0.00  0.00    +0.000 C 
ATOM      6  N   UNL     1       2.614   7.073  18.776  0.00  0.00    +0.000 NA
ATOM      7  C   UNL     1       2.256   7.617  20.105  0.00  0.00    +0.000 C 
ATOM      8  C   UNL     1       1.027   8.541  20.089  0.00  0.00    +0.000 C 
ENDROOT
BRANCH   1  14
ATOM      9  C   UNL     1      -0.930  15.434  21.852  0.00  0.00    +0.000 C 
ATOM     10  C   UNL     1      -0.205  14.135  21.570  0.00  0.00    +0.000 C 
ATOM     11  C   UNL     1       1.111  14.026  21.331  0.00  0.00    +0.000 C 
ATOM     12  C   UNL     1       2.101  15.176  21.308  0.00  0.00    +0.000 C 
ATOM     13  C   UNL     1       1.768  12.714  20.991  0.00  0.00    +0.000 C 
ATOM     14  C   UNL     1       0.907  11.445  20.845  0.00  0.00    +0.000 C 
ATOM     15  C   UNL     1      -0.527  11.548  21.401  0.00  0.00    +0.000 C 
ATOM     16  C   UNL     1      -1.141  12.949  21.516  0.00  0.00    +0.000 C 
BRANCH  15  17
ATOM     17  C   UNL     1      -0.603  10.766  22.699  0.00  0.00    +0.000 C 
ATOM     18  O   UNL     1       0.325  10.116  23.156  0.00  0.00    +0.000 OA
BRANCH  17  19
ATOM     19  O   UNL     1      -1.763  10.911  23.378  0.00  0.00    +0.000 OA
ATOM     20  H   UNL     1      -2.295  10.089  23.442  0.00  0.00    +0.000 HD
ENDBRANCH  17  19
ENDBRANCH  15  17
ENDBRANCH   1  14
BRANCH   6  21
ATOM     21  C   UNL     1       1.619   6.121  18.254  0.00  0.00    +0.000 C 
BRANCH  21  22
ATOM     22  C   UNL     1       1.958   4.660  18.467  0.00  0.00    +0.000 A 
ATOM     23  C   UNL     1       1.332   3.931  19.490  0.00  0.00    +0.000 A 
ATOM     24  C   UNL     1       1.602   2.573  19.663  0.00  0.00    +0.000 A 
ATOM     25  C   UNL     1       2.498   1.927  18.813  0.00  0.00    +0.000 A 
ATOM     26  C   UNL     1       3.139   2.643  17.804  0.00  0.00    +0.000 A 
ATOM     27  C   UNL     1       2.875   4.005  17.634  0.00  0.00    +0.000 A 
ENDBRANCH  21  22
ENDBRANCH   6  21
TORSDOF 5
ENDMDL
