MODEL 1
REMARK VINA RESULT:      -7.0      0.000      0.000
REMARK  Name = 
REMARK  9 active torsions:
REMARK  status: ('A' for Active; 'I' for Inactive)
REMARK    1  A    between atoms: C_1  and  C_2
REMARK    2  A    between atoms: C_4  and  C_5
REMARK    3  A    between atoms: C_6  and  C_7
REMARK    4  A    between atoms: C_10  and  C_11
REMARK    5  A    between atoms: C_11  and  C_12
REMARK    6  A    between atoms: C_12  and  C_13
REMARK    7  A    between atoms: C_17  and  C_18
REMARK    8  A    between atoms: C_23  and  C_24
REMARK    9  A    between atoms: C_27  and  C_28
REMARK                            x       y       z     vdW  Elec       q    Type
REMARK                         _______ _______ _______ _____ _____    ______ ____
ROOT
ATOM      1  C   UNL     1       1.390   9.756  18.586  0.00  0.00    +0.000 C 
ATOM      2  C   UNL     1      -0.018  10.288  18.455  0.00  0.00    +0.000 A 
ATOM      3  C   UNL     1      -0.819   9.714  17.447  0.00  0.00    +0.000 A 
ATOM      4  C   UNL     1      -2.140  10.121  17.233  0.00  0.00    +0.000 A 
ATOM      5  C   UNL     1      -2.941   9.462  16.143  0.00  0.00    +0.000 C 
ATOM      6  C   UNL     1      -2.674  11.151  18.018  0.00  0.00    +0.000 A 
ATOM      7  C   UNL     1      -1.838  11.795  18.939  0.00  0.00    +0.000 A 
ATOM      8  C   UNL     1      -0.547  11.326  19.238  0.00  0.00    +0.000 A 
ENDROOT
BRANCH   8   9
ATOM      9  C   UNL     1       0.240  11.991  20.334  0.00  0.00    +0.000 C 
ATOM     10  O   UNL     1       0.037  11.615  21.485  0.00  0.00    +0.000 OA
ATOM     11  N   UNL     1       1.184  13.000  20.043  0.00  0.00    +0.000 N 
ATOM     12  C   UNL     1       2.077  13.428  21.121  0.00  0.00    +0.000 C 
ATOM     13  C   UNL     1       2.252  14.948  21.145  0.00  0.00    +0.000 C 
ATOM     14  C   UNL     1       2.682  15.529  19.783  0.00  0.00    +0.000 C 
ATOM     15  C   UNL     1       1.660  15.066  18.735  0.00  0.00    +0.000 C 
ATOM     16  C   UNL     1       1.502  13.555  18.723  0.00  0.00    +0.000 C 
BRANCH  14  17
ATOM     17  C   UNL     1       4.129  15.274  19.358  0.00  0.00    +0.000 A 
ATOM     18  C   UNL     1       4.491  14.940  18.044  0.00  0.00    +0.000 A 
ATOM     19  C   UNL     1       5.821  14.688  17.703  0.00  0.00    +0.000 A 
ATOM     20  C   UNL     1       6.813  14.745  18.678  0.00  0.00    +0.000 A 
ATOM     21  C   UNL     1       6.480  15.062  19.994  0.00  0.00    +0.000 A 
ATOM     22  C   UNL     1       5.147  15.319  20.329  0.00  0.00    +0.000 A 
BRANCH  20  23
ATOM     23  C   UNL     1       8.168  14.468  18.335  0.00  0.00    +0.000 C 
ATOM     24  N   UNL     1       9.274  14.230  18.066  0.00  0.00    +0.000 NA
ENDBRANCH  20  23
ENDBRANCH  14  17
ENDBRANCH   8   9
BRANCH   6  25
ATOM     25  C   UNL     1      -4.076  11.543  17.900  0.00  0.00    +0.000 A 
ATOM     26  N   UNL     1      -4.687  12.014  16.828  0.00  0.00    +0.000 NA
ATOM     27  N   UNL     1      -5.982  12.319  17.152  0.00  0.00    +0.000 NA
ATOM     28  C   UNL     1      -6.153  12.018  18.417  0.00  0.00    +0.000 A 
ATOM     29  N   UNL     1      -4.996  11.483  18.913  0.00  0.00    +0.000 N 
ATOM     30  H   UNL     1      -4.837  11.134  19.847  0.00  0.00    +0.000 HD
BRANCH  28  31
ATOM     31  C   UNL     1      -7.395  12.170  19.207  0.00  0.00    +0.000 C 
BRANCH  31  32
ATOM     32  C   UNL     1      -7.586  11.009  20.170  0.00  0.00    +0.000 C 
BRANCH  32  33
ATOM     33  C   UNL     1      -7.540  11.489  21.611  0.00  0.00    +0.000 C 
ATOM     34  N   UNL     1      -7.502  11.888  22.807  0.00  0.00    +0.000 NA
ENDBRANCH  32  33
ENDBRANCH  31  32
ENDBRANCH  28  31
ENDBRANCH   6  25
TORSDOF 7
ENDMDL
MODEL 2
REMARK VINA RESULT:      -6.9      4.695      9.562
REMARK  Name = 
REMARK  9 active torsions:
REMARK  status: ('A' for Active; 'I' for Inactive)
REMARK    1  A    between atoms: C_1  and  C_2
REMARK    2  A    between atoms: C_4  and  C_5
REMARK    3  A    between atoms: C_6  and  C_7
REMARK    4  A    between atoms: C_10  and  C_11
REMARK    5  A    between atoms: C_11  and  C_12
REMARK    6  A    between atoms: C_12  and  C_13
REMARK    7  A    between atoms: C_17  and  C_18
REMARK    8  A    between atoms: C_23  and  C_24
REMARK    9  A    between atoms: C_27  and  C_28
REMARK                            x       y       z     vdW  Elec       q    Type
REMARK                         _______ _______ _______ _____ _____    ______ ____
ROOT
ATOM      1  C   UNL     1       1.159   4.000  18.577  0.00  0.00    +0.000 C 
ATOM      2  C   UNL     1       2.460   4.726  18.330  0.00  0.00    +0.000 A 
ATOM      3  C   UNL     1       3.353   4.128  17.418  0.00  0.00    +0.000 A 
ATOM      4  C   UNL     1       4.587   4.710  17.105  0.00  0.00    +0.000 A 
ATOM      5  C   UNL     1       5.491   4.022  16.118  0.00  0.00    +0.000 C 
ATOM      6  C   UNL     1       4.962   5.902  17.739  0.00  0.00    +0.000 A 
ATOM      7  C   UNL     1       4.122   6.429  18.728  0.00  0.00    +0.000 A 
ATOM      8  C   UNL     1       2.836   5.916  18.973  0.00  0.00    +0.000 A 
ENDROOT
BRANCH   8   9
ATOM      9  C   UNL     1       1.941   6.617  19.958  0.00  0.00    +0.000 C 
ATOM     10  O   UNL     1       1.589   5.987  20.951  0.00  0.00    +0.000 OA
ATOM     11  N   UNL     1       1.534   7.953  19.749  0.00  0.00    +0.000 N 
ATOM     12  C   UNL     1       0.868   8.643  20.855  0.00  0.00    +0.000 C 
ATOM     13  C   UNL     1      -0.326   9.471  20.374  0.00  0.00    +0.000 C 
ATOM     14  C   UNL     1       0.032  10.440  19.229  0.00  0.00    +0.000 C 
ATOM     15  C   UNL     1       0.675   9.615  18.104  0.00  0.00    +0.000 C 
ATOM     16  C   UNL     1       1.860   8.804  18.599  0.00  0.00    +0.000 C 
BRANCH  14  17
ATOM     17  C   UNL     1       0.854  11.672  19.609  0.00  0.00    +0.000 A 
ATOM     18  C   UNL     1       0.706  12.340  20.835  0.00  0.00    +0.000 A 
ATOM     19  C   UNL     1       1.457  13.478  21.133  0.00  0.00    +0.000 A 
ATOM     20  C   UNL     1       2.356  13.984  20.198  0.00  0.00    +0.000 A 
ATOM     21  C   UNL     1       2.514  13.347  18.968  0.00  0.00    +0.000 A 
ATOM     22  C   UNL     1       1.764  12.204  18.677  0.00  0.00    +0.000 A 
BRANCH  20  23
ATOM     23  C   UNL     1       3.108  15.157  20.493  0.00  0.00    +0.000 C 
ATOM     24  N   UNL     1       3.727  16.108  20.748  0.00  0.00    +0.000 NA
ENDBRANCH  20  23
ENDBRANCH  14  17
ENDBRANCH   8   9
BRANCH   6  25
ATOM     25  C   UNL     1       6.193   6.597  17.374  0.00  0.00    +0.000 A 
ATOM     26  N   UNL     1       7.172   6.144  16.613  0.00  0.00    +0.000 NA
ATOM     27  N   UNL     1       8.172   7.077  16.570  0.00  0.00    +0.000 NA
ATOM     28  C   UNL     1       7.787   8.101  17.295  0.00  0.00    +0.000 A 
ATOM     29  N   UNL     1       6.530   7.861  17.779  0.00  0.00    +0.000 N 
ATOM     30  H   UNL     1       5.966   8.479  18.344  0.00  0.00    +0.000 HD
BRANCH  28  31
ATOM     31  C   UNL     1       8.539   9.352  17.536  0.00  0.00    +0.000 C 
BRANCH  31  32
ATOM     32  C   UNL     1       8.965   9.472  18.990  0.00  0.00    +0.000 C 
BRANCH  32  33
ATOM     33  C   UNL     1       9.719  10.769  19.228  0.00  0.00    +0.000 C 
ATOM     34  N   UNL     1      10.345  11.847  19.424  0.00  0.00    +0.000 NA
ENDBRANCH  32  33
ENDBRANCH  31  32
ENDBRANCH  28  31
ENDBRANCH   6  25
TORSDOF 7
ENDMDL
MODEL 3
REMARK VINA RESULT:      -6.9      3.954      5.750
REMARK  Name = 
REMARK  9 active torsions:
REMARK  status: ('A' for Active; 'I' for Inactive)
REMARK    1  A    between atoms: C_1  and  C_2
REMARK    2  A    between atoms: C_4  and  C_5
REMARK    3  A    between atoms: C_6  and  C_7
REMARK    4  A    between atoms: C_10  and  C_11
REMARK    5  A    between atoms: C_11  and  C_12
REMARK    6  A    between atoms: C_12  and  C_13
REMARK    7  A    between atoms: C_17  and  C_18
REMARK    8  A    between atoms: C_23  and  C_24
REMARK    9  A    between atoms: C_27  and  C_28
REMARK                            x       y       z     vdW  Elec       q    Type
REMARK                         _______ _______ _______ _____ _____    ______ ____
ROOT
ATOM      1  C   UNL     1      -1.231  14.298  19.800  0.00  0.00    +0.000 C 
ATOM      2  C   UNL     1      -0.458  13.015  19.600  0.00  0.00    +0.000 A 
ATOM      3  C   UNL     1      -1.128  11.973  18.927  0.00  0.00    +0.000 A 
ATOM      4  C   UNL     1      -0.513  10.741  18.679  0.00  0.00    +0.000 A 
ATOM      5  C   UNL     1      -1.284   9.673  17.950  0.00  0.00    +0.000 C 
ATOM      6  C   UNL     1       0.791  10.521  19.141  0.00  0.00    +0.000 A 
ATOM      7  C   UNL     1       1.408  11.517  19.908  0.00  0.00    +0.000 A 
ATOM      8  C   UNL     1       0.846  12.796  20.071  0.00  0.00    +0.000 A 
ENDROOT
BRANCH   8   9
ATOM      9  C   UNL     1       1.629  13.855  20.797  0.00  0.00    +0.000 C 
ATOM     10  O   UNL     1       1.371  14.037  21.983  0.00  0.00    +0.000 OA
ATOM     11  N   UNL     1       2.631  14.601  20.138  0.00  0.00    +0.000 N 
ATOM     12  C   UNL     1       3.508  15.437  20.958  0.00  0.00    +0.000 C 
ATOM     13  C   UNL     1       3.757  16.803  20.315  0.00  0.00    +0.000 C 
ATOM     14  C   UNL     1       4.259  16.704  18.860  0.00  0.00    +0.000 C 
ATOM     15  C   UNL     1       3.250  15.854  18.075  0.00  0.00    +0.000 C 
ATOM     16  C   UNL     1       3.018  14.501  18.726  0.00  0.00    +0.000 C 
BRANCH  14  17
ATOM     17  C   UNL     1       5.704  16.244  18.666  0.00  0.00    +0.000 A 
ATOM     18  C   UNL     1       6.810  16.998  19.090  0.00  0.00    +0.000 A 
ATOM     19  C   UNL     1       8.114  16.555  18.870  0.00  0.00    +0.000 A 
ATOM     20  C   UNL     1       8.339  15.355  18.200  0.00  0.00    +0.000 A 
ATOM     21  C   UNL     1       7.259  14.591  17.757  0.00  0.00    +0.000 A 
ATOM     22  C   UNL     1       5.955  15.037  17.986  0.00  0.00    +0.000 A 
BRANCH  20  23
ATOM     23  C   UNL     1       9.670  14.911  17.957  0.00  0.00    +0.000 C 
ATOM     24  N   UNL     1      10.755  14.549  17.742  0.00  0.00    +0.000 NA
ENDBRANCH  20  23
ENDBRANCH  14  17
ENDBRANCH   8   9
BRANCH   6  25
ATOM     25  C   UNL     1       1.509   9.290  18.821  0.00  0.00    +0.000 A 
ATOM     26  N   UNL     1       2.100   8.982  17.681  0.00  0.00    +0.000 NA
ATOM     27  N   UNL     1       2.601   7.712  17.768  0.00  0.00    +0.000 NA
ATOM     28  C   UNL     1       2.323   7.260  18.968  0.00  0.00    +0.000 A 
ATOM     29  N   UNL     1       1.680   8.236  19.678  0.00  0.00    +0.000 N 
ATOM     30  H   UNL     1       1.369   8.187  20.637  0.00  0.00    +0.000 HD
BRANCH  28  31
ATOM     31  C   UNL     1       2.674   5.933  19.521  0.00  0.00    +0.000 C 
BRANCH  31  32
ATOM     32  C   UNL     1       1.627   5.452  20.513  0.00  0.00    +0.000 C 
BRANCH  32  33
ATOM     33  C   UNL     1       2.122   4.234  21.274  0.00  0.00    +0.000 C 
ATOM     34  N   UNL     1       2.534   3.222  21.905  0.00  0.00    +0.000 NA
ENDBRANCH  32  33
ENDBRANCH  31  32
ENDBRANCH  28  31
ENDBRANCH   6  25
TORSDOF 7
ENDMDL
MODEL 4
REMARK VINA RESULT:      -6.9      3.950      6.213
REMARK  Name = 
REMARK  9 active torsions:
REMARK  status: ('A' for Active; 'I' for Inactive)
REMARK    1  A    between atoms: C_1  and  C_2
REMARK    2  A    between atoms: C_4  and  C_5
REMARK    3  A    between atoms: C_6  and  C_7
REMARK    4  A    between atoms: C_10  and  C_11
REMARK    5  A    between atoms: C_11  and  C_12
REMARK    6  A    between atoms: C_12  and  C_13
REMARK    7  A    between atoms: C_17  and  C_18
REMARK    8  A    between atoms: C_23  and  C_24
REMARK    9  A    between atoms: C_27  and  C_28
REMARK                            x       y       z     vdW  Elec       q    Type
REMARK                         _______ _______ _______ _____ _____    ______ ____
ROOT
ATOM      1  C   UNL     1      -0.431  14.835  19.160  0.00  0.00    +0.000 C 
ATOM      2  C   UNL     1       0.054  13.414  19.330  0.00  0.00    +0.000 A 
ATOM      3  C   UNL     1      -0.744  12.402  18.758  0.00  0.00    +0.000 A 
ATOM      4  C   UNL     1      -0.394  11.050  18.846  0.00  0.00    +0.000 A 
ATOM      5  C   UNL     1      -1.288  10.021  18.208  0.00  0.00    +0.000 C 
ATOM      6  C   UNL     1       0.761  10.685  19.550  0.00  0.00    +0.000 A 
ATOM      7  C   UNL     1       1.486  11.684  20.212  0.00  0.00    +0.000 A 
ATOM      8  C   UNL     1       1.208  13.052  20.042  0.00  0.00    +0.000 A 
ENDROOT
BRANCH   8   9
ATOM      9  C   UNL     1       2.113  14.070  20.681  0.00  0.00    +0.000 C 
ATOM     10  O   UNL     1       1.826  14.452  21.811  0.00  0.00    +0.000 OA
ATOM     11  N   UNL     1       3.255  14.554  20.006  0.00  0.00    +0.000 N 
ATOM     12  C   UNL     1       4.212  15.352  20.774  0.00  0.00    +0.000 C 
ATOM     13  C   UNL     1       4.712  16.561  19.979  0.00  0.00    +0.000 C 
ATOM     14  C   UNL     1       5.267  16.185  18.591  0.00  0.00    +0.000 C 
ATOM     15  C   UNL     1       4.176  15.398  17.851  0.00  0.00    +0.000 C 
ATOM     16  C   UNL     1       3.695  14.200  18.652  0.00  0.00    +0.000 C 
BRANCH  14  17
ATOM     17  C   UNL     1       6.627  15.486  18.566  0.00  0.00    +0.000 A 
ATOM     18  C   UNL     1       7.715  15.905  19.347  0.00  0.00    +0.000 A 
ATOM     19  C   UNL     1       8.949  15.257  19.274  0.00  0.00    +0.000 A 
ATOM     20  C   UNL     1       9.123  14.187  18.400  0.00  0.00    +0.000 A 
ATOM     21  C   UNL     1       8.062  13.757  17.604  0.00  0.00    +0.000 A 
ATOM     22  C   UNL     1       6.828  14.407  17.685  0.00  0.00    +0.000 A 
BRANCH  20  23
ATOM     23  C   UNL     1      10.388  13.537  18.311  0.00  0.00    +0.000 C 
ATOM     24  N   UNL     1      11.415  12.997  18.226  0.00  0.00    +0.000 NA
ENDBRANCH  20  23
ENDBRANCH  14  17
ENDBRANCH   8   9
BRANCH   6  25
ATOM     25  C   UNL     1       1.220   9.299  19.585  0.00  0.00    +0.000 A 
ATOM     26  N   UNL     1       1.100   8.443  20.582  0.00  0.00    +0.000 NA
ATOM     27  N   UNL     1       1.717   7.270  20.239  0.00  0.00    +0.000 NA
ATOM     28  C   UNL     1       2.196   7.417  19.027  0.00  0.00    +0.000 A 
ATOM     29  N   UNL     1       1.866   8.660  18.560  0.00  0.00    +0.000 N 
ATOM     30  H   UNL     1       2.074   9.045  17.650  0.00  0.00    +0.000 HD
BRANCH  28  31
ATOM     31  C   UNL     1       2.939   6.411  18.236  0.00  0.00    +0.000 C 
BRANCH  31  32
ATOM     32  C   UNL     1       2.293   5.039  18.339  0.00  0.00    +0.000 C 
BRANCH  32  33
ATOM     33  C   UNL     1       3.243   3.957  17.854  0.00  0.00    +0.000 C 
ATOM     34  N   UNL     1       4.033   3.059  17.451  0.00  0.00    +0.000 NA
ENDBRANCH  32  33
ENDBRANCH  31  32
ENDBRANCH  28  31
ENDBRANCH   6  25
TORSDOF 7
ENDMDL
MODEL 5
REMARK VINA RESULT:      -6.8      3.913      6.141
REMARK  Name = 
REMARK  9 active torsions:
REMARK  status: ('A' for Active; 'I' for Inactive)
REMARK    1  A    between atoms: C_1  and  C_2
REMARK    2  A    between atoms: C_4  and  C_5
REMARK    3  A    between atoms: C_6  and  C_7
REMARK    4  A    between atoms: C_10  and  C_11
REMARK    5  A    between atoms: C_11  and  C_12
REMARK    6  A    between atoms: C_12  and  C_13
REMARK    7  A    between atoms: C_17  and  C_18
REMARK    8  A    between atoms: C_23  and  C_24
REMARK    9  A    between atoms: C_27  and  C_28
REMARK                            x       y       z     vdW  Elec       q    Type
REMARK                         _______ _______ _______ _____ _____    ______ ____
ROOT
ATOM      1  C   UNL     1      -1.114  14.538  20.061  0.00  0.00    +0.000 C 
ATOM      2  C   UNL     1      -0.383  13.254  19.745  0.00  0.00    +0.000 A 
ATOM      3  C   UNL     1      -1.127  12.247  19.096  0.00  0.00    +0.000 A 
ATOM      4  C   UNL     1      -0.557  11.017  18.749  0.00  0.00    +0.000 A 
ATOM      5  C   UNL     1      -1.406   9.988  18.052  0.00  0.00    +0.000 C 
ATOM      6  C   UNL     1       0.780  10.763  19.084  0.00  0.00    +0.000 A 
ATOM      7  C   UNL     1       1.479  11.721  19.829  0.00  0.00    +0.000 A 
ATOM      8  C   UNL     1       0.954  13.000  20.088  0.00  0.00    +0.000 A 
ENDROOT
BRANCH   8   9
ATOM      9  C   UNL     1       1.816  14.020  20.780  0.00  0.00    +0.000 C 
ATOM     10  O   UNL     1       1.513  14.332  21.928  0.00  0.00    +0.000 OA
ATOM     11  N   UNL     1       2.936  14.586  20.133  0.00  0.00    +0.000 N 
ATOM     12  C   UNL     1       3.859  15.383  20.943  0.00  0.00    +0.000 C 
ATOM     13  C   UNL     1       4.308  16.651  20.212  0.00  0.00    +0.000 C 
ATOM     14  C   UNL     1       4.877  16.371  18.807  0.00  0.00    +0.000 C 
ATOM     15  C   UNL     1       3.820  15.578  18.026  0.00  0.00    +0.000 C 
ATOM     16  C   UNL     1       3.390  14.322  18.763  0.00  0.00    +0.000 C 
BRANCH  14  17
ATOM     17  C   UNL     1       6.265  15.732  18.748  0.00  0.00    +0.000 A 
ATOM     18  C   UNL     1       6.598  14.711  17.844  0.00  0.00    +0.000 A 
ATOM     19  C   UNL     1       7.869  14.135  17.841  0.00  0.00    +0.000 A 
ATOM     20  C   UNL     1       8.827  14.556  18.759  0.00  0.00    +0.000 A 
ATOM     21  C   UNL     1       8.520  15.561  19.676  0.00  0.00    +0.000 A 
ATOM     22  C   UNL     1       7.247  16.138  19.671  0.00  0.00    +0.000 A 
BRANCH  20  23
ATOM     23  C   UNL     1      10.119  13.955  18.770  0.00  0.00    +0.000 C 
ATOM     24  N   UNL     1      11.176  13.471  18.793  0.00  0.00    +0.000 NA
ENDBRANCH  20  23
ENDBRANCH  14  17
ENDBRANCH   8   9
BRANCH   6  25
ATOM     25  C   UNL     1       1.447   9.536  18.656  0.00  0.00    +0.000 A 
ATOM     26  N   UNL     1       1.950   9.274  17.463  0.00  0.00    +0.000 NA
ATOM     27  N   UNL     1       2.428   7.991  17.454  0.00  0.00    +0.000 NA
ATOM     28  C   UNL     1       2.224   7.486  18.648  0.00  0.00    +0.000 A 
ATOM     29  N   UNL     1       1.654   8.438  19.448  0.00  0.00    +0.000 N 
ATOM     30  H   UNL     1       1.409   8.349  20.423  0.00  0.00    +0.000 HD
BRANCH  28  31
ATOM     31  C   UNL     1       2.583   6.128  19.111  0.00  0.00    +0.000 C 
BRANCH  31  32
ATOM     32  C   UNL     1       3.385   5.377  18.061  0.00  0.00    +0.000 C 
BRANCH  32  33
ATOM     33  C   UNL     1       4.575   4.673  18.690  0.00  0.00    +0.000 C 
ATOM     34  N   UNL     1       5.563   4.087  19.213  0.00  0.00    +0.000 NA
ENDBRANCH  32  33
ENDBRANCH  31  32
ENDBRANCH  28  31
ENDBRANCH   6  25
TORSDOF 7
ENDMDL
MODEL 6
REMARK VINA RESULT:      -6.6      4.041      6.374
REMARK  Name = 
REMARK  9 active torsions:
REMARK  status: ('A' for Active; 'I' for Inactive)
REMARK    1  A    between atoms: C_1  and  C_2
REMARK    2  A    between atoms: C_4  and  C_5
REMARK    3  A    between atoms: C_6  and  C_7
REMARK    4  A    between atoms: C_10  and  C_11
REMARK    5  A    between atoms: C_11  and  C_12
REMARK    6  A    between atoms: C_12  and  C_13
REMARK    7  A    between atoms: C_17  and  C_18
REMARK    8  A    between atoms: C_23  and  C_24
REMARK    9  A    between atoms: C_27  and  C_28
REMARK                            x       y       z     vdW  Elec       q    Type
REMARK                         _______ _______ _______ _____ _____    ______ ____
ROOT
ATOM      1  C   UNL     1      -0.525  14.541  18.951  0.00  0.00    +0.000 C 
ATOM      2  C   UNL     1       0.019  13.146  19.149  0.00  0.00    +0.000 A 
ATOM      3  C   UNL     1      -0.693  12.097  18.530  0.00  0.00    +0.000 A 
ATOM      4  C   UNL     1      -0.283  10.764  18.639  0.00  0.00    +0.000 A 
ATOM      5  C   UNL     1      -1.085   9.694  17.947  0.00  0.00    +0.000 C 
ATOM      6  C   UNL     1       0.844  10.454  19.411  0.00  0.00    +0.000 A 
ATOM      7  C   UNL     1       1.478  11.485  20.116  0.00  0.00    +0.000 A 
ATOM      8  C   UNL     1       1.144  12.839  19.930  0.00  0.00    +0.000 A 
ENDROOT
BRANCH   8   9
ATOM      9  C   UNL     1       1.957  13.897  20.622  0.00  0.00    +0.000 C 
ATOM     10  O   UNL     1       1.642  14.192  21.771  0.00  0.00    +0.000 OA
ATOM     11  N   UNL     1       3.049  14.517  19.975  0.00  0.00    +0.000 N 
ATOM     12  C   UNL     1       3.934  15.355  20.785  0.00  0.00    +0.000 C 
ATOM     13  C   UNL     1       4.321  16.644  20.056  0.00  0.00    +0.000 C 
ATOM     14  C   UNL     1       4.902  16.393  18.650  0.00  0.00    +0.000 C 
ATOM     15  C   UNL     1       3.882  15.552  17.868  0.00  0.00    +0.000 C 
ATOM     16  C   UNL     1       3.513  14.276  18.604  0.00  0.00    +0.000 C 
BRANCH  14  17
ATOM     17  C   UNL     1       6.318  15.821  18.588  0.00  0.00    +0.000 A 
ATOM     18  C   UNL     1       6.669  14.735  17.770  0.00  0.00    +0.000 A 
ATOM     19  C   UNL     1       7.967  14.225  17.763  0.00  0.00    +0.000 A 
ATOM     20  C   UNL     1       8.938  14.779  18.594  0.00  0.00    +0.000 A 
ATOM     21  C   UNL     1       8.615  15.850  19.425  0.00  0.00    +0.000 A 
ATOM     22  C   UNL     1       7.314  16.360  19.424  0.00  0.00    +0.000 A 
BRANCH  20  23
ATOM     23  C   UNL     1      10.259  14.245  18.602  0.00  0.00    +0.000 C 
ATOM     24  N   UNL     1      11.332  13.797  18.600  0.00  0.00    +0.000 NA
ENDBRANCH  20  23
ENDBRANCH  14  17
ENDBRANCH   8   9
BRANCH   6  25
ATOM     25  C   UNL     1       1.367   9.092  19.474  0.00  0.00    +0.000 A 
ATOM     26  N   UNL     1       1.198   8.215  20.446  0.00  0.00    +0.000 NA
ATOM     27  N   UNL     1       1.904   7.080  20.149  0.00  0.00    +0.000 NA
ATOM     28  C   UNL     1       2.486   7.270  18.990  0.00  0.00    +0.000 A 
ATOM     29  N   UNL     1       2.138   8.502  18.508  0.00  0.00    +0.000 N 
ATOM     30  H   UNL     1       2.411   8.912  17.626  0.00  0.00    +0.000 HD
BRANCH  28  31
ATOM     31  C   UNL     1       3.350   6.314  18.261  0.00  0.00    +0.000 C 
BRANCH  31  32
ATOM     32  C   UNL     1       4.218   7.023  17.235  0.00  0.00    +0.000 C 
BRANCH  32  33
ATOM     33  C   UNL     1       5.650   6.517  17.296  0.00  0.00    +0.000 C 
ATOM     34  N   UNL     1       6.838   6.096  17.346  0.00  0.00    +0.000 NA
ENDBRANCH  32  33
ENDBRANCH  31  32
ENDBRANCH  28  31
ENDBRANCH   6  25
TORSDOF 7
ENDMDL
MODEL 7
REMARK VINA RESULT:      -6.5      0.981      1.553
REMARK  Name = 
REMARK  9 active torsions:
REMARK  status: ('A' for Active; 'I' for Inactive)
REMARK    1  A    between atoms: C_1  and  C_2
REMARK    2  A    between atoms: C_4  and  C_5
REMARK    3  A    between atoms: C_6  and  C_7
REMARK    4  A    between atoms: C_10  and  C_11
REMARK    5  A    between atoms: C_11  and  C_12
REMARK    6  A    between atoms: C_12  and  C_13
REMARK    7  A    between atoms: C_17  and  C_18
REMARK    8  A    between atoms: C_23  and  C_24
REMARK    9  A    between atoms: C_27  and  C_28
REMARK                            x       y       z     vdW  Elec       q    Type
REMARK                         _______ _______ _______ _____ _____    ______ ____
ROOT
ATOM      1  C   UNL     1       1.229   9.996  18.831  0.00  0.00    +0.000 C 
ATOM      2  C   UNL     1      -0.180  10.507  18.650  0.00  0.00    +0.000 A 
ATOM      3  C   UNL     1      -0.955   9.882  17.651  0.00  0.00    +0.000 A 
ATOM      4  C   UNL     1      -2.275  10.266  17.394  0.00  0.00    +0.000 A 
ATOM      5  C   UNL     1      -3.048   9.552  16.317  0.00  0.00    +0.000 C 
ATOM      6  C   UNL     1      -2.835  11.323  18.123  0.00  0.00    +0.000 A 
ATOM      7  C   UNL     1      -2.025  12.015  19.031  0.00  0.00    +0.000 A 
ATOM      8  C   UNL     1      -0.735  11.572  19.376  0.00  0.00    +0.000 A 
ENDROOT
BRANCH   8   9
ATOM      9  C   UNL     1       0.023  12.291  20.458  0.00  0.00    +0.000 C 
ATOM     10  O   UNL     1      -0.247  12.008  21.622  0.00  0.00    +0.000 OA
ATOM     11  N   UNL     1       1.014  13.245  20.141  0.00  0.00    +0.000 N 
ATOM     12  C   UNL     1       1.870  13.724  21.228  0.00  0.00    +0.000 C 
ATOM     13  C   UNL     1       2.098  15.235  21.149  0.00  0.00    +0.000 C 
ATOM     14  C   UNL     1       2.611  15.699  19.771  0.00  0.00    +0.000 C 
ATOM     15  C   UNL     1       1.623  15.192  18.711  0.00  0.00    +0.000 C 
ATOM     16  C   UNL     1       1.413  13.691  18.801  0.00  0.00    +0.000 C 
BRANCH  14  17
ATOM     17  C   UNL     1       4.065  15.368  19.438  0.00  0.00    +0.000 A 
ATOM     18  C   UNL     1       5.086  15.350  20.402  0.00  0.00    +0.000 A 
ATOM     19  C   UNL     1       6.407  15.069  20.051  0.00  0.00    +0.000 A 
ATOM     20  C   UNL     1       6.737  14.821  18.721  0.00  0.00    +0.000 A 
ATOM     21  C   UNL     1       5.746  14.844  17.741  0.00  0.00    +0.000 A 
ATOM     22  C   UNL     1       4.424  15.120  18.099  0.00  0.00    +0.000 A 
BRANCH  20  23
ATOM     23  C   UNL     1       8.089  14.554  18.359  0.00  0.00    +0.000 C 
ATOM     24  N   UNL     1       9.190  14.320  18.068  0.00  0.00    +0.000 NA
ENDBRANCH  20  23
ENDBRANCH  14  17
ENDBRANCH   8   9
BRANCH   6  25
ATOM     25  C   UNL     1      -4.238  11.695  17.959  0.00  0.00    +0.000 A 
ATOM     26  N   UNL     1      -4.853  12.022  16.838  0.00  0.00    +0.000 NA
ATOM     27  N   UNL     1      -6.147  12.366  17.123  0.00  0.00    +0.000 NA
ATOM     28  C   UNL     1      -6.314  12.231  18.417  0.00  0.00    +0.000 A 
ATOM     29  N   UNL     1      -5.154  11.766  18.975  0.00  0.00    +0.000 N 
ATOM     30  H   UNL     1      -4.992  11.541  19.945  0.00  0.00    +0.000 HD
BRANCH  28  31
ATOM     31  C   UNL     1      -7.554  12.484  19.185  0.00  0.00    +0.000 C 
BRANCH  31  32
ATOM     32  C   UNL     1      -7.348  13.568  20.230  0.00  0.00    +0.000 C 
BRANCH  32  33
ATOM     33  C   UNL     1      -6.956  14.882  19.574  0.00  0.00    +0.000 C 
ATOM     34  N   UNL     1      -6.631  15.973  19.030  0.00  0.00    +0.000 NA
ENDBRANCH  32  33
ENDBRANCH  31  32
ENDBRANCH  28  31
ENDBRANCH   6  25
TORSDOF 7
ENDMDL
MODEL 8
REMARK VINA RESULT:      -6.4      3.953      5.723
REMARK  Name = 
REMARK  9 active torsions:
REMARK  status: ('A' for Active; 'I' for Inactive)
REMARK    1  A    between atoms: C_1  and  C_2
REMARK    2  A    between atoms: C_4  and  C_5
REMARK    3  A    between atoms: C_6  and  C_7
REMARK    4  A    between atoms: C_10  and  C_11
REMARK    5  A    between atoms: C_11  and  C_12
REMARK    6  A    between atoms: C_12  and  C_13
REMARK    7  A    between atoms: C_17  and  C_18
REMARK    8  A    between atoms: C_23  and  C_24
REMARK    9  A    between atoms: C_27  and  C_28
REMARK                            x       y       z     vdW  Elec       q    Type
REMARK                         _______ _______ _______ _____ _____    ______ ____
ROOT
ATOM      1  C   UNL     1      -1.142  14.391  19.997  0.00  0.00    +0.000 C 
ATOM      2  C   UNL     1      -0.378  13.137  19.641  0.00  0.00    +0.000 A 
ATOM      3  C   UNL     1      -1.072  12.166  18.890  0.00  0.00    +0.000 A 
ATOM      4  C   UNL     1      -0.467  10.967  18.497  0.00  0.00    +0.000 A 
ATOM      5  C   UNL     1      -1.264   9.977  17.691  0.00  0.00    +0.000 C 
ATOM      6  C   UNL     1       0.852  10.705  18.889  0.00  0.00    +0.000 A 
ATOM      7  C   UNL     1       1.497  11.621  19.730  0.00  0.00    +0.000 A 
ATOM      8  C   UNL     1       0.942  12.875  20.041  0.00  0.00    +0.000 A 
ENDROOT
BRANCH   8   9
ATOM      9  C   UNL     1       1.751  13.857  20.843  0.00  0.00    +0.000 C 
ATOM     10  O   UNL     1       1.417  14.047  22.009  0.00  0.00    +0.000 OA
ATOM     11  N   UNL     1       2.859  14.523  20.275  0.00  0.00    +0.000 N 
ATOM     12  C   UNL     1       3.736  15.275  21.174  0.00  0.00    +0.000 C 
ATOM     13  C   UNL     1       4.146  16.622  20.575  0.00  0.00    +0.000 C 
ATOM     14  C   UNL     1       4.750  16.497  19.161  0.00  0.00    +0.000 C 
ATOM     15  C   UNL     1       3.738  15.742  18.287  0.00  0.00    +0.000 C 
ATOM     16  C   UNL     1       3.345  14.406  18.895  0.00  0.00    +0.000 C 
BRANCH  14  17
ATOM     17  C   UNL     1       6.162  15.919  19.071  0.00  0.00    +0.000 A 
ATOM     18  C   UNL     1       6.579  15.079  18.026  0.00  0.00    +0.000 A 
ATOM     19  C   UNL     1       7.870  14.550  17.995  0.00  0.00    +0.000 A 
ATOM     20  C   UNL     1       8.765  14.836  19.023  0.00  0.00    +0.000 A 
ATOM     21  C   UNL     1       8.374  15.658  20.079  0.00  0.00    +0.000 A 
ATOM     22  C   UNL     1       7.082  16.189  20.102  0.00  0.00    +0.000 A 
BRANCH  20  23
ATOM     23  C   UNL     1      10.076  14.280  19.002  0.00  0.00    +0.000 C 
ATOM     24  N   UNL     1      11.153  13.841  18.982  0.00  0.00    +0.000 NA
ENDBRANCH  20  23
ENDBRANCH  14  17
ENDBRANCH   8   9
BRANCH   6  25
ATOM     25  C   UNL     1       1.558   9.515  18.421  0.00  0.00    +0.000 A 
ATOM     26  N   UNL     1       2.338   9.413  17.361  0.00  0.00    +0.000 NA
ATOM     27  N   UNL     1       2.752   8.114  17.236  0.00  0.00    +0.000 NA
ATOM     28  C   UNL     1       2.231   7.437  18.231  0.00  0.00    +0.000 A 
ATOM     29  N   UNL     1       1.512   8.288  19.026  0.00  0.00    +0.000 N 
ATOM     30  H   UNL     1       1.023   8.058  19.879  0.00  0.00    +0.000 HD
BRANCH  28  31
ATOM     31  C   UNL     1       2.405   5.995  18.513  0.00  0.00    +0.000 C 
BRANCH  31  32
ATOM     32  C   UNL     1       3.161   5.772  19.813  0.00  0.00    +0.000 C 
BRANCH  32  33
ATOM     33  C   UNL     1       2.477   4.713  20.661  0.00  0.00    +0.000 C 
ATOM     34  N   UNL     1       1.910   3.832  21.364  0.00  0.00    +0.000 NA
ENDBRANCH  32  33
ENDBRANCH  31  32
ENDBRANCH  28  31
ENDBRANCH   6  25
TORSDOF 7
ENDMDL
MODEL 9
REMARK VINA RESULT:      -6.4      3.865      9.878
REMARK  Name = 
REMARK  9 active torsions:
REMARK  status: ('A' for Active; 'I' for Inactive)
REMARK    1  A    between atoms: C_1  and  C_2
REMARK    2  A    between atoms: C_4  and  C_5
REMARK    3  A    between atoms: C_6  and  C_7
REMARK    4  A    between atoms: C_10  and  C_11
REMARK    5  A    between atoms: C_11  and  C_12
REMARK    6  A    between atoms: C_12  and  C_13
REMARK    7  A    between atoms: C_17  and  C_18
REMARK    8  A    between atoms: C_23  and  C_24
REMARK    9  A    between atoms: C_27  and  C_28
REMARK                            x       y       z     vdW  Elec       q    Type
REMARK                         _______ _______ _______ _____ _____    ______ ____
ROOT
ATOM      1  C   UNL     1       0.284  15.409  22.235  0.00  0.00    +0.000 C 
ATOM      2  C   UNL     1       1.565  15.710  21.494  0.00  0.00    +0.000 A 
ATOM      3  C   UNL     1       2.511  16.511  22.167  0.00  0.00    +0.000 A 
ATOM      4  C   UNL     1       3.736  16.853  21.584  0.00  0.00    +0.000 A 
ATOM      5  C   UNL     1       4.702  17.706  22.361  0.00  0.00    +0.000 C 
ATOM      6  C   UNL     1       4.020  16.419  20.283  0.00  0.00    +0.000 A 
ATOM      7  C   UNL     1       3.031  15.722  19.577  0.00  0.00    +0.000 A 
ATOM      8  C   UNL     1       1.843  15.280  20.187  0.00  0.00    +0.000 A 
ENDROOT
BRANCH   8   9
ATOM      9  C   UNL     1       0.889  14.424  19.401  0.00  0.00    +0.000 C 
ATOM     10  O   UNL     1       0.172  14.985  18.577  0.00  0.00    +0.000 OA
ATOM     11  N   UNL     1       0.833  13.026  19.597  0.00  0.00    +0.000 N 
ATOM     12  C   UNL     1       0.062  12.235  18.638  0.00  0.00    +0.000 C 
ATOM     13  C   UNL     1      -0.771  11.154  19.331  0.00  0.00    +0.000 C 
ATOM     14  C   UNL     1       0.061  10.259  20.272  0.00  0.00    +0.000 C 
ATOM     15  C   UNL     1       0.788  11.177  21.266  0.00  0.00    +0.000 C 
ATOM     16  C   UNL     1       1.612  12.240  20.560  0.00  0.00    +0.000 C 
BRANCH  14  17
ATOM     17  C   UNL     1       0.992   9.247  19.605  0.00  0.00    +0.000 A 
ATOM     18  C   UNL     1       1.378   9.336  18.259  0.00  0.00    +0.000 A 
ATOM     19  C   UNL     1       2.208   8.375  17.680  0.00  0.00    +0.000 A 
ATOM     20  C   UNL     1       2.652   7.292  18.434  0.00  0.00    +0.000 A 
ATOM     21  C   UNL     1       2.274   7.172  19.771  0.00  0.00    +0.000 A 
ATOM     22  C   UNL     1       1.447   8.140  20.347  0.00  0.00    +0.000 A 
BRANCH  20  23
ATOM     23  C   UNL     1       3.483   6.300  17.839  0.00  0.00    +0.000 C 
ATOM     24  N   UNL     1       4.148   5.482  17.348  0.00  0.00    +0.000 NA
ENDBRANCH  20  23
ENDBRANCH  14  17
ENDBRANCH   8   9
BRANCH   6  25
ATOM     25  C   UNL     1       5.322  16.666  19.671  0.00  0.00    +0.000 A 
ATOM     26  N   UNL     1       5.822  17.830  19.298  0.00  0.00    +0.000 NA
ATOM     27  N   UNL     1       7.040  17.624  18.709  0.00  0.00    +0.000 NA
ATOM     28  C   UNL     1       7.280  16.334  18.740  0.00  0.00    +0.000 A 
ATOM     29  N   UNL     1       6.248  15.701  19.378  0.00  0.00    +0.000 N 
ATOM     30  H   UNL     1       6.168  14.714  19.577  0.00  0.00    +0.000 HD
BRANCH  28  31
ATOM     31  C   UNL     1       8.480  15.640  18.225  0.00  0.00    +0.000 C 
BRANCH  31  32
ATOM     32  C   UNL     1       9.228  14.925  19.338  0.00  0.00    +0.000 C 
BRANCH  32  33
ATOM     33  C   UNL     1       9.309  13.432  19.063  0.00  0.00    +0.000 C 
ATOM     34  N   UNL     1       9.375  12.193  18.835  0.00  0.00    +0.000 NA
ENDBRANCH  32  33
ENDBRANCH  31  32
ENDBRANCH  28  31
ENDBRANCH   6  25
TORSDOF 7
ENDMDL
