MODEL 1
REMARK VINA RESULT:      -7.9      0.000      0.000
REMARK  Name = 
REMARK  7 active torsions:
REMARK  status: ('A' for Active; 'I' for Inactive)
REMARK    1  A    between atoms: C_1  and  N_2
REMARK    2  A    between atoms: N_2  and  C_22
REMARK    3  A    between atoms: C_3  and  C_5
REMARK    4  A    between atoms: C_5  and  C_6
REMARK    5  A    between atoms: N_12  and  C_13
REMARK    6  A    between atoms: C_13  and  C_14
REMARK    7  A    between atoms: C_15  and  C_16
REMARK                            x       y       z     vdW  Elec       q    Type
REMARK                         _______ _______ _______ _____ _____    ______ ____
ROOT
ATOM      1  C   UNL     1       2.177   5.366  19.091  0.00  0.00    +0.000 C 
ATOM      2  C   UNL     1       2.223   4.283  20.213  0.00  0.00    +0.000 C 
ATOM      3  O   UNL     1       2.170   4.544  21.415  0.00  0.00    +0.000 OA
ATOM      4  N   UNL     1       2.241   2.962  19.853  0.00  0.00    +0.000 N 
ATOM      5  C   UNL     1       2.661   2.525  18.546  0.00  0.00    +0.000 C 
ATOM      6  C   UNL     1       2.286   3.543  17.468  0.00  0.00    +0.000 C 
ATOM      7  N   UNL     1       2.788   4.900  17.775  0.00  0.00    +0.000 NA
ATOM      8  H   UNL     1       2.298   2.327  20.641  0.00  0.00    +0.000 HD
ENDROOT
BRANCH   1   9
ATOM      9  C   UNL     1       2.820   6.653  19.638  0.00  0.00    +0.000 C 
BRANCH   9  12
ATOM     10  C   UNL     1       2.383   8.838  17.717  0.00  0.00    +0.000 C 
ATOM     11  N   UNL     1       1.646   8.773  18.981  0.00  0.00    +0.000 N 
ATOM     12  C   UNL     1       1.855   7.800  19.977  0.00  0.00    +0.000 C 
ATOM     13  O   UNL     1       1.221   7.791  21.029  0.00  0.00    +0.000 OA
BRANCH  11  14
ATOM     14  C   UNL     1       0.666   9.868  19.230  0.00  0.00    +0.000 C 
ATOM     15  C   UNL     1      -0.527   9.833  18.253  0.00  0.00    +0.000 C 
ATOM     16  C   UNL     1      -1.437  11.036  18.419  0.00  0.00    +0.000 C 
ATOM     17  O   UNL     1      -0.690  12.244  18.291  0.00  0.00    +0.000 OA
ATOM     18  C   UNL     1       0.304  12.363  19.309  0.00  0.00    +0.000 C 
ATOM     19  C   UNL     1       1.339  11.249  19.191  0.00  0.00    +0.000 C 
ENDBRANCH  11  14
ENDBRANCH   9  12
ENDBRANCH   1   9
BRANCH   7  20
ATOM     20  C   UNL     1       4.259   4.974  17.707  0.00  0.00    +0.000 C 
BRANCH  20  21
ATOM     21  C   UNL     1       4.817   5.049  16.301  0.00  0.00    +0.000 C 
ATOM     22  C   UNL     1       5.493   4.050  15.702  0.00  0.00    +0.000 C 
BRANCH  22  23
ATOM     23  C   UNL     1       6.180   4.117  14.400  0.00  0.00    +0.000 A 
ATOM     24  C   UNL     1       5.717   3.426  13.270  0.00  0.00    +0.000 A 
ATOM     25  C   UNL     1       6.305   3.625  12.017  0.00  0.00    +0.000 A 
ATOM     26  C   UNL     1       7.362   4.523  11.870  0.00  0.00    +0.000 A 
ATOM     27  C   UNL     1       7.838   5.212  12.982  0.00  0.00    +0.000 A 
ATOM     28  C   UNL     1       7.251   5.011  14.237  0.00  0.00    +0.000 A 
ENDBRANCH  22  23
ENDBRANCH  20  21
ENDBRANCH   7  20
TORSDOF 6
ENDMDL
MODEL 2
REMARK VINA RESULT:      -7.8      0.922      1.458
REMARK  Name = 
REMARK  7 active torsions:
REMARK  status: ('A' for Active; 'I' for Inactive)
REMARK    1  A    between atoms: C_1  and  N_2
REMARK    2  A    between atoms: N_2  and  C_22
REMARK    3  A    between atoms: C_3  and  C_5
REMARK    4  A    between atoms: C_5  and  C_6
REMARK    5  A    between atoms: N_12  and  C_13
REMARK    6  A    between atoms: C_13  and  C_14
REMARK    7  A    between atoms: C_15  and  C_16
REMARK                            x       y       z     vdW  Elec       q    Type
REMARK                         _______ _______ _______ _____ _____    ______ ____
ROOT
ATOM      1  C   UNL     1       2.140   5.312  19.065  0.00  0.00    +0.000 C 
ATOM      2  C   UNL     1       2.184   4.290  20.243  0.00  0.00    +0.000 C 
ATOM      3  O   UNL     1       2.090   4.612  21.428  0.00  0.00    +0.000 OA
ATOM      4  N   UNL     1       2.249   2.954  19.954  0.00  0.00    +0.000 N 
ATOM      5  C   UNL     1       2.718   2.462  18.683  0.00  0.00    +0.000 C 
ATOM      6  C   UNL     1       2.346   3.411  17.543  0.00  0.00    +0.000 C 
ATOM      7  N   UNL     1       2.801   4.797  17.792  0.00  0.00    +0.000 NA
ATOM      8  H   UNL     1       2.301   2.362  20.775  0.00  0.00    +0.000 HD
ENDROOT
BRANCH   1   9
ATOM      9  C   UNL     1       2.731   6.644  19.562  0.00  0.00    +0.000 C 
BRANCH   9  12
ATOM     10  C   UNL     1       1.026   8.451  21.138  0.00  0.00    +0.000 C 
ATOM     11  N   UNL     1       1.408   8.768  19.760  0.00  0.00    +0.000 N 
ATOM     12  C   UNL     1       2.158   7.919  18.924  0.00  0.00    +0.000 C 
ATOM     13  O   UNL     1       2.444   8.221  17.769  0.00  0.00    +0.000 OA
BRANCH  11  14
ATOM     14  C   UNL     1       0.889  10.052  19.211  0.00  0.00    +0.000 C 
ATOM     15  C   UNL     1       1.024  11.223  20.206  0.00  0.00    +0.000 C 
ATOM     16  C   UNL     1       0.358  12.488  19.696  0.00  0.00    +0.000 C 
ATOM     17  O   UNL     1      -1.006  12.232  19.369  0.00  0.00    +0.000 OA
ATOM     18  C   UNL     1      -1.130  11.274  18.318  0.00  0.00    +0.000 C 
ATOM     19  C   UNL     1      -0.570   9.922  18.747  0.00  0.00    +0.000 C 
ENDBRANCH  11  14
ENDBRANCH   9  12
ENDBRANCH   1   9
BRANCH   7  20
ATOM     20  C   UNL     1       4.271   4.910  17.761  0.00  0.00    +0.000 C 
BRANCH  20  21
ATOM     21  C   UNL     1       4.915   4.345  16.511  0.00  0.00    +0.000 C 
ATOM     22  C   UNL     1       5.671   5.064  15.660  0.00  0.00    +0.000 C 
BRANCH  22  23
ATOM     23  C   UNL     1       6.200   4.608  14.361  0.00  0.00    +0.000 A 
ATOM     24  C   UNL     1       5.534   3.659  13.571  0.00  0.00    +0.000 A 
ATOM     25  C   UNL     1       5.984   3.356  12.282  0.00  0.00    +0.000 A 
ATOM     26  C   UNL     1       7.103   4.001  11.758  0.00  0.00    +0.000 A 
ATOM     27  C   UNL     1       7.781   4.941  12.532  0.00  0.00    +0.000 A 
ATOM     28  C   UNL     1       7.331   5.242  13.823  0.00  0.00    +0.000 A 
ENDBRANCH  22  23
ENDBRANCH  20  21
ENDBRANCH   7  20
TORSDOF 6
ENDMDL
MODEL 3
REMARK VINA RESULT:      -7.7      0.474      1.022
REMARK  Name = 
REMARK  7 active torsions:
REMARK  status: ('A' for Active; 'I' for Inactive)
REMARK    1  A    between atoms: C_1  and  N_2
REMARK    2  A    between atoms: N_2  and  C_22
REMARK    3  A    between atoms: C_3  and  C_5
REMARK    4  A    between atoms: C_5  and  C_6
REMARK    5  A    between atoms: N_12  and  C_13
REMARK    6  A    between atoms: C_13  and  C_14
REMARK    7  A    between atoms: C_15  and  C_16
REMARK                            x       y       z     vdW  Elec       q    Type
REMARK                         _______ _______ _______ _____ _____    ______ ____
ROOT
ATOM      1  C   UNL     1       2.209   5.092  19.041  0.00  0.00    +0.000 C 
ATOM      2  C   UNL     1       2.109   4.107  20.246  0.00  0.00    +0.000 C 
ATOM      3  O   UNL     1       1.999   4.471  21.417  0.00  0.00    +0.000 OA
ATOM      4  N   UNL     1       2.059   2.763  19.995  0.00  0.00    +0.000 N 
ATOM      5  C   UNL     1       2.529   2.191  18.759  0.00  0.00    +0.000 C 
ATOM      6  C   UNL     1       2.294   3.136  17.580  0.00  0.00    +0.000 C 
ATOM      7  N   UNL     1       2.868   4.480  17.811  0.00  0.00    +0.000 NA
ATOM      8  H   UNL     1       2.022   2.193  20.832  0.00  0.00    +0.000 HD
ENDROOT
BRANCH   1   9
ATOM      9  C   UNL     1       2.904   6.377  19.527  0.00  0.00    +0.000 C 
BRANCH   9  12
ATOM     10  C   UNL     1       2.527   8.617  17.656  0.00  0.00    +0.000 C 
ATOM     11  N   UNL     1       1.797   8.548  18.923  0.00  0.00    +0.000 N 
ATOM     12  C   UNL     1       1.979   7.548  19.897  0.00  0.00    +0.000 C 
ATOM     13  O   UNL     1       1.352   7.538  20.953  0.00  0.00    +0.000 OA
BRANCH  11  14
ATOM     14  C   UNL     1       0.855   9.669  19.202  0.00  0.00    +0.000 C 
ATOM     15  C   UNL     1      -0.398   9.631  18.304  0.00  0.00    +0.000 C 
ATOM     16  C   UNL     1      -1.274  10.857  18.492  0.00  0.00    +0.000 C 
ATOM     17  O   UNL     1      -0.514  12.045  18.283  0.00  0.00    +0.000 OA
ATOM     18  C   UNL     1       0.544  12.172  19.233  0.00  0.00    +0.000 C 
ATOM     19  C   UNL     1       1.548  11.035  19.081  0.00  0.00    +0.000 C 
ENDBRANCH  11  14
ENDBRANCH   9  12
ENDBRANCH   1   9
BRANCH   7  20
ATOM     20  C   UNL     1       4.342   4.454  17.839  0.00  0.00    +0.000 C 
BRANCH  20  21
ATOM     21  C   UNL     1       4.985   4.075  16.521  0.00  0.00    +0.000 C 
ATOM     22  C   UNL     1       5.471   4.964  15.633  0.00  0.00    +0.000 C 
BRANCH  22  23
ATOM     23  C   UNL     1       5.972   4.664  14.280  0.00  0.00    +0.000 A 
ATOM     24  C   UNL     1       7.213   5.130  13.819  0.00  0.00    +0.000 A 
ATOM     25  C   UNL     1       7.725   4.709  12.588  0.00  0.00    +0.000 A 
ATOM     26  C   UNL     1       7.009   3.810  11.799  0.00  0.00    +0.000 A 
ATOM     27  C   UNL     1       5.772   3.343  12.238  0.00  0.00    +0.000 A 
ATOM     28  C   UNL     1       5.260   3.766  13.469  0.00  0.00    +0.000 A 
ENDBRANCH  22  23
ENDBRANCH  20  21
ENDBRANCH   7  20
TORSDOF 6
ENDMDL
MODEL 4
REMARK VINA RESULT:      -7.5      1.047      1.732
REMARK  Name = 
REMARK  7 active torsions:
REMARK  status: ('A' for Active; 'I' for Inactive)
REMARK    1  A    between atoms: C_1  and  N_2
REMARK    2  A    between atoms: N_2  and  C_22
REMARK    3  A    between atoms: C_3  and  C_5
REMARK    4  A    between atoms: C_5  and  C_6
REMARK    5  A    between atoms: N_12  and  C_13
REMARK    6  A    between atoms: C_13  and  C_14
REMARK    7  A    between atoms: C_15  and  C_16
REMARK                            x       y       z     vdW  Elec       q    Type
REMARK                         _______ _______ _______ _____ _____    ______ ____
ROOT
ATOM      1  C   UNL     1       2.243   5.123  19.076  0.00  0.00    +0.000 C 
ATOM      2  C   UNL     1       2.291   4.239  20.361  0.00  0.00    +0.000 C 
ATOM      3  O   UNL     1       2.226   4.693  21.504  0.00  0.00    +0.000 OA
ATOM      4  N   UNL     1       2.324   2.878  20.223  0.00  0.00    +0.000 N 
ATOM      5  C   UNL     1       2.758   2.236  19.008  0.00  0.00    +0.000 C 
ATOM      6  C   UNL     1       2.382   3.059  17.775  0.00  0.00    +0.000 C 
ATOM      7  N   UNL     1       2.869   4.454  17.858  0.00  0.00    +0.000 NA
ATOM      8  H   UNL     1       2.380   2.381  21.105  0.00  0.00    +0.000 HD
ENDROOT
BRANCH   1   9
ATOM      9  C   UNL     1       2.870   6.489  19.409  0.00  0.00    +0.000 C 
BRANCH   9  12
ATOM     10  C   UNL     1       1.170   8.173  21.122  0.00  0.00    +0.000 C 
ATOM     11  N   UNL     1       1.420   8.515  19.720  0.00  0.00    +0.000 N 
ATOM     12  C   UNL     1       2.160   7.720  18.824  0.00  0.00    +0.000 C 
ATOM     13  O   UNL     1       2.334   8.040  17.651  0.00  0.00    +0.000 OA
BRANCH  11  14
ATOM     14  C   UNL     1       0.771   9.759  19.219  0.00  0.00    +0.000 C 
ATOM     15  C   UNL     1       1.746  10.952  19.151  0.00  0.00    +0.000 C 
ATOM     16  C   UNL     1       1.041  12.247  18.784  0.00  0.00    +0.000 C 
ATOM     17  O   UNL     1      -0.033  12.498  19.687  0.00  0.00    +0.000 OA
ATOM     18  C   UNL     1      -1.030  11.478  19.623  0.00  0.00    +0.000 C 
ATOM     19  C   UNL     1      -0.460  10.133  20.059  0.00  0.00    +0.000 C 
ENDBRANCH  11  14
ENDBRANCH   9  12
ENDBRANCH   1   9
BRANCH   7  20
ATOM     20  C   UNL     1       4.340   4.531  17.789  0.00  0.00    +0.000 C 
BRANCH  20  21
ATOM     21  C   UNL     1       4.924   4.123  16.452  0.00  0.00    +0.000 C 
ATOM     22  C   UNL     1       5.591   4.958  15.632  0.00  0.00    +0.000 C 
BRANCH  22  23
ATOM     23  C   UNL     1       6.053   4.657  14.265  0.00  0.00    +0.000 A 
ATOM     24  C   UNL     1       7.250   5.174  13.746  0.00  0.00    +0.000 A 
ATOM     25  C   UNL     1       7.733   4.755  12.503  0.00  0.00    +0.000 A 
ATOM     26  C   UNL     1       7.031   3.806  11.759  0.00  0.00    +0.000 A 
ATOM     27  C   UNL     1       5.838   3.288  12.256  0.00  0.00    +0.000 A 
ATOM     28  C   UNL     1       5.354   3.709  13.500  0.00  0.00    +0.000 A 
ENDBRANCH  22  23
ENDBRANCH  20  21
ENDBRANCH   7  20
TORSDOF 6
ENDMDL
MODEL 5
REMARK VINA RESULT:      -7.2      4.177      5.408
REMARK  Name = 
REMARK  7 active torsions:
REMARK  status: ('A' for Active; 'I' for Inactive)
REMARK    1  A    between atoms: C_1  and  N_2
REMARK    2  A    between atoms: N_2  and  C_22
REMARK    3  A    between atoms: C_3  and  C_5
REMARK    4  A    between atoms: C_5  and  C_6
REMARK    5  A    between atoms: N_12  and  C_13
REMARK    6  A    between atoms: C_13  and  C_14
REMARK    7  A    between atoms: C_15  and  C_16
REMARK                            x       y       z     vdW  Elec       q    Type
REMARK                         _______ _______ _______ _____ _____    ______ ____
ROOT
ATOM      1  C   UNL     1       4.566   5.681  16.831  0.00  0.00    +0.000 C 
ATOM      2  C   UNL     1       4.700   4.136  16.996  0.00  0.00    +0.000 C 
ATOM      3  O   UNL     1       3.951   3.457  17.698  0.00  0.00    +0.000 OA
ATOM      4  N   UNL     1       5.648   3.476  16.262  0.00  0.00    +0.000 N 
ATOM      5  C   UNL     1       6.794   4.145  15.701  0.00  0.00    +0.000 C 
ATOM      6  C   UNL     1       6.458   5.579  15.289  0.00  0.00    +0.000 C 
ATOM      7  N   UNL     1       5.859   6.358  16.395  0.00  0.00    +0.000 NA
ATOM      8  H   UNL     1       5.687   2.480  16.448  0.00  0.00    +0.000 HD
ENDROOT
BRANCH   1   9
ATOM      9  C   UNL     1       3.989   6.255  18.138  0.00  0.00    +0.000 C 
BRANCH   9  12
ATOM     10  C   UNL     1       2.061   6.982  20.239  0.00  0.00    +0.000 C 
ATOM     11  N   UNL     1       2.288   7.845  19.078  0.00  0.00    +0.000 N 
ATOM     12  C   UNL     1       3.138   7.528  18.001  0.00  0.00    +0.000 C 
ATOM     13  O   UNL     1       3.289   8.278  17.041  0.00  0.00    +0.000 OA
BRANCH  11  14
ATOM     14  C   UNL     1       1.495   9.105  19.029  0.00  0.00    +0.000 C 
ATOM     15  C   UNL     1       0.826   9.441  20.377  0.00  0.00    +0.000 C 
ATOM     16  C   UNL     1      -0.099  10.641  20.275  0.00  0.00    +0.000 C 
ATOM     17  O   UNL     1      -1.065  10.435  19.247  0.00  0.00    +0.000 OA
ATOM     18  C   UNL     1      -0.454  10.301  17.963  0.00  0.00    +0.000 C 
ATOM     19  C   UNL     1       0.439   9.067  17.913  0.00  0.00    +0.000 C 
ENDBRANCH  11  14
ENDBRANCH   9  12
ENDBRANCH   1   9
BRANCH   7  20
ATOM     20  C   UNL     1       6.827   6.615  17.477  0.00  0.00    +0.000 C 
BRANCH  20  21
ATOM     21  C   UNL     1       7.491   7.975  17.412  0.00  0.00    +0.000 C 
ATOM     22  C   UNL     1       8.223   8.507  18.409  0.00  0.00    +0.000 C 
BRANCH  22  23
ATOM     23  C   UNL     1       8.769   9.876  18.459  0.00  0.00    +0.000 A 
ATOM     24  C   UNL     1       8.302  10.901  17.623  0.00  0.00    +0.000 A 
ATOM     25  C   UNL     1       8.736  12.219  17.794  0.00  0.00    +0.000 A 
ATOM     26  C   UNL     1       9.639  12.537  18.808  0.00  0.00    +0.000 A 
ATOM     27  C   UNL     1      10.117  11.530  19.643  0.00  0.00    +0.000 A 
ATOM     28  C   UNL     1       9.684  10.210  19.470  0.00  0.00    +0.000 A 
ENDBRANCH  22  23
ENDBRANCH  20  21
ENDBRANCH   7  20
TORSDOF 6
ENDMDL
MODEL 6
REMARK VINA RESULT:      -7.1      0.836      1.097
REMARK  Name = 
REMARK  7 active torsions:
REMARK  status: ('A' for Active; 'I' for Inactive)
REMARK    1  A    between atoms: C_1  and  N_2
REMARK    2  A    between atoms: N_2  and  C_22
REMARK    3  A    between atoms: C_3  and  C_5
REMARK    4  A    between atoms: C_5  and  C_6
REMARK    5  A    between atoms: N_12  and  C_13
REMARK    6  A    between atoms: C_13  and  C_14
REMARK    7  A    between atoms: C_15  and  C_16
REMARK                            x       y       z     vdW  Elec       q    Type
REMARK                         _______ _______ _______ _____ _____    ______ ____
ROOT
ATOM      1  C   UNL     1       2.166   4.885  19.204  0.00  0.00    +0.000 C 
ATOM      2  C   UNL     1       2.195   3.878  20.397  0.00  0.00    +0.000 C 
ATOM      3  O   UNL     1       2.234   4.222  21.578  0.00  0.00    +0.000 OA
ATOM      4  N   UNL     1       2.091   2.540  20.130  0.00  0.00    +0.000 N 
ATOM      5  C   UNL     1       2.398   1.984  18.837  0.00  0.00    +0.000 C 
ATOM      6  C   UNL     1       2.039   2.955  17.711  0.00  0.00    +0.000 C 
ATOM      7  N   UNL     1       2.661   4.285  17.894  0.00  0.00    +0.000 NA
ATOM      8  H   UNL     1       2.145   1.955  20.957  0.00  0.00    +0.000 HD
ENDROOT
BRANCH   1   9
ATOM      9  C   UNL     1       2.937   6.149  19.624  0.00  0.00    +0.000 C 
BRANCH   9  12
ATOM     10  C   UNL     1       2.824   8.364  17.691  0.00  0.00    +0.000 C 
ATOM     11  N   UNL     1       2.028   8.381  18.919  0.00  0.00    +0.000 N 
ATOM     12  C   UNL     1       2.085   7.394  19.922  0.00  0.00    +0.000 C 
ATOM     13  O   UNL     1       1.407   7.455  20.943  0.00  0.00    +0.000 OA
BRANCH  11  14
ATOM     14  C   UNL     1       1.160   9.574  19.126  0.00  0.00    +0.000 C 
ATOM     15  C   UNL     1       0.470   9.577  20.505  0.00  0.00    +0.000 C 
ATOM     16  C   UNL     1      -0.525  10.715  20.646  0.00  0.00    +0.000 C 
ATOM     17  O   UNL     1      -1.475  10.675  19.584  0.00  0.00    +0.000 OA
ATOM     18  C   UNL     1      -0.856  10.853  18.310  0.00  0.00    +0.000 C 
ATOM     19  C   UNL     1       0.110   9.711  18.012  0.00  0.00    +0.000 C 
ENDBRANCH  11  14
ENDBRANCH   9  12
ENDBRANCH   1   9
BRANCH   7  20
ATOM     20  C   UNL     1       4.126   4.236  17.742  0.00  0.00    +0.000 C 
BRANCH  20  21
ATOM     21  C   UNL     1       4.604   4.139  16.308  0.00  0.00    +0.000 C 
ATOM     22  C   UNL     1       5.899   4.097  15.944  0.00  0.00    +0.000 C 
BRANCH  22  23
ATOM     23  C   UNL     1       6.423   4.149  14.566  0.00  0.00    +0.000 A 
ATOM     24  C   UNL     1       5.874   3.384  13.525  0.00  0.00    +0.000 A 
ATOM     25  C   UNL     1       6.297   3.563  12.205  0.00  0.00    +0.000 A 
ATOM     26  C   UNL     1       7.270   4.515  11.900  0.00  0.00    +0.000 A 
ATOM     27  C   UNL     1       7.830   5.278  12.922  0.00  0.00    +0.000 A 
ATOM     28  C   UNL     1       7.408   5.096  14.245  0.00  0.00    +0.000 A 
ENDBRANCH  22  23
ENDBRANCH  20  21
ENDBRANCH   7  20
TORSDOF 6
ENDMDL
MODEL 7
REMARK VINA RESULT:      -7.1      0.965      1.543
REMARK  Name = 
REMARK  7 active torsions:
REMARK  status: ('A' for Active; 'I' for Inactive)
REMARK    1  A    between atoms: C_1  and  N_2
REMARK    2  A    between atoms: N_2  and  C_22
REMARK    3  A    between atoms: C_3  and  C_5
REMARK    4  A    between atoms: C_5  and  C_6
REMARK    5  A    between atoms: N_12  and  C_13
REMARK    6  A    between atoms: C_13  and  C_14
REMARK    7  A    between atoms: C_15  and  C_16
REMARK                            x       y       z     vdW  Elec       q    Type
REMARK                         _______ _______ _______ _____ _____    ______ ____
ROOT
ATOM      1  C   UNL     1       2.385   4.742  19.045  0.00  0.00    +0.000 C 
ATOM      2  C   UNL     1       2.080   3.668  20.135  0.00  0.00    +0.000 C 
ATOM      3  O   UNL     1       1.832   3.940  21.309  0.00  0.00    +0.000 OA
ATOM      4  N   UNL     1       2.003   2.354  19.760  0.00  0.00    +0.000 N 
ATOM      5  C   UNL     1       2.607   1.860  18.549  0.00  0.00    +0.000 C 
ATOM      6  C   UNL     1       2.575   2.911  17.438  0.00  0.00    +0.000 C 
ATOM      7  N   UNL     1       3.174   4.196  17.860  0.00  0.00    +0.000 NA
ATOM      8  H   UNL     1       1.828   1.720  20.532  0.00  0.00    +0.000 HD
ENDROOT
BRANCH   1   9
ATOM      9  C   UNL     1       3.067   5.941  19.729  0.00  0.00    +0.000 C 
BRANCH   9  12
ATOM     10  C   UNL     1       3.103   8.065  17.693  0.00  0.00    +0.000 C 
ATOM     11  N   UNL     1       2.221   8.139  18.860  0.00  0.00    +0.000 N 
ATOM     12  C   UNL     1       2.203   7.199  19.908  0.00  0.00    +0.000 C 
ATOM     13  O   UNL     1       1.454   7.308  20.875  0.00  0.00    +0.000 OA
BRANCH  11  14
ATOM     14  C   UNL     1       1.347   9.343  18.951  0.00  0.00    +0.000 C 
ATOM     15  C   UNL     1       0.761   9.548  20.362  0.00  0.00    +0.000 C 
ATOM     16  C   UNL     1      -0.244  10.685  20.405  0.00  0.00    +0.000 C 
ATOM     17  O   UNL     1      -1.269  10.477  19.437  0.00  0.00    +0.000 OA
ATOM     18  C   UNL     1      -0.749  10.465  18.107  0.00  0.00    +0.000 C 
ATOM     19  C   UNL     1       0.215   9.300  17.912  0.00  0.00    +0.000 C 
ENDBRANCH  11  14
ENDBRANCH   9  12
ENDBRANCH   1   9
BRANCH   7  20
ATOM     20  C   UNL     1       4.628   4.084  18.076  0.00  0.00    +0.000 C 
BRANCH  20  21
ATOM     21  C   UNL     1       5.445   4.016  16.802  0.00  0.00    +0.000 C 
ATOM     22  C   UNL     1       5.137   4.678  15.670  0.00  0.00    +0.000 C 
BRANCH  22  23
ATOM     23  C   UNL     1       5.808   4.538  14.365  0.00  0.00    +0.000 A 
ATOM     24  C   UNL     1       7.063   5.107  14.102  0.00  0.00    +0.000 A 
ATOM     25  C   UNL     1       7.737   4.835  12.907  0.00  0.00    +0.000 A 
ATOM     26  C   UNL     1       7.171   3.985  11.958  0.00  0.00    +0.000 A 
ATOM     27  C   UNL     1       5.923   3.417  12.200  0.00  0.00    +0.000 A 
ATOM     28  C   UNL     1       5.248   3.692  13.395  0.00  0.00    +0.000 A 
ENDBRANCH  22  23
ENDBRANCH  20  21
ENDBRANCH   7  20
TORSDOF 6
ENDMDL
MODEL 8
REMARK VINA RESULT:      -7.0      7.757      9.463
REMARK  Name = 
REMARK  7 active torsions:
REMARK  status: ('A' for Active; 'I' for Inactive)
REMARK    1  A    between atoms: C_1  and  N_2
REMARK    2  A    between atoms: N_2  and  C_22
REMARK    3  A    between atoms: C_3  and  C_5
REMARK    4  A    between atoms: C_5  and  C_6
REMARK    5  A    between atoms: N_12  and  C_13
REMARK    6  A    between atoms: C_13  and  C_14
REMARK    7  A    between atoms: C_15  and  C_16
REMARK                            x       y       z     vdW  Elec       q    Type
REMARK                         _______ _______ _______ _____ _____    ______ ____
ROOT
ATOM      1  C   UNL     1      10.122  12.802  20.205  0.00  0.00    +0.000 C 
ATOM      2  C   UNL     1      10.396  14.108  19.396  0.00  0.00    +0.000 C 
ATOM      3  O   UNL     1       9.877  15.194  19.658  0.00  0.00    +0.000 OA
ATOM      4  N   UNL     1      11.322  14.077  18.389  0.00  0.00    +0.000 N 
ATOM      5  C   UNL     1      11.725  12.850  17.749  0.00  0.00    +0.000 C 
ATOM      6  C   UNL     1      11.711  11.676  18.730  0.00  0.00    +0.000 C 
ATOM      7  N   UNL     1      10.409  11.530  19.417  0.00  0.00    +0.000 NA
ATOM      8  H   UNL     1      11.419  14.958  17.898  0.00  0.00    +0.000 HD
ENDROOT
BRANCH   1   9
ATOM      9  C   UNL     1       8.685  12.868  20.753  0.00  0.00    +0.000 C 
BRANCH   9  12
ATOM     10  C   UNL     1       7.741  14.280  23.155  0.00  0.00    +0.000 C 
ATOM     11  N   UNL     1       7.904  12.825  23.138  0.00  0.00    +0.000 N 
ATOM     12  C   UNL     1       8.419  12.092  22.052  0.00  0.00    +0.000 C 
ATOM     13  O   UNL     1       8.550  10.872  22.087  0.00  0.00    +0.000 OA
BRANCH  11  14
ATOM     14  C   UNL     1       7.561  12.109  24.399  0.00  0.00    +0.000 C 
ATOM     15  C   UNL     1       6.098  11.621  24.427  0.00  0.00    +0.000 C 
ATOM     16  C   UNL     1       5.719  11.028  25.772  0.00  0.00    +0.000 C 
ATOM     17  O   UNL     1       5.981  11.962  26.817  0.00  0.00    +0.000 OA
ATOM     18  C   UNL     1       7.369  12.281  26.909  0.00  0.00    +0.000 C 
ATOM     19  C   UNL     1       7.853  12.971  25.638  0.00  0.00    +0.000 C 
ENDBRANCH  11  14
ENDBRANCH   9  12
ENDBRANCH   1   9
BRANCH   7  20
ATOM     20  C   UNL     1       9.339  11.113  18.492  0.00  0.00    +0.000 C 
BRANCH  20  21
ATOM     21  C   UNL     1       8.947   9.655  18.606  0.00  0.00    +0.000 C 
ATOM     22  C   UNL     1       8.143   9.018  17.734  0.00  0.00    +0.000 C 
BRANCH  22  23
ATOM     23  C   UNL     1       7.613   7.649  17.872  0.00  0.00    +0.000 A 
ATOM     24  C   UNL     1       8.152   6.723  18.779  0.00  0.00    +0.000 A 
ATOM     25  C   UNL     1       7.537   5.486  18.990  0.00  0.00    +0.000 A 
ATOM     26  C   UNL     1       6.370   5.153  18.303  0.00  0.00    +0.000 A 
ATOM     27  C   UNL     1       5.826   6.057  17.394  0.00  0.00    +0.000 A 
ATOM     28  C   UNL     1       6.443   7.296  17.181  0.00  0.00    +0.000 A 
ENDBRANCH  22  23
ENDBRANCH  20  21
ENDBRANCH   7  20
TORSDOF 6
ENDMDL
MODEL 9
REMARK VINA RESULT:      -7.0      4.177      5.466
REMARK  Name = 
REMARK  7 active torsions:
REMARK  status: ('A' for Active; 'I' for Inactive)
REMARK    1  A    between atoms: C_1  and  N_2
REMARK    2  A    between atoms: N_2  and  C_22
REMARK    3  A    between atoms: C_3  and  C_5
REMARK    4  A    between atoms: C_5  and  C_6
REMARK    5  A    between atoms: N_12  and  C_13
REMARK    6  A    between atoms: C_13  and  C_14
REMARK    7  A    between atoms: C_15  and  C_16
REMARK                            x       y       z     vdW  Elec       q    Type
REMARK                         _______ _______ _______ _____ _____    ______ ____
ROOT
ATOM      1  C   UNL     1       4.684   5.628  16.730  0.00  0.00    +0.000 C 
ATOM      2  C   UNL     1       4.794   4.077  16.854  0.00  0.00    +0.000 C 
ATOM      3  O   UNL     1       4.068   3.397  17.579  0.00  0.00    +0.000 OA
ATOM      4  N   UNL     1       5.691   3.416  16.058  0.00  0.00    +0.000 N 
ATOM      5  C   UNL     1       6.820   4.076  15.454  0.00  0.00    +0.000 C 
ATOM      6  C   UNL     1       6.493   5.526  15.092  0.00  0.00    +0.000 C 
ATOM      7  N   UNL     1       5.967   6.290  16.243  0.00  0.00    +0.000 NA
ATOM      8  H   UNL     1       5.718   2.416  16.220  0.00  0.00    +0.000 HD
ENDROOT
BRANCH   1   9
ATOM      9  C   UNL     1       4.185   6.183  18.077  0.00  0.00    +0.000 C 
BRANCH   9  12
ATOM     10  C   UNL     1       2.260   6.602  20.262  0.00  0.00    +0.000 C 
ATOM     11  N   UNL     1       2.324   7.510  19.115  0.00  0.00    +0.000 N 
ATOM     12  C   UNL     1       3.167   7.332  18.001  0.00  0.00    +0.000 C 
ATOM     13  O   UNL     1       3.178   8.113  17.054  0.00  0.00    +0.000 OA
BRANCH  11  14
ATOM     14  C   UNL     1       1.367   8.652  19.124  0.00  0.00    +0.000 C 
ATOM     15  C   UNL     1       1.917   9.896  18.396  0.00  0.00    +0.000 C 
ATOM     16  C   UNL     1       1.000  11.097  18.541  0.00  0.00    +0.000 C 
ATOM     17  O   UNL     1       0.749  11.364  19.919  0.00  0.00    +0.000 OA
ATOM     18  C   UNL     1       0.075  10.278  20.556  0.00  0.00    +0.000 C 
ATOM     19  C   UNL     1       0.942   9.024  20.553  0.00  0.00    +0.000 C 
ENDBRANCH  11  14
ENDBRANCH   9  12
ENDBRANCH   1   9
BRANCH   7  20
ATOM     20  C   UNL     1       6.993   6.504  17.280  0.00  0.00    +0.000 C 
BRANCH  20  21
ATOM     21  C   UNL     1       7.498   7.928  17.376  0.00  0.00    +0.000 C 
ATOM     22  C   UNL     1       8.290   8.385  18.366  0.00  0.00    +0.000 C 
BRANCH  22  23
ATOM     23  C   UNL     1       8.691   9.785  18.589  0.00  0.00    +0.000 A 
ATOM     24  C   UNL     1       9.560  10.161  19.625  0.00  0.00    +0.000 A 
ATOM     25  C   UNL     1      10.036  11.472  19.721  0.00  0.00    +0.000 A 
ATOM     26  C   UNL     1       9.658  12.429  18.780  0.00  0.00    +0.000 A 
ATOM     27  C   UNL     1       8.792  12.075  17.749  0.00  0.00    +0.000 A 
ATOM     28  C   UNL     1       8.313  10.762  17.654  0.00  0.00    +0.000 A 
ENDBRANCH  22  23
ENDBRANCH  20  21
ENDBRANCH   7  20
TORSDOF 6
ENDMDL
