MODEL 1
REMARK VINA RESULT:      -8.2      0.000      0.000
REMARK  Name = 
REMARK  9 active torsions:
REMARK  status: ('A' for Active; 'I' for Inactive)
REMARK    1  A    between atoms: N_3  and  C_4
REMARK    2  A    between atoms: C_4  and  C_5
REMARK    3  A    between atoms: C_5  and  C_6
REMARK    4  A    between atoms: C_6  and  O_7
REMARK    5  A    between atoms: O_7  and  C_8
REMARK    6  A    between atoms: C_13  and  O_14
REMARK    7  A    between atoms: N_19  and  C_20
REMARK    8  A    between atoms: N_19  and  C_23
REMARK    9  A    between atoms: C_29  and  O_30
REMARK                            x       y       z     vdW  Elec       q    Type
REMARK                         _______ _______ _______ _____ _____    ______ ____
ROOT
ATOM      1  O   UNL     1       4.728   7.099  17.562  0.00  0.00    +0.000 OA
ATOM      2  C   UNL     1       4.708   6.067  18.235  0.00  0.00    +0.000 C 
ATOM      3  N   UNL     1       5.868   5.361  18.439  0.00  0.00    +0.000 N 
ATOM      4  N   UNL     1       3.522   5.526  18.759  0.00  0.00    +0.000 N 
ATOM      5  H   UNL     1       5.986   5.000  19.366  0.00  0.00    +0.000 HD
ENDROOT
BRANCH   4   6
ATOM      6  C   UNL     1       3.487   4.511  19.867  0.00  0.00    +0.000 C 
ATOM      7  C   UNL     1       4.003   3.090  19.513  0.00  0.00    +0.000 C 
ATOM      8  C   UNL     1       3.508   2.508  18.202  0.00  0.00    +0.000 C 
ATOM      9  C   UNL     1       2.056   2.810  17.879  0.00  0.00    +0.000 C 
ATOM     10  C   UNL     1       1.100   2.583  19.046  0.00  0.00    +0.000 C 
ATOM     11  C   UNL     1       0.931   3.716  20.065  0.00  0.00    +0.000 C 
ATOM     12  C   UNL     1       2.167   4.380  20.693  0.00  0.00    +0.000 C 
BRANCH  12  13
ATOM     13  O   UNL     1       2.463   3.674  21.922  0.00  0.00    +0.000 OA
ATOM     14  H   UNL     1       3.273   4.047  22.307  0.00  0.00    +0.000 HD
ENDBRANCH  12  13
ENDBRANCH   4   6
BRANCH   4  15
ATOM     15  C   UNL     1       2.343   6.387  18.551  0.00  0.00    +0.000 C 
ATOM     16  C   UNL     1       2.071   7.523  19.533  0.00  0.00    +0.000 C 
ATOM     17  C   UNL     1       2.318   7.833  18.105  0.00  0.00    +0.000 C 
ENDBRANCH   4  15
BRANCH   3  18
ATOM     18  C   UNL     1       7.106   5.739  17.757  0.00  0.00    +0.000 C 
BRANCH  18  19
ATOM     19  C   UNL     1       7.874   6.873  18.450  0.00  0.00    +0.000 C 
BRANCH  19  20
ATOM     20  C   UNL     1       8.193   8.013  17.490  0.00  0.00    +0.000 C 
BRANCH  20  21
ATOM     21  O   UNL     1       7.632   9.254  17.928  0.00  0.00    +0.000 OA
BRANCH  21  22
ATOM     22  C   UNL     1       8.564  10.134  18.429  0.00  0.00    +0.000 A 
ATOM     23  C   UNL     1       9.339   9.925  19.571  0.00  0.00    +0.000 A 
ATOM     24  C   UNL     1      10.246  10.896  20.006  0.00  0.00    +0.000 A 
ATOM     25  C   UNL     1      10.412  12.085  19.324  0.00  0.00    +0.000 A 
ATOM     26  N   UNL     1      11.292  12.982  19.798  0.00  0.00    +0.000 NA
ATOM     27  C   UNL     1      11.420  14.123  19.109  0.00  0.00    +0.000 A 
ATOM     28  C   UNL     1      10.730  14.449  17.963  0.00  0.00    +0.000 A 
ATOM     29  C   UNL     1       9.820  13.515  17.478  0.00  0.00    +0.000 A 
ATOM     30  C   UNL     1       9.640  12.303  18.159  0.00  0.00    +0.000 A 
ATOM     31  C   UNL     1       8.725  11.324  17.719  0.00  0.00    +0.000 A 
BRANCH  27  32
ATOM     32  O   UNL     1      12.321  14.983  19.643  0.00  0.00    +0.000 OA
ATOM     33  H   UNL     1      12.794  14.371  20.237  0.00  0.00    +0.000 HD
ENDBRANCH  27  32
ENDBRANCH  21  22
ENDBRANCH  20  21
ENDBRANCH  19  20
ENDBRANCH  18  19
ENDBRANCH   3  18
TORSDOF 9
ENDMDL
MODEL 2
REMARK VINA RESULT:      -8.1      5.279      8.717
REMARK  Name = 
REMARK  9 active torsions:
REMARK  status: ('A' for Active; 'I' for Inactive)
REMARK    1  A    between atoms: N_3  and  C_4
REMARK    2  A    between atoms: C_4  and  C_5
REMARK    3  A    between atoms: C_5  and  C_6
REMARK    4  A    between atoms: C_6  and  O_7
REMARK    5  A    between atoms: O_7  and  C_8
REMARK    6  A    between atoms: C_13  and  O_14
REMARK    7  A    between atoms: N_19  and  C_20
REMARK    8  A    between atoms: N_19  and  C_23
REMARK    9  A    between atoms: C_29  and  O_30
REMARK                            x       y       z     vdW  Elec       q    Type
REMARK                         _______ _______ _______ _____ _____    ______ ____
ROOT
ATOM      1  O   UNL     1       3.323   7.177  18.102  0.00  0.00    +0.000 OA
ATOM      2  C   UNL     1       3.205   6.441  19.083  0.00  0.00    +0.000 C 
ATOM      3  N   UNL     1       2.338   6.782  20.092  0.00  0.00    +0.000 N 
ATOM      4  N   UNL     1       3.979   5.283  19.260  0.00  0.00    +0.000 N 
ATOM      5  H   UNL     1       1.810   6.020  20.471  0.00  0.00    +0.000 HD
ENDROOT
BRANCH   4   6
ATOM      6  C   UNL     1       3.624   4.182  20.220  0.00  0.00    +0.000 C 
ATOM      7  C   UNL     1       3.838   2.731  19.712  0.00  0.00    +0.000 C 
ATOM      8  C   UNL     1       3.339   2.435  18.310  0.00  0.00    +0.000 C 
ATOM      9  C   UNL     1       2.023   3.101  17.949  0.00  0.00    +0.000 C 
ATOM     10  C   UNL     1       0.945   2.969  19.021  0.00  0.00    +0.000 C 
ATOM     11  C   UNL     1       0.948   3.985  20.169  0.00  0.00    +0.000 C 
ATOM     12  C   UNL     1       2.243   4.266  20.948  0.00  0.00    +0.000 C 
BRANCH  12  13
ATOM     13  O   UNL     1       2.269   3.374  22.087  0.00  0.00    +0.000 OA
ATOM     14  H   UNL     1       1.909   2.513  21.815  0.00  0.00    +0.000 HD
ENDBRANCH  12  13
ENDBRANCH   4   6
BRANCH   4  15
ATOM     15  C   UNL     1       4.826   4.960  18.097  0.00  0.00    +0.000 C 
ATOM     16  C   UNL     1       6.015   5.859  17.772  0.00  0.00    +0.000 C 
ATOM     17  C   UNL     1       6.245   4.433  18.102  0.00  0.00    +0.000 C 
ENDBRANCH   4  15
BRANCH   3  18
ATOM     18  C   UNL     1       1.651   8.073  20.086  0.00  0.00    +0.000 C 
BRANCH  18  19
ATOM     19  C   UNL     1       0.985   8.428  21.424  0.00  0.00    +0.000 C 
BRANCH  19  20
ATOM     20  C   UNL     1       0.890   9.935  21.629  0.00  0.00    +0.000 C 
BRANCH  20  21
ATOM     21  O   UNL     1       0.966  10.649  20.391  0.00  0.00    +0.000 OA
BRANCH  21  22
ATOM     22  C   UNL     1      -0.263  11.001  19.881  0.00  0.00    +0.000 A 
ATOM     23  C   UNL     1      -1.153  11.900  20.470  0.00  0.00    +0.000 A 
ATOM     24  C   UNL     1      -2.389  12.172  19.876  0.00  0.00    +0.000 A 
ATOM     25  C   UNL     1      -2.770  11.572  18.692  0.00  0.00    +0.000 A 
ATOM     26  N   UNL     1      -3.974  11.868  18.178  0.00  0.00    +0.000 NA
ATOM     27  C   UNL     1      -4.304  11.262  17.030  0.00  0.00    +0.000 A 
ATOM     28  C   UNL     1      -3.516  10.368  16.340  0.00  0.00    +0.000 A 
ATOM     29  C   UNL     1      -2.270  10.066  16.879  0.00  0.00    +0.000 A 
ATOM     30  C   UNL     1      -1.870  10.668  18.081  0.00  0.00    +0.000 A 
ATOM     31  C   UNL     1      -0.623  10.392  18.679  0.00  0.00    +0.000 A 
BRANCH  27  32
ATOM     32  O   UNL     1      -5.532  11.602  16.570  0.00  0.00    +0.000 OA
ATOM     33  H   UNL     1      -5.558  12.534  16.856  0.00  0.00    +0.000 HD
ENDBRANCH  27  32
ENDBRANCH  21  22
ENDBRANCH  20  21
ENDBRANCH  19  20
ENDBRANCH  18  19
ENDBRANCH   3  18
TORSDOF 9
ENDMDL
MODEL 3
REMARK VINA RESULT:      -8.0      6.215      9.533
REMARK  Name = 
REMARK  9 active torsions:
REMARK  status: ('A' for Active; 'I' for Inactive)
REMARK    1  A    between atoms: N_3  and  C_4
REMARK    2  A    between atoms: C_4  and  C_5
REMARK    3  A    between atoms: C_5  and  C_6
REMARK    4  A    between atoms: C_6  and  O_7
REMARK    5  A    between atoms: O_7  and  C_8
REMARK    6  A    between atoms: C_13  and  O_14
REMARK    7  A    between atoms: N_19  and  C_20
REMARK    8  A    between atoms: N_19  and  C_23
REMARK    9  A    between atoms: C_29  and  O_30
REMARK                            x       y       z     vdW  Elec       q    Type
REMARK                         _______ _______ _______ _____ _____    ______ ____
ROOT
ATOM      1  O   UNL     1       1.322   6.506  21.379  0.00  0.00    +0.000 OA
ATOM      2  C   UNL     1       2.069   6.214  20.443  0.00  0.00    +0.000 C 
ATOM      3  N   UNL     1       2.343   7.145  19.471  0.00  0.00    +0.000 N 
ATOM      4  N   UNL     1       2.611   4.929  20.279  0.00  0.00    +0.000 N 
ATOM      5  H   UNL     1       3.296   7.165  19.162  0.00  0.00    +0.000 HD
ENDROOT
BRANCH   4   6
ATOM      6  C   UNL     1       3.790   4.629  19.397  0.00  0.00    +0.000 C 
ATOM      7  C   UNL     1       3.601   4.903  17.881  0.00  0.00    +0.000 C 
ATOM      8  C   UNL     1       2.302   4.410  17.270  0.00  0.00    +0.000 C 
ATOM      9  C   UNL     1       1.826   3.064  17.788  0.00  0.00    +0.000 C 
ATOM     10  C   UNL     1       2.918   1.999  17.844  0.00  0.00    +0.000 C 
ATOM     11  C   UNL     1       3.822   1.963  19.081  0.00  0.00    +0.000 C 
ATOM     12  C   UNL     1       4.503   3.249  19.577  0.00  0.00    +0.000 C 
BRANCH  12  13
ATOM     13  O   UNL     1       5.806   3.320  18.951  0.00  0.00    +0.000 OA
ATOM     14  H   UNL     1       5.881   2.597  18.307  0.00  0.00    +0.000 HD
ENDBRANCH  12  13
ENDBRANCH   4   6
BRANCH   4  15
ATOM     15  C   UNL     1       2.321   4.022  21.405  0.00  0.00    +0.000 C 
ATOM     16  C   UNL     1       1.180   3.017  21.274  0.00  0.00    +0.000 C 
ATOM     17  C   UNL     1       2.564   2.530  21.479  0.00  0.00    +0.000 C 
ENDBRANCH   4  15
BRANCH   3  18
ATOM     18  C   UNL     1       1.656   8.436  19.453  0.00  0.00    +0.000 C 
BRANCH  18  19
ATOM     19  C   UNL     1       1.651   9.117  18.078  0.00  0.00    +0.000 C 
BRANCH  19  20
ATOM     20  C   UNL     1       1.194  10.568  18.165  0.00  0.00    +0.000 C 
BRANCH  20  21
ATOM     21  O   UNL     1       0.157  10.746  19.136  0.00  0.00    +0.000 OA
BRANCH  21  22
ATOM     22  C   UNL     1      -1.103  10.830  18.588  0.00  0.00    +0.000 A 
ATOM     23  C   UNL     1      -1.503  10.235  17.391  0.00  0.00    +0.000 A 
ATOM     24  C   UNL     1      -2.806  10.400  16.913  0.00  0.00    +0.000 A 
ATOM     25  C   UNL     1      -3.740  11.146  17.606  0.00  0.00    +0.000 A 
ATOM     26  N   UNL     1      -4.973  11.274  17.089  0.00  0.00    +0.000 NA
ATOM     27  C   UNL     1      -5.846  12.008  17.791  0.00  0.00    +0.000 A 
ATOM     28  C   UNL     1      -5.586  12.635  18.990  0.00  0.00    +0.000 A 
ATOM     29  C   UNL     1      -4.307  12.496  19.519  0.00  0.00    +0.000 A 
ATOM     30  C   UNL     1      -3.348  11.743  18.827  0.00  0.00    +0.000 A 
ATOM     31  C   UNL     1      -2.033  11.577  19.310  0.00  0.00    +0.000 A 
BRANCH  27  32
ATOM     32  O   UNL     1      -7.068  12.100  17.213  0.00  0.00    +0.000 OA
ATOM     33  H   UNL     1      -6.801  12.389  16.321  0.00  0.00    +0.000 HD
ENDBRANCH  27  32
ENDBRANCH  21  22
ENDBRANCH  20  21
ENDBRANCH  19  20
ENDBRANCH  18  19
ENDBRANCH   3  18
TORSDOF 9
ENDMDL
MODEL 4
REMARK VINA RESULT:      -8.0      1.226      1.642
REMARK  Name = 
REMARK  9 active torsions:
REMARK  status: ('A' for Active; 'I' for Inactive)
REMARK    1  A    between atoms: N_3  and  C_4
REMARK    2  A    between atoms: C_4  and  C_5
REMARK    3  A    between atoms: C_5  and  C_6
REMARK    4  A    between atoms: C_6  and  O_7
REMARK    5  A    between atoms: O_7  and  C_8
REMARK    6  A    between atoms: C_13  and  O_14
REMARK    7  A    between atoms: N_19  and  C_20
REMARK    8  A    between atoms: N_19  and  C_23
REMARK    9  A    between atoms: C_29  and  O_30
REMARK                            x       y       z     vdW  Elec       q    Type
REMARK                         _______ _______ _______ _____ _____    ______ ____
ROOT
ATOM      1  O   UNL     1       4.654   7.010  17.855  0.00  0.00    +0.000 OA
ATOM      2  C   UNL     1       4.687   5.925  18.439  0.00  0.00    +0.000 C 
ATOM      3  N   UNL     1       5.875   5.245  18.550  0.00  0.00    +0.000 N 
ATOM      4  N   UNL     1       3.536   5.304  18.949  0.00  0.00    +0.000 N 
ATOM      5  H   UNL     1       6.032   4.812  19.440  0.00  0.00    +0.000 HD
ENDROOT
BRANCH   4   6
ATOM      6  C   UNL     1       3.567   4.199  19.968  0.00  0.00    +0.000 C 
ATOM      7  C   UNL     1       4.117   2.832  19.483  0.00  0.00    +0.000 C 
ATOM      8  C   UNL     1       3.602   2.343  18.141  0.00  0.00    +0.000 C 
ATOM      9  C   UNL     1       2.132   2.621  17.885  0.00  0.00    +0.000 C 
ATOM     10  C   UNL     1       1.219   2.265  19.055  0.00  0.00    +0.000 C 
ATOM     11  C   UNL     1       1.044   3.303  20.169  0.00  0.00    +0.000 C 
ATOM     12  C   UNL     1       2.277   3.955  20.817  0.00  0.00    +0.000 C 
BRANCH  12  13
ATOM     13  O   UNL     1       2.632   3.159  21.973  0.00  0.00    +0.000 OA
ATOM     14  H   UNL     1       3.139   3.715  22.588  0.00  0.00    +0.000 HD
ENDBRANCH  12  13
ENDBRANCH   4   6
BRANCH   4  15
ATOM     15  C   UNL     1       2.324   6.138  18.847  0.00  0.00    +0.000 C 
ATOM     16  C   UNL     1       2.077   7.218  19.896  0.00  0.00    +0.000 C 
ATOM     17  C   UNL     1       2.236   7.602  18.474  0.00  0.00    +0.000 C 
ENDBRANCH   4  15
BRANCH   3  18
ATOM     18  C   UNL     1       7.078   5.720  17.868  0.00  0.00    +0.000 C 
BRANCH  18  19
ATOM     19  C   UNL     1       8.046   6.487  18.780  0.00  0.00    +0.000 C 
BRANCH  19  20
ATOM     20  C   UNL     1       8.182   7.946  18.363  0.00  0.00    +0.000 C 
BRANCH  20  21
ATOM     21  O   UNL     1       9.201   8.622  19.107  0.00  0.00    +0.000 OA
BRANCH  21  22
ATOM     22  C   UNL     1       9.143   9.993  19.003  0.00  0.00    +0.000 A 
ATOM     23  C   UNL     1       8.747  10.699  17.866  0.00  0.00    +0.000 A 
ATOM     24  C   UNL     1       8.743  12.097  17.860  0.00  0.00    +0.000 A 
ATOM     25  C   UNL     1       9.120  12.825  18.971  0.00  0.00    +0.000 A 
ATOM     26  N   UNL     1       9.103  14.166  18.899  0.00  0.00    +0.000 NA
ATOM     27  C   UNL     1       9.479  14.833  19.998  0.00  0.00    +0.000 A 
ATOM     28  C   UNL     1       9.877  14.261  21.186  0.00  0.00    +0.000 A 
ATOM     29  C   UNL     1       9.892  12.872  21.253  0.00  0.00    +0.000 A 
ATOM     30  C   UNL     1       9.512  12.119  20.133  0.00  0.00    +0.000 A 
ATOM     31  C   UNL     1       9.517  10.709  20.140  0.00  0.00    +0.000 A 
BRANCH  27  32
ATOM     32  O   UNL     1       9.443  16.180  19.856  0.00  0.00    +0.000 OA
ATOM     33  H   UNL     1       9.341  16.236  18.888  0.00  0.00    +0.000 HD
ENDBRANCH  27  32
ENDBRANCH  21  22
ENDBRANCH  20  21
ENDBRANCH  19  20
ENDBRANCH  18  19
ENDBRANCH   3  18
TORSDOF 9
ENDMDL
MODEL 5
REMARK VINA RESULT:      -8.0      5.060      9.161
REMARK  Name = 
REMARK  9 active torsions:
REMARK  status: ('A' for Active; 'I' for Inactive)
REMARK    1  A    between atoms: N_3  and  C_4
REMARK    2  A    between atoms: C_4  and  C_5
REMARK    3  A    between atoms: C_5  and  C_6
REMARK    4  A    between atoms: C_6  and  O_7
REMARK    5  A    between atoms: O_7  and  C_8
REMARK    6  A    between atoms: C_13  and  O_14
REMARK    7  A    between atoms: N_19  and  C_20
REMARK    8  A    between atoms: N_19  and  C_23
REMARK    9  A    between atoms: C_29  and  O_30
REMARK                            x       y       z     vdW  Elec       q    Type
REMARK                         _______ _______ _______ _____ _____    ______ ____
ROOT
ATOM      1  O   UNL     1       2.485   4.178  20.047  0.00  0.00    +0.000 OA
ATOM      2  C   UNL     1       3.222   5.072  19.629  0.00  0.00    +0.000 C 
ATOM      3  N   UNL     1       2.910   6.387  19.878  0.00  0.00    +0.000 N 
ATOM      4  N   UNL     1       4.352   4.815  18.836  0.00  0.00    +0.000 N 
ATOM      5  H   UNL     1       3.691   6.967  20.119  0.00  0.00    +0.000 HD
ENDROOT
BRANCH   4   6
ATOM      6  C   UNL     1       5.462   5.805  18.621  0.00  0.00    +0.000 C 
ATOM      7  C   UNL     1       5.280   6.797  17.441  0.00  0.00    +0.000 C 
ATOM      8  C   UNL     1       4.801   6.197  16.132  0.00  0.00    +0.000 C 
ATOM      9  C   UNL     1       5.395   4.839  15.801  0.00  0.00    +0.000 C 
ATOM     10  C   UNL     1       6.906   4.758  15.993  0.00  0.00    +0.000 C 
ATOM     11  C   UNL     1       7.435   4.454  17.399  0.00  0.00    +0.000 C 
ATOM     12  C   UNL     1       6.929   5.263  18.605  0.00  0.00    +0.000 C 
BRANCH  12  13
ATOM     13  O   UNL     1       7.832   6.378  18.791  0.00  0.00    +0.000 OA
ATOM     14  H   UNL     1       7.795   6.943  18.002  0.00  0.00    +0.000 HD
ENDBRANCH  12  13
ENDBRANCH   4   6
BRANCH   4  15
ATOM     15  C   UNL     1       4.646   3.378  18.682  0.00  0.00    +0.000 C 
ATOM     16  C   UNL     1       4.411   2.442  19.863  0.00  0.00    +0.000 C 
ATOM     17  C   UNL     1       3.659   2.234  18.604  0.00  0.00    +0.000 C 
ENDBRANCH   4  15
BRANCH   3  18
ATOM     18  C   UNL     1       1.645   6.750  20.516  0.00  0.00    +0.000 C 
BRANCH  18  19
ATOM     19  C   UNL     1       1.472   8.260  20.735  0.00  0.00    +0.000 C 
BRANCH  19  20
ATOM     20  C   UNL     1       1.429   9.024  19.417  0.00  0.00    +0.000 C 
BRANCH  20  21
ATOM     21  O   UNL     1       1.189  10.420  19.616  0.00  0.00    +0.000 OA
BRANCH  21  22
ATOM     22  C   UNL     1      -0.087  10.814  19.282  0.00  0.00    +0.000 A 
ATOM     23  C   UNL     1      -0.871  11.710  20.011  0.00  0.00    +0.000 A 
ATOM     24  C   UNL     1      -2.167  12.027  19.592  0.00  0.00    +0.000 A 
ATOM     25  C   UNL     1      -2.712  11.476  18.449  0.00  0.00    +0.000 A 
ATOM     26  N   UNL     1      -3.965  11.814  18.106  0.00  0.00    +0.000 NA
ATOM     27  C   UNL     1      -4.456  11.254  16.992  0.00  0.00    +0.000 A 
ATOM     28  C   UNL     1      -3.786  10.368  16.178  0.00  0.00    +0.000 A 
ATOM     29  C   UNL     1      -2.488  10.023  16.540  0.00  0.00    +0.000 A 
ATOM     30  C   UNL     1      -1.921  10.575  17.698  0.00  0.00    +0.000 A 
ATOM     31  C   UNL     1      -0.614  10.254  18.119  0.00  0.00    +0.000 A 
BRANCH  27  32
ATOM     32  O   UNL     1      -5.725  11.634  16.707  0.00  0.00    +0.000 OA
ATOM     33  H   UNL     1      -6.195  11.180  17.429  0.00  0.00    +0.000 HD
ENDBRANCH  27  32
ENDBRANCH  21  22
ENDBRANCH  20  21
ENDBRANCH  19  20
ENDBRANCH  18  19
ENDBRANCH   3  18
TORSDOF 9
ENDMDL
MODEL 6
REMARK VINA RESULT:      -7.9      5.858      9.098
REMARK  Name = 
REMARK  9 active torsions:
REMARK  status: ('A' for Active; 'I' for Inactive)
REMARK    1  A    between atoms: N_3  and  C_4
REMARK    2  A    between atoms: C_4  and  C_5
REMARK    3  A    between atoms: C_5  and  C_6
REMARK    4  A    between atoms: C_6  and  O_7
REMARK    5  A    between atoms: O_7  and  C_8
REMARK    6  A    between atoms: C_13  and  O_14
REMARK    7  A    between atoms: N_19  and  C_20
REMARK    8  A    between atoms: N_19  and  C_23
REMARK    9  A    between atoms: C_29  and  O_30
REMARK                            x       y       z     vdW  Elec       q    Type
REMARK                         _______ _______ _______ _____ _____    ______ ____
ROOT
ATOM      1  O   UNL     1       2.815   7.616  19.028  0.00  0.00    +0.000 OA
ATOM      2  C   UNL     1       2.307   6.599  19.504  0.00  0.00    +0.000 C 
ATOM      3  N   UNL     1       1.638   6.665  20.701  0.00  0.00    +0.000 N 
ATOM      4  N   UNL     1       2.439   5.335  18.906  0.00  0.00    +0.000 N 
ATOM      5  H   UNL     1       0.793   6.128  20.743  0.00  0.00    +0.000 HD
ENDROOT
BRANCH   4   6
ATOM      6  C   UNL     1       1.554   4.164  19.228  0.00  0.00    +0.000 C 
ATOM      7  C   UNL     1       1.781   3.491  20.609  0.00  0.00    +0.000 C 
ATOM      8  C   UNL     1       3.225   3.226  20.993  0.00  0.00    +0.000 C 
ATOM      9  C   UNL     1       4.113   2.765  19.851  0.00  0.00    +0.000 C 
ATOM     10  C   UNL     1       3.498   1.663  18.993  0.00  0.00    +0.000 C 
ATOM     11  C   UNL     1       2.552   2.080  17.861  0.00  0.00    +0.000 C 
ATOM     12  C   UNL     1       1.393   3.051  18.142  0.00  0.00    +0.000 C 
BRANCH  12  13
ATOM     13  O   UNL     1       0.229   2.256  18.469  0.00  0.00    +0.000 OA
ATOM     14  H   UNL     1       0.491   1.567  19.102  0.00  0.00    +0.000 HD
ENDBRANCH  12  13
ENDBRANCH   4   6
BRANCH   4  15
ATOM     15  C   UNL     1       3.109   5.374  17.592  0.00  0.00    +0.000 C 
ATOM     16  C   UNL     1       4.375   6.211  17.430  0.00  0.00    +0.000 C 
ATOM     17  C   UNL     1       4.431   4.747  17.208  0.00  0.00    +0.000 C 
ENDBRANCH   4  15
BRANCH   3  18
ATOM     18  C   UNL     1       1.633   7.896  21.491  0.00  0.00    +0.000 C 
BRANCH  18  19
ATOM     19  C   UNL     1       0.407   8.785  21.245  0.00  0.00    +0.000 C 
BRANCH  19  20
ATOM     20  C   UNL     1       0.771  10.265  21.234  0.00  0.00    +0.000 C 
BRANCH  20  21
ATOM     21  O   UNL     1       0.680  10.829  19.922  0.00  0.00    +0.000 OA
BRANCH  21  22
ATOM     22  C   UNL     1      -0.602  11.170  19.556  0.00  0.00    +0.000 A 
ATOM     23  C   UNL     1      -1.486  11.928  20.326  0.00  0.00    +0.000 A 
ATOM     24  C   UNL     1      -2.777  12.201  19.868  0.00  0.00    +0.000 A 
ATOM     25  C   UNL     1      -3.221  11.742  18.643  0.00  0.00    +0.000 A 
ATOM     26  N   UNL     1      -4.477  12.031  18.264  0.00  0.00    +0.000 NA
ATOM     27  C   UNL     1      -4.867  11.564  17.071  0.00  0.00    +0.000 A 
ATOM     28  C   UNL     1      -4.094  10.819  16.208  0.00  0.00    +0.000 A 
ATOM     29  C   UNL     1      -2.794  10.524  16.609  0.00  0.00    +0.000 A 
ATOM     30  C   UNL     1      -2.329  10.983  17.849  0.00  0.00    +0.000 A 
ATOM     31  C   UNL     1      -1.026  10.706  18.311  0.00  0.00    +0.000 A 
BRANCH  27  32
ATOM     32  O   UNL     1      -6.144  11.887  16.752  0.00  0.00    +0.000 OA
ATOM     33  H   UNL     1      -6.109  11.744  15.788  0.00  0.00    +0.000 HD
ENDBRANCH  27  32
ENDBRANCH  21  22
ENDBRANCH  20  21
ENDBRANCH  19  20
ENDBRANCH  18  19
ENDBRANCH   3  18
TORSDOF 9
ENDMDL
MODEL 7
REMARK VINA RESULT:      -7.9      2.005     10.576
REMARK  Name = 
REMARK  9 active torsions:
REMARK  status: ('A' for Active; 'I' for Inactive)
REMARK    1  A    between atoms: N_3  and  C_4
REMARK    2  A    between atoms: C_4  and  C_5
REMARK    3  A    between atoms: C_5  and  C_6
REMARK    4  A    between atoms: C_6  and  O_7
REMARK    5  A    between atoms: O_7  and  C_8
REMARK    6  A    between atoms: C_13  and  O_14
REMARK    7  A    between atoms: N_19  and  C_20
REMARK    8  A    between atoms: N_19  and  C_23
REMARK    9  A    between atoms: C_29  and  O_30
REMARK                            x       y       z     vdW  Elec       q    Type
REMARK                         _______ _______ _______ _____ _____    ______ ____
ROOT
ATOM      1  O   UNL     1       8.955  10.264  20.666  0.00  0.00    +0.000 OA
ATOM      2  C   UNL     1       9.120  10.858  19.599  0.00  0.00    +0.000 C 
ATOM      3  N   UNL     1       8.901  10.203  18.412  0.00  0.00    +0.000 N 
ATOM      4  N   UNL     1       9.597  12.177  19.532  0.00  0.00    +0.000 N 
ATOM      5  H   UNL     1       8.436  10.746  17.709  0.00  0.00    +0.000 HD
ENDROOT
BRANCH   4   6
ATOM      6  C   UNL     1       9.464  13.050  18.315  0.00  0.00    +0.000 C 
ATOM      7  C   UNL     1      10.530  12.850  17.206  0.00  0.00    +0.000 C 
ATOM      8  C   UNL     1      11.971  12.755  17.674  0.00  0.00    +0.000 C 
ATOM      9  C   UNL     1      12.333  13.692  18.812  0.00  0.00    +0.000 C 
ATOM     10  C   UNL     1      11.849  15.126  18.614  0.00  0.00    +0.000 C 
ATOM     11  C   UNL     1      10.411  15.460  19.024  0.00  0.00    +0.000 C 
ATOM     12  C   UNL     1       9.246  14.582  18.538  0.00  0.00    +0.000 C 
BRANCH  12  13
ATOM     13  O   UNL     1       8.750  15.159  17.307  0.00  0.00    +0.000 OA
ATOM     14  H   UNL     1       7.780  15.183  17.344  0.00  0.00    +0.000 HD
ENDBRANCH  12  13
ENDBRANCH   4   6
BRANCH   4  15
ATOM     15  C   UNL     1       9.734  12.820  20.852  0.00  0.00    +0.000 C 
ATOM     16  C   UNL     1       8.567  13.629  21.408  0.00  0.00    +0.000 C 
ATOM     17  C   UNL     1       9.047  12.437  22.145  0.00  0.00    +0.000 C 
ENDBRANCH   4  15
BRANCH   3  18
ATOM     18  C   UNL     1       8.606   8.771  18.388  0.00  0.00    +0.000 C 
BRANCH  18  19
ATOM     19  C   UNL     1       7.545   8.374  17.352  0.00  0.00    +0.000 C 
BRANCH  19  20
ATOM     20  C   UNL     1       7.318   6.868  17.321  0.00  0.00    +0.000 C 
BRANCH  20  21
ATOM     21  O   UNL     1       6.256   6.505  16.432  0.00  0.00    +0.000 OA
BRANCH  21  22
ATOM     22  C   UNL     1       5.301   5.702  17.013  0.00  0.00    +0.000 A 
ATOM     23  C   UNL     1       5.062   4.366  16.684  0.00  0.00    +0.000 A 
ATOM     24  C   UNL     1       4.050   3.645  17.323  0.00  0.00    +0.000 A 
ATOM     25  C   UNL     1       3.260   4.219  18.301  0.00  0.00    +0.000 A 
ATOM     26  N   UNL     1       2.299   3.475  18.871  0.00  0.00    +0.000 NA
ATOM     27  C   UNL     1       1.555   4.071  19.811  0.00  0.00    +0.000 A 
ATOM     28  C   UNL     1       1.695   5.373  20.239  0.00  0.00    +0.000 A 
ATOM     29  C   UNL     1       2.693   6.137  19.643  0.00  0.00    +0.000 A 
ATOM     30  C   UNL     1       3.503   5.568  18.650  0.00  0.00    +0.000 A 
ATOM     31  C   UNL     1       4.523   6.297  18.005  0.00  0.00    +0.000 A 
BRANCH  27  32
ATOM     32  O   UNL     1       0.602   3.266  20.342  0.00  0.00    +0.000 OA
ATOM     33  H   UNL     1       1.010   3.085  21.208  0.00  0.00    +0.000 HD
ENDBRANCH  27  32
ENDBRANCH  21  22
ENDBRANCH  20  21
ENDBRANCH  19  20
ENDBRANCH  18  19
ENDBRANCH   3  18
TORSDOF 9
ENDMDL
MODEL 8
REMARK VINA RESULT:      -7.7      5.257      9.808
REMARK  Name = 
REMARK  9 active torsions:
REMARK  status: ('A' for Active; 'I' for Inactive)
REMARK    1  A    between atoms: N_3  and  C_4
REMARK    2  A    between atoms: C_4  and  C_5
REMARK    3  A    between atoms: C_5  and  C_6
REMARK    4  A    between atoms: C_6  and  O_7
REMARK    5  A    between atoms: O_7  and  C_8
REMARK    6  A    between atoms: C_13  and  O_14
REMARK    7  A    between atoms: N_19  and  C_20
REMARK    8  A    between atoms: N_19  and  C_23
REMARK    9  A    between atoms: C_29  and  O_30
REMARK                            x       y       z     vdW  Elec       q    Type
REMARK                         _______ _______ _______ _____ _____    ______ ____
ROOT
ATOM      1  O   UNL     1       1.916   5.598  18.915  0.00  0.00    +0.000 OA
ATOM      2  C   UNL     1       2.986   6.111  18.583  0.00  0.00    +0.000 C 
ATOM      3  N   UNL     1       3.099   7.478  18.522  0.00  0.00    +0.000 N 
ATOM      4  N   UNL     1       4.100   5.352  18.190  0.00  0.00    +0.000 N 
ATOM      5  H   UNL     1       3.961   7.847  18.875  0.00  0.00    +0.000 HD
ENDROOT
BRANCH   4   6
ATOM      6  C   UNL     1       5.502   5.893  18.140  0.00  0.00    +0.000 C 
ATOM      7  C   UNL     1       5.766   7.021  17.106  0.00  0.00    +0.000 C 
ATOM      8  C   UNL     1       5.200   6.797  15.715  0.00  0.00    +0.000 C 
ATOM      9  C   UNL     1       5.296   5.368  15.211  0.00  0.00    +0.000 C 
ATOM     10  C   UNL     1       6.664   4.725  15.424  0.00  0.00    +0.000 C 
ATOM     11  C   UNL     1       6.950   4.083  16.786  0.00  0.00    +0.000 C 
ATOM     12  C   UNL     1       6.679   4.866  18.081  0.00  0.00    +0.000 C 
BRANCH  12  13
ATOM     13  O   UNL     1       7.903   5.549  18.441  0.00  0.00    +0.000 OA
ATOM     14  H   UNL     1       8.507   4.909  18.851  0.00  0.00    +0.000 HD
ENDBRANCH  12  13
ENDBRANCH   4   6
BRANCH   4  15
ATOM     15  C   UNL     1       3.910   3.899  18.355  0.00  0.00    +0.000 C 
ATOM     16  C   UNL     1       2.687   3.235  17.730  0.00  0.00    +0.000 C 
ATOM     17  C   UNL     1       4.043   2.821  17.302  0.00  0.00    +0.000 C 
ENDBRANCH   4  15
BRANCH   3  18
ATOM     18  C   UNL     1       1.930   8.336  18.713  0.00  0.00    +0.000 C 
BRANCH  18  19
ATOM     19  C   UNL     1       1.995   9.656  17.931  0.00  0.00    +0.000 C 
BRANCH  19  20
ATOM     20  C   UNL     1       1.029  10.694  18.488  0.00  0.00    +0.000 C 
BRANCH  20  21
ATOM     21  O   UNL     1      -0.105  10.087  19.117  0.00  0.00    +0.000 OA
BRANCH  21  22
ATOM     22  C   UNL     1      -1.298  10.365  18.489  0.00  0.00    +0.000 A 
ATOM     23  C   UNL     1      -1.667   9.911  17.222  0.00  0.00    +0.000 A 
ATOM     24  C   UNL     1      -2.900  10.270  16.667  0.00  0.00    +0.000 A 
ATOM     25  C   UNL     1      -3.792  11.074  17.349  0.00  0.00    +0.000 A 
ATOM     26  N   UNL     1      -4.955  11.390  16.758  0.00  0.00    +0.000 NA
ATOM     27  C   UNL     1      -5.790  12.174  17.453  0.00  0.00    +0.000 A 
ATOM     28  C   UNL     1      -5.556  12.677  18.714  0.00  0.00    +0.000 A 
ATOM     29  C   UNL     1      -4.348  12.344  19.320  0.00  0.00    +0.000 A 
ATOM     30  C   UNL     1      -3.432  11.529  18.640  0.00  0.00    +0.000 A 
ATOM     31  C   UNL     1      -2.190  11.168  19.200  0.00  0.00    +0.000 A 
BRANCH  27  32
ATOM     32  O   UNL     1      -6.942  12.457  16.798  0.00  0.00    +0.000 OA
ATOM     33  H   UNL     1      -6.872  13.429  16.764  0.00  0.00    +0.000 HD
ENDBRANCH  27  32
ENDBRANCH  21  22
ENDBRANCH  20  21
ENDBRANCH  19  20
ENDBRANCH  18  19
ENDBRANCH   3  18
TORSDOF 9
ENDMDL
MODEL 9
REMARK VINA RESULT:      -7.7      5.480      8.900
REMARK  Name = 
REMARK  9 active torsions:
REMARK  status: ('A' for Active; 'I' for Inactive)
REMARK    1  A    between atoms: N_3  and  C_4
REMARK    2  A    between atoms: C_4  and  C_5
REMARK    3  A    between atoms: C_5  and  C_6
REMARK    4  A    between atoms: C_6  and  O_7
REMARK    5  A    between atoms: O_7  and  C_8
REMARK    6  A    between atoms: C_13  and  O_14
REMARK    7  A    between atoms: N_19  and  C_20
REMARK    8  A    between atoms: N_19  and  C_23
REMARK    9  A    between atoms: C_29  and  O_30
REMARK                            x       y       z     vdW  Elec       q    Type
REMARK                         _______ _______ _______ _____ _____    ______ ____
ROOT
ATOM      1  O   UNL     1       2.930   7.193  18.107  0.00  0.00    +0.000 OA
ATOM      2  C   UNL     1       2.967   6.449  19.089  0.00  0.00    +0.000 C 
ATOM      3  N   UNL     1       2.273   6.783  20.226  0.00  0.00    +0.000 N 
ATOM      4  N   UNL     1       3.753   5.287  19.130  0.00  0.00    +0.000 N 
ATOM      5  H   UNL     1       1.808   6.019  20.677  0.00  0.00    +0.000 HD
ENDROOT
BRANCH   4   6
ATOM      6  C   UNL     1       3.552   4.179  20.125  0.00  0.00    +0.000 C 
ATOM      7  C   UNL     1       3.736   2.733  19.591  0.00  0.00    +0.000 C 
ATOM      8  C   UNL     1       3.070   2.422  18.262  0.00  0.00    +0.000 C 
ATOM      9  C   UNL     1       1.703   3.055  18.073  0.00  0.00    +0.000 C 
ATOM     10  C   UNL     1       0.774   2.897  19.272  0.00  0.00    +0.000 C 
ATOM     11  C   UNL     1       0.896   3.913  20.413  0.00  0.00    +0.000 C 
ATOM     12  C   UNL     1       2.272   4.228  21.022  0.00  0.00    +0.000 C 
BRANCH  12  13
ATOM     13  O   UNL     1       2.465   3.337  22.146  0.00  0.00    +0.000 OA
ATOM     14  H   UNL     1       1.595   3.097  22.505  0.00  0.00    +0.000 HD
ENDBRANCH  12  13
ENDBRANCH   4   6
BRANCH   4  15
ATOM     15  C   UNL     1       4.404   4.972  17.844  0.00  0.00    +0.000 C 
ATOM     16  C   UNL     1       5.512   5.887  17.330  0.00  0.00    +0.000 C 
ATOM     17  C   UNL     1       5.811   4.465  17.618  0.00  0.00    +0.000 C 
ENDBRANCH   4  15
BRANCH   3  18
ATOM     18  C   UNL     1       1.598   8.076  20.340  0.00  0.00    +0.000 C 
BRANCH  18  19
ATOM     19  C   UNL     1       0.582   8.146  21.488  0.00  0.00    +0.000 C 
BRANCH  19  20
ATOM     20  C   UNL     1       0.949   9.217  22.508  0.00  0.00    +0.000 C 
BRANCH  20  21
ATOM     21  O   UNL     1       1.120  10.500  21.898  0.00  0.00    +0.000 OA
BRANCH  21  22
ATOM     22  C   UNL     1      -0.066  11.139  21.614  0.00  0.00    +0.000 A 
ATOM     23  C   UNL     1      -0.455  11.593  20.353  0.00  0.00    +0.000 A 
ATOM     24  C   UNL     1      -1.677  12.250  20.178  0.00  0.00    +0.000 A 
ATOM     25  C   UNL     1      -2.539  12.466  21.235  0.00  0.00    +0.000 A 
ATOM     26  N   UNL     1      -3.693  13.111  21.003  0.00  0.00    +0.000 NA
ATOM     27  C   UNL     1      -4.498  13.302  22.056  0.00  0.00    +0.000 A 
ATOM     28  C   UNL     1      -4.242  12.894  23.346  0.00  0.00    +0.000 A 
ATOM     29  C   UNL     1      -3.044  12.226  23.579  0.00  0.00    +0.000 A 
ATOM     30  C   UNL     1      -2.158  11.999  22.515  0.00  0.00    +0.000 A 
ATOM     31  C   UNL     1      -0.927  11.337  22.693  0.00  0.00    +0.000 A 
BRANCH  27  32
ATOM     32  O   UNL     1      -5.642  13.962  21.753  0.00  0.00    +0.000 OA
ATOM     33  H   UNL     1      -5.423  14.839  22.116  0.00  0.00    +0.000 HD
ENDBRANCH  27  32
ENDBRANCH  21  22
ENDBRANCH  20  21
ENDBRANCH  19  20
ENDBRANCH  18  19
ENDBRANCH   3  18
TORSDOF 9
ENDMDL
