MODEL 1
REMARK VINA RESULT:      -6.2      0.000      0.000
REMARK  Name = 
REMARK  15 active torsions:
REMARK  status: ('A' for Active; 'I' for Inactive)
REMARK    1  A    between atoms: C_3  and  C_4
REMARK    2  A    between atoms: C_4  and  C_5
REMARK    3  A    between atoms: C_5  and  O_7
REMARK    4  A    between atoms: C_8  and  C_9
REMARK    5  A    between atoms: C_9  and  C_10
REMARK    6  A    between atoms: C_10  and  C_11
REMARK    7  A    between atoms: C_11  and  C_12
REMARK    8  A    between atoms: C_12  and  C_13
REMARK    9  A    between atoms: C_13  and  C_14
REMARK   10  A    between atoms: C_14  and  C_15
REMARK   11  A    between atoms: C_15  and  C_16
REMARK   12  A    between atoms: C_16  and  C_17
REMARK   13  A    between atoms: C_17  and  C_18
REMARK   14  A    between atoms: C_18  and  C_19
REMARK   15  A    between atoms: C_19  and  C_20
REMARK                            x       y       z     vdW  Elec       q    Type
REMARK                         _______ _______ _______ _____ _____    ______ ____
ROOT
ATOM      1  C   UNL     1       3.809   4.142  17.296  0.00  0.00    +0.000 C 
ENDROOT
BRANCH   1   2
ATOM      2  C   UNL     1       2.462   3.448  17.041  0.00  0.00    +0.000 C 
BRANCH   2   6
ATOM      3  C   UNL     1       4.216   1.837  19.690  0.00  0.00    +0.000 C 
ATOM      4  C   UNL     1       3.069   2.021  19.086  0.00  0.00    +0.000 C 
ATOM      5  C   UNL     1       1.665   2.061  19.252  0.00  0.00    +0.000 C 
ATOM      6  C   UNL     1       2.399   2.205  17.856  0.00  0.00    +0.000 C 
BRANCH   5   7
ATOM      7  C   UNL     1       0.992   3.172  20.010  0.00  0.00    +0.000 C 
BRANCH   7   8
ATOM      8  C   UNL     1       1.661   3.413  21.349  0.00  0.00    +0.000 C 
ATOM      9  O   UNL     1       2.325   4.414  21.639  0.00  0.00    +0.000 OA
BRANCH   8  10
ATOM     10  O   UNL     1       1.482   2.417  22.239  0.00  0.00    +0.000 OA
ATOM     11  H   UNL     1       0.959   2.670  23.026  0.00  0.00    +0.000 HD
ENDBRANCH   8  10
ENDBRANCH   7   8
ENDBRANCH   5   7
ENDBRANCH   2   6
ENDBRANCH   1   2
BRANCH   1  12
ATOM     12  C   UNL     1       3.670   5.541  17.889  0.00  0.00    +0.000 C 
BRANCH  12  13
ATOM     13  C   UNL     1       4.463   5.665  19.184  0.00  0.00    +0.000 C 
BRANCH  13  14
ATOM     14  C   UNL     1       5.777   4.904  19.084  0.00  0.00    +0.000 C 
BRANCH  14  15
ATOM     15  C   UNL     1       6.826   5.727  18.361  0.00  0.00    +0.000 C 
BRANCH  15  16
ATOM     16  C   UNL     1       7.371   4.951  17.172  0.00  0.00    +0.000 C 
BRANCH  16  17
ATOM     17  C   UNL     1       6.834   5.527  15.870  0.00  0.00    +0.000 C 
BRANCH  17  18
ATOM     18  C   UNL     1       7.161   4.602  14.706  0.00  0.00    +0.000 C 
BRANCH  18  19
ATOM     19  C   UNL     1       5.883   4.101  14.050  0.00  0.00    +0.000 C 
BRANCH  19  20
ATOM     20  C   UNL     1       6.158   3.616  12.632  0.00  0.00    +0.000 C 
ATOM     21  C   UNL     1       4.862   3.252  11.931  0.00  0.00    +0.000 C 
ENDBRANCH  19  20
ENDBRANCH  18  19
ENDBRANCH  17  18
ENDBRANCH  16  17
ENDBRANCH  15  16
ENDBRANCH  14  15
ENDBRANCH  13  14
ENDBRANCH  12  13
ENDBRANCH   1  12
TORSDOF 14
ENDMDL
MODEL 2
REMARK VINA RESULT:      -6.0      3.092      6.105
REMARK  Name = 
REMARK  15 active torsions:
REMARK  status: ('A' for Active; 'I' for Inactive)
REMARK    1  A    between atoms: C_3  and  C_4
REMARK    2  A    between atoms: C_4  and  C_5
REMARK    3  A    between atoms: C_5  and  O_7
REMARK    4  A    between atoms: C_8  and  C_9
REMARK    5  A    between atoms: C_9  and  C_10
REMARK    6  A    between atoms: C_10  and  C_11
REMARK    7  A    between atoms: C_11  and  C_12
REMARK    8  A    between atoms: C_12  and  C_13
REMARK    9  A    between atoms: C_13  and  C_14
REMARK   10  A    between atoms: C_14  and  C_15
REMARK   11  A    between atoms: C_15  and  C_16
REMARK   12  A    between atoms: C_16  and  C_17
REMARK   13  A    between atoms: C_17  and  C_18
REMARK   14  A    between atoms: C_18  and  C_19
REMARK   15  A    between atoms: C_19  and  C_20
REMARK                            x       y       z     vdW  Elec       q    Type
REMARK                         _______ _______ _______ _____ _____    ______ ____
ROOT
ATOM      1  C   UNL     1       3.474   6.132  19.312  0.00  0.00    +0.000 C 
ENDROOT
BRANCH   1   2
ATOM      2  C   UNL     1       3.568   6.579  17.845  0.00  0.00    +0.000 C 
BRANCH   2   6
ATOM      3  C   UNL     1       6.924   5.543  18.436  0.00  0.00    +0.000 C 
ATOM      4  C   UNL     1       6.096   6.185  17.651  0.00  0.00    +0.000 C 
ATOM      5  C   UNL     1       5.829   6.574  16.317  0.00  0.00    +0.000 C 
ATOM      6  C   UNL     1       4.960   7.020  17.564  0.00  0.00    +0.000 C 
BRANCH   5   7
ATOM      7  C   UNL     1       5.418   5.574  15.272  0.00  0.00    +0.000 C 
BRANCH   7   8
ATOM      8  C   UNL     1       6.616   4.833  14.713  0.00  0.00    +0.000 C 
ATOM      9  O   UNL     1       7.714   5.344  14.468  0.00  0.00    +0.000 OA
BRANCH   8  10
ATOM     10  O   UNL     1       6.394   3.523  14.484  0.00  0.00    +0.000 OA
ATOM     11  H   UNL     1       6.660   2.936  15.219  0.00  0.00    +0.000 HD
ENDBRANCH   8  10
ENDBRANCH   7   8
ENDBRANCH   5   7
ENDBRANCH   2   6
ENDBRANCH   1   2
BRANCH   1  12
ATOM     12  C   UNL     1       2.088   6.324  19.919  0.00  0.00    +0.000 C 
BRANCH  12  13
ATOM     13  C   UNL     1       1.774   5.219  20.920  0.00  0.00    +0.000 C 
BRANCH  13  14
ATOM     14  C   UNL     1       0.770   4.235  20.336  0.00  0.00    +0.000 C 
BRANCH  14  15
ATOM     15  C   UNL     1       1.233   2.805  20.539  0.00  0.00    +0.000 C 
BRANCH  15  16
ATOM     16  C   UNL     1       2.333   2.756  21.588  0.00  0.00    +0.000 C 
BRANCH  16  17
ATOM     17  C   UNL     1       3.651   2.332  20.957  0.00  0.00    +0.000 C 
BRANCH  17  18
ATOM     18  C   UNL     1       3.464   2.059  19.471  0.00  0.00    +0.000 C 
BRANCH  18  19
ATOM     19  C   UNL     1       4.427   2.904  18.650  0.00  0.00    +0.000 C 
BRANCH  19  20
ATOM     20  C   UNL     1       3.920   3.069  17.223  0.00  0.00    +0.000 C 
ATOM     21  C   UNL     1       2.408   3.204  17.205  0.00  0.00    +0.000 C 
ENDBRANCH  19  20
ENDBRANCH  18  19
ENDBRANCH  17  18
ENDBRANCH  16  17
ENDBRANCH  15  16
ENDBRANCH  14  15
ENDBRANCH  13  14
ENDBRANCH  12  13
ENDBRANCH   1  12
TORSDOF 14
ENDMDL
MODEL 3
REMARK VINA RESULT:      -6.0      2.192      5.662
REMARK  Name = 
REMARK  15 active torsions:
REMARK  status: ('A' for Active; 'I' for Inactive)
REMARK    1  A    between atoms: C_3  and  C_4
REMARK    2  A    between atoms: C_4  and  C_5
REMARK    3  A    between atoms: C_5  and  O_7
REMARK    4  A    between atoms: C_8  and  C_9
REMARK    5  A    between atoms: C_9  and  C_10
REMARK    6  A    between atoms: C_10  and  C_11
REMARK    7  A    between atoms: C_11  and  C_12
REMARK    8  A    between atoms: C_12  and  C_13
REMARK    9  A    between atoms: C_13  and  C_14
REMARK   10  A    between atoms: C_14  and  C_15
REMARK   11  A    between atoms: C_15  and  C_16
REMARK   12  A    between atoms: C_16  and  C_17
REMARK   13  A    between atoms: C_17  and  C_18
REMARK   14  A    between atoms: C_18  and  C_19
REMARK   15  A    between atoms: C_19  and  C_20
REMARK                            x       y       z     vdW  Elec       q    Type
REMARK                         _______ _______ _______ _____ _____    ______ ____
ROOT
ATOM      1  C   UNL     1       4.225   7.245  16.742  0.00  0.00    +0.000 C 
ENDROOT
BRANCH   1   2
ATOM      2  C   UNL     1       5.230   6.672  15.730  0.00  0.00    +0.000 C 
BRANCH   2   6
ATOM      3  C   UNL     1       6.166   3.896  13.703  0.00  0.00    +0.000 C 
ATOM      4  C   UNL     1       5.878   4.331  14.905  0.00  0.00    +0.000 C 
ATOM      5  C   UNL     1       6.110   4.150  16.289  0.00  0.00    +0.000 C 
ATOM      6  C   UNL     1       5.080   5.193  15.688  0.00  0.00    +0.000 C 
BRANCH   5   7
ATOM      7  C   UNL     1       7.435   4.486  16.916  0.00  0.00    +0.000 C 
BRANCH   7   8
ATOM      8  C   UNL     1       7.313   4.637  18.419  0.00  0.00    +0.000 C 
ATOM      9  O   UNL     1       8.104   5.261  19.135  0.00  0.00    +0.000 OA
BRANCH   8  10
ATOM     10  O   UNL     1       6.243   4.012  18.949  0.00  0.00    +0.000 OA
ATOM     11  H   UNL     1       5.416   4.130  18.441  0.00  0.00    +0.000 HD
ENDBRANCH   8  10
ENDBRANCH   7   8
ENDBRANCH   5   7
ENDBRANCH   2   6
ENDBRANCH   1   2
BRANCH   1  12
ATOM     12  C   UNL     1       3.871   6.274  17.864  0.00  0.00    +0.000 C 
BRANCH  12  13
ATOM     13  C   UNL     1       2.439   6.490  18.339  0.00  0.00    +0.000 C 
BRANCH  13  14
ATOM     14  C   UNL     1       2.340   6.303  19.846  0.00  0.00    +0.000 C 
BRANCH  14  15
ATOM     15  C   UNL     1       2.839   4.930  20.256  0.00  0.00    +0.000 C 
BRANCH  15  16
ATOM     16  C   UNL     1       1.822   4.254  21.162  0.00  0.00    +0.000 C 
BRANCH  16  17
ATOM     17  C   UNL     1       1.890   2.743  21.003  0.00  0.00    +0.000 C 
BRANCH  17  18
ATOM     18  C   UNL     1       1.760   2.358  19.536  0.00  0.00    +0.000 C 
BRANCH  18  19
ATOM     19  C   UNL     1       2.993   1.594  19.074  0.00  0.00    +0.000 C 
BRANCH  19  20
ATOM     20  C   UNL     1       3.485   2.122  17.732  0.00  0.00    +0.000 C 
ATOM     21  C   UNL     1       2.456   3.049  17.113  0.00  0.00    +0.000 C 
ENDBRANCH  19  20
ENDBRANCH  18  19
ENDBRANCH  17  18
ENDBRANCH  16  17
ENDBRANCH  15  16
ENDBRANCH  14  15
ENDBRANCH  13  14
ENDBRANCH  12  13
ENDBRANCH   1  12
TORSDOF 14
ENDMDL
MODEL 4
REMARK VINA RESULT:      -5.9      3.212      6.194
REMARK  Name = 
REMARK  15 active torsions:
REMARK  status: ('A' for Active; 'I' for Inactive)
REMARK    1  A    between atoms: C_3  and  C_4
REMARK    2  A    between atoms: C_4  and  C_5
REMARK    3  A    between atoms: C_5  and  O_7
REMARK    4  A    between atoms: C_8  and  C_9
REMARK    5  A    between atoms: C_9  and  C_10
REMARK    6  A    between atoms: C_10  and  C_11
REMARK    7  A    between atoms: C_11  and  C_12
REMARK    8  A    between atoms: C_12  and  C_13
REMARK    9  A    between atoms: C_13  and  C_14
REMARK   10  A    between atoms: C_14  and  C_15
REMARK   11  A    between atoms: C_15  and  C_16
REMARK   12  A    between atoms: C_16  and  C_17
REMARK   13  A    between atoms: C_17  and  C_18
REMARK   14  A    between atoms: C_18  and  C_19
REMARK   15  A    between atoms: C_19  and  C_20
REMARK                            x       y       z     vdW  Elec       q    Type
REMARK                         _______ _______ _______ _____ _____    ______ ____
ROOT
ATOM      1  C   UNL     1       2.768   8.171  18.032  0.00  0.00    +0.000 C 
ENDROOT
BRANCH   1   2
ATOM      2  C   UNL     1       3.341   6.918  17.352  0.00  0.00    +0.000 C 
BRANCH   2   6
ATOM      3  C   UNL     1       6.083   5.222  18.866  0.00  0.00    +0.000 C 
ATOM      4  C   UNL     1       5.653   5.922  17.846  0.00  0.00    +0.000 C 
ATOM      5  C   UNL     1       5.810   6.170  16.462  0.00  0.00    +0.000 C 
ATOM      6  C   UNL     1       4.826   6.978  17.404  0.00  0.00    +0.000 C 
BRANCH   5   7
ATOM      7  C   UNL     1       5.402   5.156  15.429  0.00  0.00    +0.000 C 
BRANCH   7   8
ATOM      8  C   UNL     1       6.589   4.692  14.609  0.00  0.00    +0.000 C 
ATOM      9  O   UNL     1       7.620   5.348  14.423  0.00  0.00    +0.000 OA
BRANCH   8  10
ATOM     10  O   UNL     1       6.437   3.468  14.066  0.00  0.00    +0.000 OA
ATOM     11  H   UNL     1       7.228   3.135  13.597  0.00  0.00    +0.000 HD
ENDBRANCH   8  10
ENDBRANCH   7   8
ENDBRANCH   5   7
ENDBRANCH   2   6
ENDBRANCH   1   2
BRANCH   1  12
ATOM     12  C   UNL     1       1.909   7.861  19.254  0.00  0.00    +0.000 C 
BRANCH  12  13
ATOM     13  C   UNL     1       2.558   6.785  20.117  0.00  0.00    +0.000 C 
BRANCH  13  14
ATOM     14  C   UNL     1       1.731   5.507  20.094  0.00  0.00    +0.000 C 
BRANCH  14  15
ATOM     15  C   UNL     1       2.113   4.594  21.243  0.00  0.00    +0.000 C 
BRANCH  15  16
ATOM     16  C   UNL     1       1.573   3.194  20.999  0.00  0.00    +0.000 C 
BRANCH  16  17
ATOM     17  C   UNL     1       0.708   3.168  19.748  0.00  0.00    +0.000 C 
BRANCH  17  18
ATOM     18  C   UNL     1       1.256   2.165  18.744  0.00  0.00    +0.000 C 
BRANCH  18  19
ATOM     19  C   UNL     1       2.727   1.886  19.020  0.00  0.00    +0.000 C 
BRANCH  19  20
ATOM     20  C   UNL     1       3.607   2.505  17.941  0.00  0.00    +0.000 C 
ATOM     21  C   UNL     1       2.770   3.320  16.972  0.00  0.00    +0.000 C 
ENDBRANCH  19  20
ENDBRANCH  18  19
ENDBRANCH  17  18
ENDBRANCH  16  17
ENDBRANCH  15  16
ENDBRANCH  14  15
ENDBRANCH  13  14
ENDBRANCH  12  13
ENDBRANCH   1  12
TORSDOF 14
ENDMDL
MODEL 5
REMARK VINA RESULT:      -5.8      1.938      3.402
REMARK  Name = 
REMARK  15 active torsions:
REMARK  status: ('A' for Active; 'I' for Inactive)
REMARK    1  A    between atoms: C_3  and  C_4
REMARK    2  A    between atoms: C_4  and  C_5
REMARK    3  A    between atoms: C_5  and  O_7
REMARK    4  A    between atoms: C_8  and  C_9
REMARK    5  A    between atoms: C_9  and  C_10
REMARK    6  A    between atoms: C_10  and  C_11
REMARK    7  A    between atoms: C_11  and  C_12
REMARK    8  A    between atoms: C_12  and  C_13
REMARK    9  A    between atoms: C_13  and  C_14
REMARK   10  A    between atoms: C_14  and  C_15
REMARK   11  A    between atoms: C_15  and  C_16
REMARK   12  A    between atoms: C_16  and  C_17
REMARK   13  A    between atoms: C_17  and  C_18
REMARK   14  A    between atoms: C_18  and  C_19
REMARK   15  A    between atoms: C_19  and  C_20
REMARK                            x       y       z     vdW  Elec       q    Type
REMARK                         _______ _______ _______ _____ _____    ______ ____
ROOT
ATOM      1  C   UNL     1       1.553   2.064  18.561  0.00  0.00    +0.000 C 
ENDROOT
BRANCH   1   2
ATOM      2  C   UNL     1       0.962   3.483  18.576  0.00  0.00    +0.000 C 
BRANCH   2   6
ATOM      3  C   UNL     1       2.458   3.105  21.787  0.00  0.00    +0.000 C 
ATOM      4  C   UNL     1       1.736   3.856  20.994  0.00  0.00    +0.000 C 
ATOM      5  C   UNL     1       1.372   5.185  20.670  0.00  0.00    +0.000 C 
ATOM      6  C   UNL     1       0.746   3.899  19.988  0.00  0.00    +0.000 C 
BRANCH   5   7
ATOM      7  C   UNL     1       2.346   6.133  20.028  0.00  0.00    +0.000 C 
BRANCH   7   8
ATOM      8  C   UNL     1       1.883   7.571  20.152  0.00  0.00    +0.000 C 
ATOM      9  O   UNL     1       1.446   8.087  21.186  0.00  0.00    +0.000 OA
BRANCH   8  10
ATOM     10  O   UNL     1       1.975   8.278  19.008  0.00  0.00    +0.000 OA
ATOM     11  H   UNL     1       1.155   8.751  18.761  0.00  0.00    +0.000 HD
ENDBRANCH   8  10
ENDBRANCH   7   8
ENDBRANCH   5   7
ENDBRANCH   2   6
ENDBRANCH   1   2
BRANCH   1  12
ATOM     12  C   UNL     1       3.023   2.022  18.157  0.00  0.00    +0.000 C 
BRANCH  12  13
ATOM     13  C   UNL     1       3.313   3.032  17.053  0.00  0.00    +0.000 C 
BRANCH  13  14
ATOM     14  C   UNL     1       4.092   4.218  17.602  0.00  0.00    +0.000 C 
BRANCH  14  15
ATOM     15  C   UNL     1       4.871   3.827  18.843  0.00  0.00    +0.000 C 
BRANCH  15  16
ATOM     16  C   UNL     1       5.867   4.919  19.200  0.00  0.00    +0.000 C 
BRANCH  16  17
ATOM     17  C   UNL     1       5.856   6.014  18.145  0.00  0.00    +0.000 C 
BRANCH  17  18
ATOM     18  C   UNL     1       7.191   6.060  17.414  0.00  0.00    +0.000 C 
BRANCH  18  19
ATOM     19  C   UNL     1       6.985   5.860  15.919  0.00  0.00    +0.000 C 
BRANCH  19  20
ATOM     20  C   UNL     1       7.018   4.379  15.563  0.00  0.00    +0.000 C 
ATOM     21  C   UNL     1       6.091   4.089  14.397  0.00  0.00    +0.000 C 
ENDBRANCH  19  20
ENDBRANCH  18  19
ENDBRANCH  17  18
ENDBRANCH  16  17
ENDBRANCH  15  16
ENDBRANCH  14  15
ENDBRANCH  13  14
ENDBRANCH  12  13
ENDBRANCH   1  12
TORSDOF 14
ENDMDL
MODEL 6
REMARK VINA RESULT:      -5.8      1.223      2.183
REMARK  Name = 
REMARK  15 active torsions:
REMARK  status: ('A' for Active; 'I' for Inactive)
REMARK    1  A    between atoms: C_3  and  C_4
REMARK    2  A    between atoms: C_4  and  C_5
REMARK    3  A    between atoms: C_5  and  O_7
REMARK    4  A    between atoms: C_8  and  C_9
REMARK    5  A    between atoms: C_9  and  C_10
REMARK    6  A    between atoms: C_10  and  C_11
REMARK    7  A    between atoms: C_11  and  C_12
REMARK    8  A    between atoms: C_12  and  C_13
REMARK    9  A    between atoms: C_13  and  C_14
REMARK   10  A    between atoms: C_14  and  C_15
REMARK   11  A    between atoms: C_15  and  C_16
REMARK   12  A    between atoms: C_16  and  C_17
REMARK   13  A    between atoms: C_17  and  C_18
REMARK   14  A    between atoms: C_18  and  C_19
REMARK   15  A    between atoms: C_19  and  C_20
REMARK                            x       y       z     vdW  Elec       q    Type
REMARK                         _______ _______ _______ _____ _____    ______ ____
ROOT
ATOM      1  C   UNL     1       4.017   5.602  17.578  0.00  0.00    +0.000 C 
ENDROOT
BRANCH   1   2
ATOM      2  C   UNL     1       2.632   6.021  18.096  0.00  0.00    +0.000 C 
BRANCH   2   6
ATOM      3  C   UNL     1       2.861   2.472  17.887  0.00  0.00    +0.000 C 
ATOM      4  C   UNL     1       2.220   3.504  18.377  0.00  0.00    +0.000 C 
ATOM      5  C   UNL     1       1.444   3.978  19.461  0.00  0.00    +0.000 C 
ATOM      6  C   UNL     1       1.757   4.819  18.156  0.00  0.00    +0.000 C 
BRANCH   5   7
ATOM      7  C   UNL     1       2.046   4.208  20.820  0.00  0.00    +0.000 C 
BRANCH   7   8
ATOM      8  C   UNL     1       2.237   2.904  21.568  0.00  0.00    +0.000 C 
ATOM      9  O   UNL     1       1.364   2.334  22.233  0.00  0.00    +0.000 OA
BRANCH   8  10
ATOM     10  O   UNL     1       3.477   2.387  21.463  0.00  0.00    +0.000 OA
ATOM     11  H   UNL     1       3.673   1.986  20.593  0.00  0.00    +0.000 HD
ENDBRANCH   8  10
ENDBRANCH   7   8
ENDBRANCH   5   7
ENDBRANCH   2   6
ENDBRANCH   1   2
BRANCH   1  12
ATOM     12  C   UNL     1       5.089   5.572  18.663  0.00  0.00    +0.000 C 
BRANCH  12  13
ATOM     13  C   UNL     1       6.281   4.728  18.227  0.00  0.00    +0.000 C 
BRANCH  13  14
ATOM     14  C   UNL     1       7.009   5.389  17.065  0.00  0.00    +0.000 C 
BRANCH  14  15
ATOM     15  C   UNL     1       7.279   4.389  15.956  0.00  0.00    +0.000 C 
BRANCH  15  16
ATOM     16  C   UNL     1       6.435   4.724  14.736  0.00  0.00    +0.000 C 
BRANCH  16  17
ATOM     17  C   UNL     1       7.326   5.017  13.538  0.00  0.00    +0.000 C 
BRANCH  17  18
ATOM     18  C   UNL     1       6.966   4.104  12.374  0.00  0.00    +0.000 C 
BRANCH  18  19
ATOM     19  C   UNL     1       5.682   3.342  12.672  0.00  0.00    +0.000 C 
BRANCH  19  20
ATOM     20  C   UNL     1       5.249   2.520  11.465  0.00  0.00    +0.000 C 
ATOM     21  C   UNL     1       6.199   1.357  11.242  0.00  0.00    +0.000 C 
ENDBRANCH  19  20
ENDBRANCH  18  19
ENDBRANCH  17  18
ENDBRANCH  16  17
ENDBRANCH  15  16
ENDBRANCH  14  15
ENDBRANCH  13  14
ENDBRANCH  12  13
ENDBRANCH   1  12
TORSDOF 14
ENDMDL
MODEL 7
REMARK VINA RESULT:      -5.7      1.253      2.201
REMARK  Name = 
REMARK  15 active torsions:
REMARK  status: ('A' for Active; 'I' for Inactive)
REMARK    1  A    between atoms: C_3  and  C_4
REMARK    2  A    between atoms: C_4  and  C_5
REMARK    3  A    between atoms: C_5  and  O_7
REMARK    4  A    between atoms: C_8  and  C_9
REMARK    5  A    between atoms: C_9  and  C_10
REMARK    6  A    between atoms: C_10  and  C_11
REMARK    7  A    between atoms: C_11  and  C_12
REMARK    8  A    between atoms: C_12  and  C_13
REMARK    9  A    between atoms: C_13  and  C_14
REMARK   10  A    between atoms: C_14  and  C_15
REMARK   11  A    between atoms: C_15  and  C_16
REMARK   12  A    between atoms: C_16  and  C_17
REMARK   13  A    between atoms: C_17  and  C_18
REMARK   14  A    between atoms: C_18  and  C_19
REMARK   15  A    between atoms: C_19  and  C_20
REMARK                            x       y       z     vdW  Elec       q    Type
REMARK                         _______ _______ _______ _____ _____    ______ ____
ROOT
ATOM      1  C   UNL     1       4.062   5.210  17.104  0.00  0.00    +0.000 C 
ENDROOT
BRANCH   1   2
ATOM      2  C   UNL     1       3.463   3.912  17.670  0.00  0.00    +0.000 C 
BRANCH   2   6
ATOM      3  C   UNL     1       0.606   2.155  18.867  0.00  0.00    +0.000 C 
ATOM      4  C   UNL     1       1.279   3.277  18.859  0.00  0.00    +0.000 C 
ATOM      5  C   UNL     1       1.603   4.441  19.596  0.00  0.00    +0.000 C 
ATOM      6  C   UNL     1       2.065   4.176  18.104  0.00  0.00    +0.000 C 
BRANCH   5   7
ATOM      7  C   UNL     1       2.486   4.382  20.812  0.00  0.00    +0.000 C 
BRANCH   7   8
ATOM      8  C   UNL     1       2.346   3.057  21.534  0.00  0.00    +0.000 C 
ATOM      9  O   UNL     1       1.343   2.692  22.158  0.00  0.00    +0.000 OA
BRANCH   8  10
ATOM     10  O   UNL     1       3.438   2.270  21.454  0.00  0.00    +0.000 OA
ATOM     11  H   UNL     1       3.476   1.565  22.132  0.00  0.00    +0.000 HD
ENDBRANCH   8  10
ENDBRANCH   7   8
ENDBRANCH   5   7
ENDBRANCH   2   6
ENDBRANCH   1   2
BRANCH   1  12
ATOM     12  C   UNL     1       5.098   5.852  18.020  0.00  0.00    +0.000 C 
BRANCH  12  13
ATOM     13  C   UNL     1       6.176   4.848  18.412  0.00  0.00    +0.000 C 
BRANCH  13  14
ATOM     14  C   UNL     1       7.178   4.667  17.280  0.00  0.00    +0.000 C 
BRANCH  14  15
ATOM     15  C   UNL     1       6.797   5.513  16.080  0.00  0.00    +0.000 C 
BRANCH  15  16
ATOM     16  C   UNL     1       7.300   4.860  14.801  0.00  0.00    +0.000 C 
BRANCH  16  17
ATOM     17  C   UNL     1       6.188   4.057  14.143  0.00  0.00    +0.000 C 
BRANCH  17  18
ATOM     18  C   UNL     1       6.467   3.885  12.656  0.00  0.00    +0.000 C 
BRANCH  18  19
ATOM     19  C   UNL     1       5.312   3.162  11.978  0.00  0.00    +0.000 C 
BRANCH  19  20
ATOM     20  C   UNL     1       5.741   1.776  11.511  0.00  0.00    +0.000 C 
ATOM     21  C   UNL     1       7.184   1.794  11.043  0.00  0.00    +0.000 C 
ENDBRANCH  19  20
ENDBRANCH  18  19
ENDBRANCH  17  18
ENDBRANCH  16  17
ENDBRANCH  15  16
ENDBRANCH  14  15
ENDBRANCH  13  14
ENDBRANCH  12  13
ENDBRANCH   1  12
TORSDOF 14
ENDMDL
MODEL 8
REMARK VINA RESULT:      -5.6      3.390      6.534
REMARK  Name = 
REMARK  15 active torsions:
REMARK  status: ('A' for Active; 'I' for Inactive)
REMARK    1  A    between atoms: C_3  and  C_4
REMARK    2  A    between atoms: C_4  and  C_5
REMARK    3  A    between atoms: C_5  and  O_7
REMARK    4  A    between atoms: C_8  and  C_9
REMARK    5  A    between atoms: C_9  and  C_10
REMARK    6  A    between atoms: C_10  and  C_11
REMARK    7  A    between atoms: C_11  and  C_12
REMARK    8  A    between atoms: C_12  and  C_13
REMARK    9  A    between atoms: C_13  and  C_14
REMARK   10  A    between atoms: C_14  and  C_15
REMARK   11  A    between atoms: C_15  and  C_16
REMARK   12  A    between atoms: C_16  and  C_17
REMARK   13  A    between atoms: C_17  and  C_18
REMARK   14  A    between atoms: C_18  and  C_19
REMARK   15  A    between atoms: C_19  and  C_20
REMARK                            x       y       z     vdW  Elec       q    Type
REMARK                         _______ _______ _______ _____ _____    ______ ____
ROOT
ATOM      1  C   UNL     1       2.519   7.001  18.133  0.00  0.00    +0.000 C 
ENDROOT
BRANCH   1   2
ATOM      2  C   UNL     1       3.713   6.105  17.769  0.00  0.00    +0.000 C 
BRANCH   2   6
ATOM      3  C   UNL     1       7.187   6.848  17.501  0.00  0.00    +0.000 C 
ATOM      4  C   UNL     1       6.047   6.687  16.876  0.00  0.00    +0.000 C 
ATOM      5  C   UNL     1       5.437   6.294  15.662  0.00  0.00    +0.000 C 
ATOM      6  C   UNL     1       4.648   6.875  16.906  0.00  0.00    +0.000 C 
BRANCH   5   7
ATOM      7  C   UNL     1       5.432   4.859  15.211  0.00  0.00    +0.000 C 
BRANCH   7   8
ATOM      8  C   UNL     1       6.588   4.569  14.274  0.00  0.00    +0.000 C 
ATOM      9  O   UNL     1       7.585   5.286  14.136  0.00  0.00    +0.000 OA
BRANCH   8  10
ATOM     10  O   UNL     1       6.447   3.432  13.564  0.00  0.00    +0.000 OA
ATOM     11  H   UNL     1       7.228   2.845  13.587  0.00  0.00    +0.000 HD
ENDBRANCH   8  10
ENDBRANCH   7   8
ENDBRANCH   5   7
ENDBRANCH   2   6
ENDBRANCH   1   2
BRANCH   1  12
ATOM     12  C   UNL     1       2.294   7.134  19.636  0.00  0.00    +0.000 C 
BRANCH  12  13
ATOM     13  C   UNL     1       2.455   5.788  20.332  0.00  0.00    +0.000 C 
BRANCH  13  14
ATOM     14  C   UNL     1       1.096   5.203  20.688  0.00  0.00    +0.000 C 
BRANCH  14  15
ATOM     15  C   UNL     1       0.912   3.836  20.056  0.00  0.00    +0.000 C 
BRANCH  15  16
ATOM     16  C   UNL     1       1.117   2.748  21.099  0.00  0.00    +0.000 C 
BRANCH  16  17
ATOM     17  C   UNL     1       2.482   2.891  21.756  0.00  0.00    +0.000 C 
BRANCH  17  18
ATOM     18  C   UNL     1       3.475   1.921  21.132  0.00  0.00    +0.000 C 
BRANCH  18  19
ATOM     19  C   UNL     1       4.040   2.496  19.840  0.00  0.00    +0.000 C 
BRANCH  19  20
ATOM     20  C   UNL     1       3.528   1.719  18.633  0.00  0.00    +0.000 C 
ATOM     21  C   UNL     1       3.311   2.648  17.453  0.00  0.00    +0.000 C 
ENDBRANCH  19  20
ENDBRANCH  18  19
ENDBRANCH  17  18
ENDBRANCH  16  17
ENDBRANCH  15  16
ENDBRANCH  14  15
ENDBRANCH  13  14
ENDBRANCH  12  13
ENDBRANCH   1  12
TORSDOF 14
ENDMDL
MODEL 9
REMARK VINA RESULT:      -5.6      2.579      6.068
REMARK  Name = 
REMARK  15 active torsions:
REMARK  status: ('A' for Active; 'I' for Inactive)
REMARK    1  A    between atoms: C_3  and  C_4
REMARK    2  A    between atoms: C_4  and  C_5
REMARK    3  A    between atoms: C_5  and  O_7
REMARK    4  A    between atoms: C_8  and  C_9
REMARK    5  A    between atoms: C_9  and  C_10
REMARK    6  A    between atoms: C_10  and  C_11
REMARK    7  A    between atoms: C_11  and  C_12
REMARK    8  A    between atoms: C_12  and  C_13
REMARK    9  A    between atoms: C_13  and  C_14
REMARK   10  A    between atoms: C_14  and  C_15
REMARK   11  A    between atoms: C_15  and  C_16
REMARK   12  A    between atoms: C_16  and  C_17
REMARK   13  A    between atoms: C_17  and  C_18
REMARK   14  A    between atoms: C_18  and  C_19
REMARK   15  A    between atoms: C_19  and  C_20
REMARK                            x       y       z     vdW  Elec       q    Type
REMARK                         _______ _______ _______ _____ _____    ______ ____
ROOT
ATOM      1  C   UNL     1       4.188   2.939  17.834  0.00  0.00    +0.000 C 
ENDROOT
BRANCH   1   2
ATOM      2  C   UNL     1       4.460   3.861  16.634  0.00  0.00    +0.000 C 
BRANCH   2   6
ATOM      3  C   UNL     1       6.376   4.344  13.671  0.00  0.00    +0.000 C 
ATOM      4  C   UNL     1       6.385   4.201  14.972  0.00  0.00    +0.000 C 
ATOM      5  C   UNL     1       7.066   4.525  16.169  0.00  0.00    +0.000 C 
ATOM      6  C   UNL     1       5.812   3.560  16.092  0.00  0.00    +0.000 C 
BRANCH   5   7
ATOM      7  C   UNL     1       7.065   5.924  16.722  0.00  0.00    +0.000 C 
BRANCH   7   8
ATOM      8  C   UNL     1       7.661   5.970  18.114  0.00  0.00    +0.000 C 
ATOM      9  O   UNL     1       7.759   5.000  18.875  0.00  0.00    +0.000 OA
BRANCH   8  10
ATOM     10  O   UNL     1       8.090   7.191  18.488  0.00  0.00    +0.000 OA
ATOM     11  H   UNL     1       7.645   7.548  19.282  0.00  0.00    +0.000 HD
ENDBRANCH   8  10
ENDBRANCH   7   8
ENDBRANCH   5   7
ENDBRANCH   2   6
ENDBRANCH   1   2
BRANCH   1  12
ATOM     12  C   UNL     1       4.838   3.418  19.128  0.00  0.00    +0.000 C 
BRANCH  12  13
ATOM     13  C   UNL     1       3.985   3.047  20.335  0.00  0.00    +0.000 C 
BRANCH  13  14
ATOM     14  C   UNL     1       2.764   2.246  19.904  0.00  0.00    +0.000 C 
BRANCH  14  15
ATOM     15  C   UNL     1       1.534   2.673  20.681  0.00  0.00    +0.000 C 
BRANCH  15  16
ATOM     16  C   UNL     1       0.869   3.858  19.997  0.00  0.00    +0.000 C 
BRANCH  16  17
ATOM     17  C   UNL     1       0.949   3.712  18.485  0.00  0.00    +0.000 C 
BRANCH  17  18
ATOM     18  C   UNL     1       1.381   5.025  17.848  0.00  0.00    +0.000 C 
BRANCH  18  19
ATOM     19  C   UNL     1       2.125   5.888  18.857  0.00  0.00    +0.000 C 
BRANCH  19  20
ATOM     20  C   UNL     1       2.467   7.246  18.259  0.00  0.00    +0.000 C 
ATOM     21  C   UNL     1       3.833   7.210  17.598  0.00  0.00    +0.000 C 
ENDBRANCH  19  20
ENDBRANCH  18  19
ENDBRANCH  17  18
ENDBRANCH  16  17
ENDBRANCH  15  16
ENDBRANCH  14  15
ENDBRANCH  13  14
ENDBRANCH  12  13
ENDBRANCH   1  12
TORSDOF 14
ENDMDL
