MODEL 1
REMARK VINA RESULT:      -5.6      0.000      0.000
REMARK  Name = 
REMARK  4 active torsions:
REMARK  status: ('A' for Active; 'I' for Inactive)
REMARK    1  A    between atoms: C_1  and  C_2
REMARK    2  A    between atoms: C_2  and  O_3
REMARK    3  A    between atoms: O_3  and  C_4
REMARK    4  A    between atoms: C_10  and  N_11
REMARK                            x       y       z     vdW  Elec       q    Type
REMARK                         _______ _______ _______ _____ _____    ______ ____
ROOT
ATOM      1  C   UNL     1       3.725   2.802  18.342  0.00  0.00    +0.000 C 
ATOM      2  C   UNL     1       2.335   2.836  17.637  0.00  0.00    +0.000 C 
ATOM      3  C   UNL     1       1.751   4.237  17.629  0.00  0.00    +0.000 C 
ATOM      4  C   UNL     1       1.425   4.548  18.891  0.00  0.00    +0.000 C 
ATOM      5  C   UNL     1       1.824   3.370  19.752  0.00  0.00    +0.000 C 
ATOM      6  C   UNL     1       1.461   2.255  18.758  0.00  0.00    +0.000 C 
ATOM      7  C   UNL     1       3.367   3.340  19.755  0.00  0.00    +0.000 C 
ENDROOT
BRANCH   7   8
ATOM      8  N   UNL     1       3.826   2.412  20.839  0.00  0.00    +0.000 N 
ATOM      9  O   UNL     1       4.905   1.836  20.643  0.00  0.00    +0.000 OA
ATOM     10  O   UNL     1       3.135   2.288  21.857  0.00  0.00    +0.000 OA
ENDBRANCH   7   8
BRANCH   1  11
ATOM     11  O   UNL     1       4.705   3.579  17.645  0.00  0.00    +0.000 OA
BRANCH  11  13
ATOM     12  C   UNL     1       5.078   5.956  17.766  0.00  0.00    +0.000 C 
ATOM     13  C   UNL     1       5.253   4.621  18.462  0.00  0.00    +0.000 C 
ENDBRANCH  11  13
ENDBRANCH   1  11
TORSDOF 3
ENDMDL
MODEL 2
REMARK VINA RESULT:      -5.6      1.637      2.140
REMARK  Name = 
REMARK  4 active torsions:
REMARK  status: ('A' for Active; 'I' for Inactive)
REMARK    1  A    between atoms: C_1  and  C_2
REMARK    2  A    between atoms: C_2  and  O_3
REMARK    3  A    between atoms: O_3  and  C_4
REMARK    4  A    between atoms: C_10  and  N_11
REMARK                            x       y       z     vdW  Elec       q    Type
REMARK                         _______ _______ _______ _____ _____    ______ ____
ROOT
ATOM      1  C   UNL     1       2.150   3.194  18.658  0.00  0.00    +0.000 C 
ATOM      2  C   UNL     1       0.959   3.487  19.622  0.00  0.00    +0.000 C 
ATOM      3  C   UNL     1       1.163   4.788  20.377  0.00  0.00    +0.000 C 
ATOM      4  C   UNL     1       2.172   4.603  21.238  0.00  0.00    +0.000 C 
ATOM      5  C   UNL     1       2.670   3.189  21.036  0.00  0.00    +0.000 C 
ATOM      6  C   UNL     1       1.310   2.526  20.768  0.00  0.00    +0.000 C 
ATOM      7  C   UNL     1       3.346   3.163  19.649  0.00  0.00    +0.000 C 
ENDROOT
BRANCH   7   8
ATOM      8  N   UNL     1       4.141   1.898  19.526  0.00  0.00    +0.000 N 
ATOM      9  O   UNL     1       5.029   1.729  20.372  0.00  0.00    +0.000 OA
ATOM     10  O   UNL     1       3.862   1.097  18.626  0.00  0.00    +0.000 OA
ENDBRANCH   7   8
BRANCH   1  11
ATOM     11  O   UNL     1       2.264   4.178  17.625  0.00  0.00    +0.000 OA
BRANCH  11  13
ATOM     12  C   UNL     1       4.403   4.182  16.518  0.00  0.00    +0.000 C 
ATOM     13  C   UNL     1       3.554   4.802  17.610  0.00  0.00    +0.000 C 
ENDBRANCH  11  13
ENDBRANCH   1  11
TORSDOF 3
ENDMDL
MODEL 3
REMARK VINA RESULT:      -5.5      1.081      1.224
REMARK  Name = 
REMARK  4 active torsions:
REMARK  status: ('A' for Active; 'I' for Inactive)
REMARK    1  A    between atoms: C_1  and  C_2
REMARK    2  A    between atoms: C_2  and  O_3
REMARK    3  A    between atoms: O_3  and  C_4
REMARK    4  A    between atoms: C_10  and  N_11
REMARK                            x       y       z     vdW  Elec       q    Type
REMARK                         _______ _______ _______ _____ _____    ______ ____
ROOT
ATOM      1  C   UNL     1       3.366   2.449  19.192  0.00  0.00    +0.000 C 
ATOM      2  C   UNL     1       2.408   2.411  17.962  0.00  0.00    +0.000 C 
ATOM      3  C   UNL     1       2.141   3.806  17.424  0.00  0.00    +0.000 C 
ATOM      4  C   UNL     1       1.397   4.454  18.330  0.00  0.00    +0.000 C 
ATOM      5  C   UNL     1       1.195   3.508  19.493  0.00  0.00    +0.000 C 
ATOM      6  C   UNL     1       1.067   2.208  18.683  0.00  0.00    +0.000 C 
ATOM      7  C   UNL     1       2.573   3.358  20.172  0.00  0.00    +0.000 C 
ENDROOT
BRANCH   7   8
ATOM      8  N   UNL     1       2.380   2.705  21.507  0.00  0.00    +0.000 N 
ATOM      9  O   UNL     1       3.358   2.096  21.962  0.00  0.00    +0.000 OA
ATOM     10  O   UNL     1       1.292   2.823  22.083  0.00  0.00    +0.000 OA
ENDBRANCH   7   8
BRANCH   1  11
ATOM     11  O   UNL     1       4.666   2.942  18.851  0.00  0.00    +0.000 OA
BRANCH  11  13
ATOM     12  C   UNL     1       5.931   4.975  18.599  0.00  0.00    +0.000 C 
ATOM     13  C   UNL     1       4.942   4.211  19.456  0.00  0.00    +0.000 C 
ENDBRANCH  11  13
ENDBRANCH   1  11
TORSDOF 3
ENDMDL
MODEL 4
REMARK VINA RESULT:      -5.5      2.006      3.516
REMARK  Name = 
REMARK  4 active torsions:
REMARK  status: ('A' for Active; 'I' for Inactive)
REMARK    1  A    between atoms: C_1  and  C_2
REMARK    2  A    between atoms: C_2  and  O_3
REMARK    3  A    between atoms: O_3  and  C_4
REMARK    4  A    between atoms: C_10  and  N_11
REMARK                            x       y       z     vdW  Elec       q    Type
REMARK                         _______ _______ _______ _____ _____    ______ ____
ROOT
ATOM      1  C   UNL     1       2.468   4.572  19.080  0.00  0.00    +0.000 C 
ATOM      2  C   UNL     1       1.884   3.786  17.867  0.00  0.00    +0.000 C 
ATOM      3  C   UNL     1       1.755   2.305  18.175  0.00  0.00    +0.000 C 
ATOM      4  C   UNL     1       2.993   1.799  18.258  0.00  0.00    +0.000 C 
ATOM      5  C   UNL     1       3.954   2.947  18.042  0.00  0.00    +0.000 C 
ATOM      6  C   UNL     1       3.137   3.704  16.982  0.00  0.00    +0.000 C 
ATOM      7  C   UNL     1       3.831   3.853  19.285  0.00  0.00    +0.000 C 
ENDROOT
BRANCH   7   8
ATOM      8  N   UNL     1       4.977   4.819  19.289  0.00  0.00    +0.000 N 
ATOM      9  O   UNL     1       4.678   6.020  19.242  0.00  0.00    +0.000 OA
ATOM     10  O   UNL     1       6.132   4.382  19.360  0.00  0.00    +0.000 OA
ENDBRANCH   7   8
BRANCH   1  11
ATOM     11  O   UNL     1       1.603   4.531  20.219  0.00  0.00    +0.000 OA
BRANCH  11  13
ATOM     12  C   UNL     1       1.472   2.679  21.752  0.00  0.00    +0.000 C 
ATOM     13  C   UNL     1       2.231   3.930  21.358  0.00  0.00    +0.000 C 
ENDBRANCH  11  13
ENDBRANCH   1  11
TORSDOF 3
ENDMDL
MODEL 5
REMARK VINA RESULT:      -5.5      2.963      3.606
REMARK  Name = 
REMARK  4 active torsions:
REMARK  status: ('A' for Active; 'I' for Inactive)
REMARK    1  A    between atoms: C_1  and  C_2
REMARK    2  A    between atoms: C_2  and  O_3
REMARK    3  A    between atoms: O_3  and  C_4
REMARK    4  A    between atoms: C_10  and  N_11
REMARK                            x       y       z     vdW  Elec       q    Type
REMARK                         _______ _______ _______ _____ _____    ______ ____
ROOT
ATOM      1  C   UNL     1       5.420   4.654  17.052  0.00  0.00    +0.000 C 
ATOM      2  C   UNL     1       4.028   4.067  17.438  0.00  0.00    +0.000 C 
ATOM      3  C   UNL     1       3.029   5.167  17.750  0.00  0.00    +0.000 C 
ATOM      4  C   UNL     1       3.409   5.747  18.896  0.00  0.00    +0.000 C 
ATOM      5  C   UNL     1       4.683   5.060  19.336  0.00  0.00    +0.000 C 
ATOM      6  C   UNL     1       4.319   3.637  18.883  0.00  0.00    +0.000 C 
ATOM      7  C   UNL     1       5.770   5.477  18.323  0.00  0.00    +0.000 C 
ENDROOT
BRANCH   7   8
ATOM      8  N   UNL     1       7.112   5.103  18.879  0.00  0.00    +0.000 N 
ATOM      9  O   UNL     1       7.852   4.456  18.126  0.00  0.00    +0.000 OA
ATOM     10  O   UNL     1       7.412   5.470  20.021  0.00  0.00    +0.000 OA
ENDBRANCH   7   8
BRANCH   1  11
ATOM     11  O   UNL     1       5.368   5.424  15.846  0.00  0.00    +0.000 OA
BRANCH  11  13
ATOM     12  C   UNL     1       6.077   3.900  14.121  0.00  0.00    +0.000 C 
ATOM     13  C   UNL     1       6.446   5.110  14.955  0.00  0.00    +0.000 C 
ENDBRANCH  11  13
ENDBRANCH   1  11
TORSDOF 3
ENDMDL
MODEL 6
REMARK VINA RESULT:      -5.5      1.720      2.319
REMARK  Name = 
REMARK  4 active torsions:
REMARK  status: ('A' for Active; 'I' for Inactive)
REMARK    1  A    between atoms: C_1  and  C_2
REMARK    2  A    between atoms: C_2  and  O_3
REMARK    3  A    between atoms: O_3  and  C_4
REMARK    4  A    between atoms: C_10  and  N_11
REMARK                            x       y       z     vdW  Elec       q    Type
REMARK                         _______ _______ _______ _____ _____    ______ ____
ROOT
ATOM      1  C   UNL     1       2.680   4.095  18.548  0.00  0.00    +0.000 C 
ATOM      2  C   UNL     1       1.335   3.325  18.720  0.00  0.00    +0.000 C 
ATOM      3  C   UNL     1       0.592   3.775  19.965  0.00  0.00    +0.000 C 
ATOM      4  C   UNL     1       1.288   3.350  21.028  0.00  0.00    +0.000 C 
ATOM      5  C   UNL     1       2.517   2.646  20.497  0.00  0.00    +0.000 C 
ATOM      6  C   UNL     1       1.867   1.992  19.267  0.00  0.00    +0.000 C 
ATOM      7  C   UNL     1       3.408   3.742  19.875  0.00  0.00    +0.000 C 
ENDROOT
BRANCH   7   8
ATOM      8  N   UNL     1       4.771   3.168  19.629  0.00  0.00    +0.000 N 
ATOM      9  O   UNL     1       5.502   3.811  18.863  0.00  0.00    +0.000 OA
ATOM     10  O   UNL     1       5.097   2.123  20.204  0.00  0.00    +0.000 OA
ENDBRANCH   7   8
BRANCH   1  11
ATOM     11  O   UNL     1       2.478   5.497  18.341  0.00  0.00    +0.000 OA
BRANCH  11  13
ATOM     12  C   UNL     1       2.108   7.310  19.882  0.00  0.00    +0.000 C 
ATOM     13  C   UNL     1       3.100   6.291  19.359  0.00  0.00    +0.000 C 
ENDBRANCH  11  13
ENDBRANCH   1  11
TORSDOF 3
ENDMDL
MODEL 7
REMARK VINA RESULT:      -5.4      2.757      4.812
REMARK  Name = 
REMARK  4 active torsions:
REMARK  status: ('A' for Active; 'I' for Inactive)
REMARK    1  A    between atoms: C_1  and  C_2
REMARK    2  A    between atoms: C_2  and  O_3
REMARK    3  A    between atoms: O_3  and  C_4
REMARK    4  A    between atoms: C_10  and  N_11
REMARK                            x       y       z     vdW  Elec       q    Type
REMARK                         _______ _______ _______ _____ _____    ______ ____
ROOT
ATOM      1  C   UNL     1       5.317   4.752  18.125  0.00  0.00    +0.000 C 
ATOM      2  C   UNL     1       4.763   5.169  16.728  0.00  0.00    +0.000 C 
ATOM      3  C   UNL     1       5.320   4.288  15.624  0.00  0.00    +0.000 C 
ATOM      4  C   UNL     1       6.623   4.571  15.497  0.00  0.00    +0.000 C 
ATOM      5  C   UNL     1       6.950   5.617  16.540  0.00  0.00    +0.000 C 
ATOM      6  C   UNL     1       5.633   6.406  16.462  0.00  0.00    +0.000 C 
ATOM      7  C   UNL     1       6.847   4.910  17.909  0.00  0.00    +0.000 C 
ENDROOT
BRANCH   7   8
ATOM      8  N   UNL     1       7.471   5.789  18.950  0.00  0.00    +0.000 N 
ATOM      9  O   UNL     1       7.354   5.411  20.123  0.00  0.00    +0.000 OA
ATOM     10  O   UNL     1       8.075   6.808  18.594  0.00  0.00    +0.000 OA
ENDBRANCH   7   8
BRANCH   1  11
ATOM     11  O   UNL     1       4.906   3.433  18.498  0.00  0.00    +0.000 OA
BRANCH  11  13
ATOM     12  C   UNL     1       2.974   2.107  17.941  0.00  0.00    +0.000 C 
ATOM     13  C   UNL     1       3.487   3.334  18.668  0.00  0.00    +0.000 C 
ENDBRANCH  11  13
ENDBRANCH   1  11
TORSDOF 3
ENDMDL
MODEL 8
REMARK VINA RESULT:      -5.4      1.148      1.587
REMARK  Name = 
REMARK  4 active torsions:
REMARK  status: ('A' for Active; 'I' for Inactive)
REMARK    1  A    between atoms: C_1  and  C_2
REMARK    2  A    between atoms: C_2  and  O_3
REMARK    3  A    between atoms: O_3  and  C_4
REMARK    4  A    between atoms: C_10  and  N_11
REMARK                            x       y       z     vdW  Elec       q    Type
REMARK                         _______ _______ _______ _____ _____    ______ ____
ROOT
ATOM      1  C   UNL     1       3.930   3.667  19.498  0.00  0.00    +0.000 C 
ATOM      2  C   UNL     1       3.594   3.221  18.042  0.00  0.00    +0.000 C 
ATOM      3  C   UNL     1       2.537   4.114  17.418  0.00  0.00    +0.000 C 
ATOM      4  C   UNL     1       1.380   3.876  18.050  0.00  0.00    +0.000 C 
ATOM      5  C   UNL     1       1.668   2.850  19.124  0.00  0.00    +0.000 C 
ATOM      6  C   UNL     1       2.693   2.014  18.342  0.00  0.00    +0.000 C 
ATOM      7  C   UNL     1       2.538   3.563  20.181  0.00  0.00    +0.000 C 
ENDROOT
BRANCH   7   8
ATOM      8  N   UNL     1       2.583   2.714  21.416  0.00  0.00    +0.000 N 
ATOM      9  O   UNL     1       1.541   2.667  22.083  0.00  0.00    +0.000 OA
ATOM     10  O   UNL     1       3.623   2.101  21.687  0.00  0.00    +0.000 OA
ENDBRANCH   7   8
BRANCH   1  11
ATOM     11  O   UNL     1       4.513   4.974  19.543  0.00  0.00    +0.000 OA
BRANCH  11  13
ATOM     12  C   UNL     1       5.948   6.059  17.942  0.00  0.00    +0.000 C 
ATOM     13  C   UNL     1       5.844   4.993  19.014  0.00  0.00    +0.000 C 
ENDBRANCH  11  13
ENDBRANCH   1  11
TORSDOF 3
ENDMDL
MODEL 9
REMARK VINA RESULT:      -5.4      0.512      1.064
REMARK  Name = 
REMARK  4 active torsions:
REMARK  status: ('A' for Active; 'I' for Inactive)
REMARK    1  A    between atoms: C_1  and  C_2
REMARK    2  A    between atoms: C_2  and  O_3
REMARK    3  A    between atoms: O_3  and  C_4
REMARK    4  A    between atoms: C_10  and  N_11
REMARK                            x       y       z     vdW  Elec       q    Type
REMARK                         _______ _______ _______ _____ _____    ______ ____
ROOT
ATOM      1  C   UNL     1       3.801   2.815  18.221  0.00  0.00    +0.000 C 
ATOM      2  C   UNL     1       2.384   2.879  17.574  0.00  0.00    +0.000 C 
ATOM      3  C   UNL     1       1.821   4.288  17.610  0.00  0.00    +0.000 C 
ATOM      4  C   UNL     1       1.551   4.585  18.888  0.00  0.00    +0.000 C 
ATOM      5  C   UNL     1       1.967   3.389  19.715  0.00  0.00    +0.000 C 
ATOM      6  C   UNL     1       1.548   2.293  18.721  0.00  0.00    +0.000 C 
ATOM      7  C   UNL     1       3.509   3.337  19.655  0.00  0.00    +0.000 C 
ENDROOT
BRANCH   7   8
ATOM      8  N   UNL     1       3.997   2.386  20.707  0.00  0.00    +0.000 N 
ATOM      9  O   UNL     1       3.289   2.282  21.718  0.00  0.00    +0.000 OA
ATOM     10  O   UNL     1       5.041   1.753  20.508  0.00  0.00    +0.000 OA
ENDBRANCH   7   8
BRANCH   1  11
ATOM     11  O   UNL     1       4.763   3.588  17.496  0.00  0.00    +0.000 OA
BRANCH  11  13
ATOM     12  C   UNL     1       6.870   4.714  17.805  0.00  0.00    +0.000 C 
ATOM     13  C   UNL     1       5.467   4.509  18.340  0.00  0.00    +0.000 C 
ENDBRANCH  11  13
ENDBRANCH   1  11
TORSDOF 3
ENDMDL
