MODEL 1
REMARK VINA RESULT:      -7.2      0.000      0.000
REMARK  Name = 
REMARK  5 active torsions:
REMARK  status: ('A' for Active; 'I' for Inactive)
REMARK    1  A    between atoms: N_4  and  O_5
REMARK    2  A    between atoms: N_4  and  C_6
REMARK    3  A    between atoms: C_6  and  C_7
REMARK    4  A    between atoms: C_10  and  O_11
REMARK    5  A    between atoms: O_11  and  C_12
REMARK                            x       y       z     vdW  Elec       q    Type
REMARK                         _______ _______ _______ _____ _____    ______ ____
ROOT
ATOM      1  C   UNL     1       5.445   5.985  17.027  0.00  0.00    +0.000 A 
ATOM      2  C   UNL     1       4.876   7.201  17.342  0.00  0.00    +0.000 A 
ATOM      3  C   UNL     1       3.506   7.072  17.713  0.00  0.00    +0.000 A 
ATOM      4  C   UNL     1       3.071   5.757  17.731  0.00  0.00    +0.000 A 
ATOM      5  S   UNL     1       4.294   4.718  17.134  0.00  0.00    +0.000 S 
ENDROOT
BRANCH   1   6
ATOM      6  C   UNL     1       6.867   5.665  16.677  0.00  0.00    +0.000 C 
BRANCH   6  10
ATOM      7  N   UNL     1       7.971   5.587  20.054  0.00  0.00    +0.000 N 
ATOM      8  C   UNL     1       7.961   6.079  18.782  0.00  0.00    +0.000 C 
ATOM      9  O   UNL     1       8.224   7.255  18.561  0.00  0.00    +0.000 OA
ATOM     10  N   UNL     1       7.622   5.144  17.812  0.00  0.00    +0.000 N 
ATOM     11  H   UNL     1       8.005   6.299  20.770  0.00  0.00    +0.000 HD
ATOM     12  H   UNL     1       7.300   4.842  20.195  0.00  0.00    +0.000 HD
BRANCH  10  13
ATOM     13  O   UNL     1       7.039   3.960  18.357  0.00  0.00    +0.000 OA
ATOM     14  H   UNL     1       6.211   3.928  17.840  0.00  0.00    +0.000 HD
ENDBRANCH  10  13
ENDBRANCH   6  10
ENDBRANCH   1   6
BRANCH   4  15
ATOM     15  O   UNL     1       1.896   5.232  18.100  0.00  0.00    +0.000 OA
BRANCH  15  16
ATOM     16  C   UNL     1       1.786   4.415  19.205  0.00  0.00    +0.000 A 
ATOM     17  C   UNL     1       1.214   3.158  19.000  0.00  0.00    +0.000 A 
ATOM     18  C   UNL     1       1.087   2.269  20.069  0.00  0.00    +0.000 A 
ATOM     19  C   UNL     1       1.535   2.633  21.339  0.00  0.00    +0.000 A 
ATOM     20  C   UNL     1       2.133   3.875  21.538  0.00  0.00    +0.000 A 
ATOM     21  C   UNL     1       2.275   4.759  20.466  0.00  0.00    +0.000 A 
ENDBRANCH  15  16
ENDBRANCH   4  15
TORSDOF 5
ENDMDL
MODEL 2
REMARK VINA RESULT:      -7.2      0.066      1.140
REMARK  Name = 
REMARK  5 active torsions:
REMARK  status: ('A' for Active; 'I' for Inactive)
REMARK    1  A    between atoms: N_4  and  O_5
REMARK    2  A    between atoms: N_4  and  C_6
REMARK    3  A    between atoms: C_6  and  C_7
REMARK    4  A    between atoms: C_10  and  O_11
REMARK    5  A    between atoms: O_11  and  C_12
REMARK                            x       y       z     vdW  Elec       q    Type
REMARK                         _______ _______ _______ _____ _____    ______ ____
ROOT
ATOM      1  C   UNL     1       5.448   6.007  17.054  0.00  0.00    +0.000 A 
ATOM      2  C   UNL     1       4.891   7.220  17.400  0.00  0.00    +0.000 A 
ATOM      3  C   UNL     1       3.518   7.096  17.762  0.00  0.00    +0.000 A 
ATOM      4  C   UNL     1       3.069   5.786  17.743  0.00  0.00    +0.000 A 
ATOM      5  S   UNL     1       4.283   4.750  17.122  0.00  0.00    +0.000 S 
ENDROOT
BRANCH   1   6
ATOM      6  C   UNL     1       6.868   5.681  16.702  0.00  0.00    +0.000 C 
BRANCH   6  10
ATOM      7  N   UNL     1       7.980   5.581  20.075  0.00  0.00    +0.000 N 
ATOM      8  C   UNL     1       7.972   6.077  18.805  0.00  0.00    +0.000 C 
ATOM      9  O   UNL     1       8.246   7.251  18.587  0.00  0.00    +0.000 OA
ATOM     10  N   UNL     1       7.620   5.148  17.833  0.00  0.00    +0.000 N 
ATOM     11  H   UNL     1       8.023   6.291  20.794  0.00  0.00    +0.000 HD
ATOM     12  H   UNL     1       7.302   4.842  20.215  0.00  0.00    +0.000 HD
BRANCH  10  13
ATOM     13  O   UNL     1       7.027   3.969  18.376  0.00  0.00    +0.000 OA
ATOM     14  H   UNL     1       7.321   4.046  19.304  0.00  0.00    +0.000 HD
ENDBRANCH  10  13
ENDBRANCH   6  10
ENDBRANCH   1   6
BRANCH   4  15
ATOM     15  O   UNL     1       1.887   5.264  18.092  0.00  0.00    +0.000 OA
BRANCH  15  16
ATOM     16  C   UNL     1       1.777   4.347  19.116  0.00  0.00    +0.000 A 
ATOM     17  C   UNL     1       2.174   4.774  20.384  0.00  0.00    +0.000 A 
ATOM     18  C   UNL     1       2.074   3.907  21.474  0.00  0.00    +0.000 A 
ATOM     19  C   UNL     1       1.573   2.617  21.297  0.00  0.00    +0.000 A 
ATOM     20  C   UNL     1       1.147   2.200  20.037  0.00  0.00    +0.000 A 
ATOM     21  C   UNL     1       1.232   3.072  18.950  0.00  0.00    +0.000 A 
ENDBRANCH  15  16
ENDBRANCH   4  15
TORSDOF 5
ENDMDL
MODEL 3
REMARK VINA RESULT:      -7.0      2.641      3.355
REMARK  Name = 
REMARK  5 active torsions:
REMARK  status: ('A' for Active; 'I' for Inactive)
REMARK    1  A    between atoms: N_4  and  O_5
REMARK    2  A    between atoms: N_4  and  C_6
REMARK    3  A    between atoms: C_6  and  C_7
REMARK    4  A    between atoms: C_10  and  O_11
REMARK    5  A    between atoms: O_11  and  C_12
REMARK                            x       y       z     vdW  Elec       q    Type
REMARK                         _______ _______ _______ _____ _____    ______ ____
ROOT
ATOM      1  C   UNL     1       6.564   5.294  16.921  0.00  0.00    +0.000 A 
ATOM      2  C   UNL     1       6.912   4.915  18.201  0.00  0.00    +0.000 A 
ATOM      3  C   UNL     1       5.874   5.182  19.140  0.00  0.00    +0.000 A 
ATOM      4  C   UNL     1       4.734   5.705  18.553  0.00  0.00    +0.000 A 
ATOM      5  S   UNL     1       5.010   6.017  16.892  0.00  0.00    +0.000 S 
ENDROOT
BRANCH   1   6
ATOM      6  C   UNL     1       7.319   5.111  15.640  0.00  0.00    +0.000 C 
BRANCH   6  10
ATOM      7  N   UNL     1       6.754   3.474  12.537  0.00  0.00    +0.000 N 
ATOM      8  C   UNL     1       7.054   4.555  13.311  0.00  0.00    +0.000 C 
ATOM      9  O   UNL     1       7.761   5.459  12.883  0.00  0.00    +0.000 OA
ATOM     10  N   UNL     1       6.505   4.512  14.588  0.00  0.00    +0.000 N 
ATOM     11  H   UNL     1       7.317   3.398  11.701  0.00  0.00    +0.000 HD
ATOM     12  H   UNL     1       6.633   2.624  13.074  0.00  0.00    +0.000 HD
BRANCH  10  13
ATOM     13  O   UNL     1       6.020   3.218  14.943  0.00  0.00    +0.000 OA
ATOM     14  H   UNL     1       6.215   2.733  14.118  0.00  0.00    +0.000 HD
ENDBRANCH  10  13
ENDBRANCH   6  10
ENDBRANCH   1   6
BRANCH   4  15
ATOM     15  O   UNL     1       3.540   6.006  19.080  0.00  0.00    +0.000 OA
BRANCH  15  16
ATOM     16  C   UNL     1       2.613   5.027  19.372  0.00  0.00    +0.000 A 
ATOM     17  C   UNL     1       2.088   4.320  18.288  0.00  0.00    +0.000 A 
ATOM     18  C   UNL     1       1.158   3.302  18.507  0.00  0.00    +0.000 A 
ATOM     19  C   UNL     1       0.759   2.986  19.807  0.00  0.00    +0.000 A 
ATOM     20  C   UNL     1       1.306   3.670  20.890  0.00  0.00    +0.000 A 
ATOM     21  C   UNL     1       2.248   4.678  20.673  0.00  0.00    +0.000 A 
ENDBRANCH  15  16
ENDBRANCH   4  15
TORSDOF 5
ENDMDL
MODEL 4
REMARK VINA RESULT:      -6.9      5.345      6.933
REMARK  Name = 
REMARK  5 active torsions:
REMARK  status: ('A' for Active; 'I' for Inactive)
REMARK    1  A    between atoms: N_4  and  O_5
REMARK    2  A    between atoms: N_4  and  C_6
REMARK    3  A    between atoms: C_6  and  C_7
REMARK    4  A    between atoms: C_10  and  O_11
REMARK    5  A    between atoms: O_11  and  C_12
REMARK                            x       y       z     vdW  Elec       q    Type
REMARK                         _______ _______ _______ _____ _____    ______ ____
ROOT
ATOM      1  C   UNL     1       0.886   9.686  19.041  0.00  0.00    +0.000 A 
ATOM      2  C   UNL     1       1.557   9.424  17.864  0.00  0.00    +0.000 A 
ATOM      3  C   UNL     1       2.400   8.280  17.970  0.00  0.00    +0.000 A 
ATOM      4  C   UNL     1       2.313   7.656  19.204  0.00  0.00    +0.000 A 
ATOM      5  S   UNL     1       1.333   8.573  20.267  0.00  0.00    +0.000 S 
ENDROOT
BRANCH   1   6
ATOM      6  C   UNL     1      -0.152  10.727  19.329  0.00  0.00    +0.000 C 
BRANCH   6  10
ATOM      7  N   UNL     1      -2.809  11.869  17.264  0.00  0.00    +0.000 N 
ATOM      8  C   UNL     1      -2.052  10.903  17.859  0.00  0.00    +0.000 C 
ATOM      9  O   UNL     1      -2.530   9.810  18.136  0.00  0.00    +0.000 OA
ATOM     10  N   UNL     1      -0.740  11.286  18.117  0.00  0.00    +0.000 N 
ATOM     11  H   UNL     1      -3.801  11.675  17.271  0.00  0.00    +0.000 HD
ATOM     12  H   UNL     1      -2.534  12.806  17.529  0.00  0.00    +0.000 HD
BRANCH  10  13
ATOM     13  O   UNL     1      -0.539  12.696  18.013  0.00  0.00    +0.000 OA
ATOM     14  H   UNL     1       0.437  12.724  17.993  0.00  0.00    +0.000 HD
ENDBRANCH  10  13
ENDBRANCH   6  10
ENDBRANCH   1   6
BRANCH   4  15
ATOM     15  O   UNL     1       2.878   6.528  19.653  0.00  0.00    +0.000 OA
BRANCH  15  16
ATOM     16  C   UNL     1       2.250   5.307  19.525  0.00  0.00    +0.000 A 
ATOM     17  C   UNL     1       1.735   4.743  20.694  0.00  0.00    +0.000 A 
ATOM     18  C   UNL     1       1.069   3.517  20.640  0.00  0.00    +0.000 A 
ATOM     19  C   UNL     1       0.914   2.858  19.419  0.00  0.00    +0.000 A 
ATOM     20  C   UNL     1       1.400   3.435  18.249  0.00  0.00    +0.000 A 
ATOM     21  C   UNL     1       2.052   4.669  18.299  0.00  0.00    +0.000 A 
ENDBRANCH  15  16
ENDBRANCH   4  15
TORSDOF 5
ENDMDL
MODEL 5
REMARK VINA RESULT:      -6.9      2.785      4.413
REMARK  Name = 
REMARK  5 active torsions:
REMARK  status: ('A' for Active; 'I' for Inactive)
REMARK    1  A    between atoms: N_4  and  O_5
REMARK    2  A    between atoms: N_4  and  C_6
REMARK    3  A    between atoms: C_6  and  C_7
REMARK    4  A    between atoms: C_10  and  O_11
REMARK    5  A    between atoms: O_11  and  C_12
REMARK                            x       y       z     vdW  Elec       q    Type
REMARK                         _______ _______ _______ _____ _____    ______ ____
ROOT
ATOM      1  C   UNL     1       4.079   4.186  17.403  0.00  0.00    +0.000 A 
ATOM      2  C   UNL     1       2.738   3.864  17.444  0.00  0.00    +0.000 A 
ATOM      3  C   UNL     1       2.030   4.640  18.407  0.00  0.00    +0.000 A 
ATOM      4  C   UNL     1       2.828   5.579  19.040  0.00  0.00    +0.000 A 
ATOM      5  S   UNL     1       4.463   5.383  18.569  0.00  0.00    +0.000 S 
ENDROOT
BRANCH   1   6
ATOM      6  C   UNL     1       5.148   3.680  16.483  0.00  0.00    +0.000 C 
BRANCH   6  10
ATOM      7  N   UNL     1       7.745   5.204  14.597  0.00  0.00    +0.000 N 
ATOM      8  C   UNL     1       7.152   4.800  15.757  0.00  0.00    +0.000 C 
ATOM      9  O   UNL     1       7.824   4.512  16.740  0.00  0.00    +0.000 OA
ATOM     10  N   UNL     1       5.765   4.743  15.697  0.00  0.00    +0.000 N 
ATOM     11  H   UNL     1       8.743   5.043  14.568  0.00  0.00    +0.000 HD
ATOM     12  H   UNL     1       7.224   4.935  13.772  0.00  0.00    +0.000 HD
BRANCH  10  13
ATOM     13  O   UNL     1       5.261   4.796  14.362  0.00  0.00    +0.000 OA
ATOM     14  H   UNL     1       4.426   4.303  14.479  0.00  0.00    +0.000 HD
ENDBRANCH  10  13
ENDBRANCH   6  10
ENDBRANCH   1   6
BRANCH   4  15
ATOM     15  O   UNL     1       2.518   6.531  19.929  0.00  0.00    +0.000 OA
BRANCH  15  16
ATOM     16  C   UNL     1       1.992   7.742  19.535  0.00  0.00    +0.000 A 
ATOM     17  C   UNL     1       1.310   8.475  20.508  0.00  0.00    +0.000 A 
ATOM     18  C   UNL     1       0.766   9.720  20.188  0.00  0.00    +0.000 A 
ATOM     19  C   UNL     1       0.907  10.234  18.898  0.00  0.00    +0.000 A 
ATOM     20  C   UNL     1       1.613   9.518  17.935  0.00  0.00    +0.000 A 
ATOM     21  C   UNL     1       2.172   8.280  18.259  0.00  0.00    +0.000 A 
ENDBRANCH  15  16
ENDBRANCH   4  15
TORSDOF 5
ENDMDL
MODEL 6
REMARK VINA RESULT:      -6.9      3.482      6.620
REMARK  Name = 
REMARK  5 active torsions:
REMARK  status: ('A' for Active; 'I' for Inactive)
REMARK    1  A    between atoms: N_4  and  O_5
REMARK    2  A    between atoms: N_4  and  C_6
REMARK    3  A    between atoms: C_6  and  C_7
REMARK    4  A    between atoms: C_10  and  O_11
REMARK    5  A    between atoms: O_11  and  C_12
REMARK                            x       y       z     vdW  Elec       q    Type
REMARK                         _______ _______ _______ _____ _____    ______ ____
ROOT
ATOM      1  C   UNL     1       4.738   5.547  18.451  0.00  0.00    +0.000 A 
ATOM      2  C   UNL     1       4.279   6.501  17.567  0.00  0.00    +0.000 A 
ATOM      3  C   UNL     1       5.154   6.666  16.454  0.00  0.00    +0.000 A 
ATOM      4  C   UNL     1       6.232   5.795  16.479  0.00  0.00    +0.000 A 
ATOM      5  S   UNL     1       6.246   4.908  17.944  0.00  0.00    +0.000 S 
ENDROOT
BRANCH   1   6
ATOM      6  C   UNL     1       4.086   5.009  19.688  0.00  0.00    +0.000 C 
BRANCH   6  10
ATOM      7  N   UNL     1       0.741   3.978  20.301  0.00  0.00    +0.000 N 
ATOM      8  C   UNL     1       1.925   3.947  19.625  0.00  0.00    +0.000 C 
ATOM      9  O   UNL     1       2.299   2.928  19.058  0.00  0.00    +0.000 OA
ATOM     10  N   UNL     1       2.633   5.143  19.663  0.00  0.00    +0.000 N 
ATOM     11  H   UNL     1       0.332   3.066  20.456  0.00  0.00    +0.000 HD
ATOM     12  H   UNL     1       0.755   4.604  21.097  0.00  0.00    +0.000 HD
BRANCH  10  13
ATOM     13  O   UNL     1       2.151   6.047  20.657  0.00  0.00    +0.000 OA
ATOM     14  H   UNL     1       1.841   6.775  20.084  0.00  0.00    +0.000 HD
ENDBRANCH  10  13
ENDBRANCH   6  10
ENDBRANCH   1   6
BRANCH   4  15
ATOM     15  O   UNL     1       7.209   5.591  15.587  0.00  0.00    +0.000 OA
BRANCH  15  16
ATOM     16  C   UNL     1       6.969   4.958  14.386  0.00  0.00    +0.000 A 
ATOM     17  C   UNL     1       7.778   5.328  13.310  0.00  0.00    +0.000 A 
ATOM     18  C   UNL     1       7.607   4.716  12.067  0.00  0.00    +0.000 A 
ATOM     19  C   UNL     1       6.631   3.733  11.901  0.00  0.00    +0.000 A 
ATOM     20  C   UNL     1       5.843   3.341  12.981  0.00  0.00    +0.000 A 
ATOM     21  C   UNL     1       6.025   3.941  14.228  0.00  0.00    +0.000 A 
ENDBRANCH  15  16
ENDBRANCH   4  15
TORSDOF 5
ENDMDL
MODEL 7
REMARK VINA RESULT:      -6.9      2.733      3.295
REMARK  Name = 
REMARK  5 active torsions:
REMARK  status: ('A' for Active; 'I' for Inactive)
REMARK    1  A    between atoms: N_4  and  O_5
REMARK    2  A    between atoms: N_4  and  C_6
REMARK    3  A    between atoms: C_6  and  C_7
REMARK    4  A    between atoms: C_10  and  O_11
REMARK    5  A    between atoms: O_11  and  C_12
REMARK                            x       y       z     vdW  Elec       q    Type
REMARK                         _______ _______ _______ _____ _____    ______ ____
ROOT
ATOM      1  C   UNL     1       5.886   5.255  16.285  0.00  0.00    +0.000 A 
ATOM      2  C   UNL     1       5.273   6.481  16.126  0.00  0.00    +0.000 A 
ATOM      3  C   UNL     1       4.397   6.787  17.208  0.00  0.00    +0.000 A 
ATOM      4  C   UNL     1       4.403   5.820  18.200  0.00  0.00    +0.000 A 
ATOM      5  S   UNL     1       5.347   4.477  17.715  0.00  0.00    +0.000 S 
ENDROOT
BRANCH   1   6
ATOM      6  C   UNL     1       6.932   4.601  15.436  0.00  0.00    +0.000 C 
BRANCH   6  10
ATOM      7  N   UNL     1       7.576   4.347  11.950  0.00  0.00    +0.000 N 
ATOM      8  C   UNL     1       7.570   4.999  13.148  0.00  0.00    +0.000 C 
ATOM      9  O   UNL     1       8.398   5.868  13.395  0.00  0.00    +0.000 OA
ATOM     10  N   UNL     1       6.575   4.577  14.021  0.00  0.00    +0.000 N 
ATOM     11  H   UNL     1       8.415   4.495  11.406  0.00  0.00    +0.000 HD
ATOM     12  H   UNL     1       7.250   3.391  12.019  0.00  0.00    +0.000 HD
BRANCH  10  13
ATOM     13  O   UNL     1       5.976   3.342  13.630  0.00  0.00    +0.000 OA
ATOM     14  H   UNL     1       5.702   3.004  14.505  0.00  0.00    +0.000 HD
ENDBRANCH  10  13
ENDBRANCH   6  10
ENDBRANCH   1   6
BRANCH   4  15
ATOM     15  O   UNL     1       3.788   5.786  19.389  0.00  0.00    +0.000 OA
BRANCH  15  16
ATOM     16  C   UNL     1       2.802   4.864  19.665  0.00  0.00    +0.000 A 
ATOM     17  C   UNL     1       2.064   4.392  18.578  0.00  0.00    +0.000 A 
ATOM     18  C   UNL     1       1.061   3.441  18.777  0.00  0.00    +0.000 A 
ATOM     19  C   UNL     1       0.800   2.959  20.061  0.00  0.00    +0.000 A 
ATOM     20  C   UNL     1       1.556   3.406  21.141  0.00  0.00    +0.000 A 
ATOM     21  C   UNL     1       2.570   4.345  20.940  0.00  0.00    +0.000 A 
ENDBRANCH  15  16
ENDBRANCH   4  15
TORSDOF 5
ENDMDL
MODEL 8
REMARK VINA RESULT:      -6.9      2.692      3.586
REMARK  Name = 
REMARK  5 active torsions:
REMARK  status: ('A' for Active; 'I' for Inactive)
REMARK    1  A    between atoms: N_4  and  O_5
REMARK    2  A    between atoms: N_4  and  C_6
REMARK    3  A    between atoms: C_6  and  C_7
REMARK    4  A    between atoms: C_10  and  O_11
REMARK    5  A    between atoms: O_11  and  C_12
REMARK                            x       y       z     vdW  Elec       q    Type
REMARK                         _______ _______ _______ _____ _____    ______ ____
ROOT
ATOM      1  C   UNL     1       6.665   5.283  16.818  0.00  0.00    +0.000 A 
ATOM      2  C   UNL     1       7.125   4.942  18.073  0.00  0.00    +0.000 A 
ATOM      3  C   UNL     1       6.145   5.169  19.083  0.00  0.00    +0.000 A 
ATOM      4  C   UNL     1       4.939   5.623  18.575  0.00  0.00    +0.000 A 
ATOM      5  S   UNL     1       5.076   5.924  16.895  0.00  0.00    +0.000 S 
ENDROOT
BRANCH   1   6
ATOM      6  C   UNL     1       7.333   5.120  15.486  0.00  0.00    +0.000 C 
BRANCH   6  10
ATOM      7  N   UNL     1       6.624   3.353  12.487  0.00  0.00    +0.000 N 
ATOM      8  C   UNL     1       6.963   4.465  13.199  0.00  0.00    +0.000 C 
ATOM      9  O   UNL     1       7.654   5.345  12.700  0.00  0.00    +0.000 OA
ATOM     10  N   UNL     1       6.470   4.481  14.498  0.00  0.00    +0.000 N 
ATOM     11  H   UNL     1       7.149   3.237  11.630  0.00  0.00    +0.000 HD
ATOM     12  H   UNL     1       6.524   2.528  13.065  0.00  0.00    +0.000 HD
BRANCH  10  13
ATOM     13  O   UNL     1       5.996   3.207  14.932  0.00  0.00    +0.000 OA
ATOM     14  H   UNL     1       6.256   3.242  15.872  0.00  0.00    +0.000 HD
ENDBRANCH  10  13
ENDBRANCH   6  10
ENDBRANCH   1   6
BRANCH   4  15
ATOM     15  O   UNL     1       3.773   5.869  19.185  0.00  0.00    +0.000 OA
BRANCH  15  16
ATOM     16  C   UNL     1       2.803   4.896  19.306  0.00  0.00    +0.000 A 
ATOM     17  C   UNL     1       2.228   4.738  20.569  0.00  0.00    +0.000 A 
ATOM     18  C   UNL     1       1.226   3.786  20.763  0.00  0.00    +0.000 A 
ATOM     19  C   UNL     1       0.795   2.997  19.696  0.00  0.00    +0.000 A 
ATOM     20  C   UNL     1       1.346   3.175  18.429  0.00  0.00    +0.000 A 
ATOM     21  C   UNL     1       2.337   4.138  18.231  0.00  0.00    +0.000 A 
ENDBRANCH  15  16
ENDBRANCH   4  15
TORSDOF 5
ENDMDL
MODEL 9
REMARK VINA RESULT:      -6.8      2.746      4.334
REMARK  Name = 
REMARK  5 active torsions:
REMARK  status: ('A' for Active; 'I' for Inactive)
REMARK    1  A    between atoms: N_4  and  O_5
REMARK    2  A    between atoms: N_4  and  C_6
REMARK    3  A    between atoms: C_6  and  C_7
REMARK    4  A    between atoms: C_10  and  O_11
REMARK    5  A    between atoms: O_11  and  C_12
REMARK                            x       y       z     vdW  Elec       q    Type
REMARK                         _______ _______ _______ _____ _____    ______ ____
ROOT
ATOM      1  C   UNL     1       4.045   4.214  17.497  0.00  0.00    +0.000 A 
ATOM      2  C   UNL     1       2.699   3.913  17.485  0.00  0.00    +0.000 A 
ATOM      3  C   UNL     1       1.971   4.674  18.445  0.00  0.00    +0.000 A 
ATOM      4  C   UNL     1       2.762   5.582  19.130  0.00  0.00    +0.000 A 
ATOM      5  S   UNL     1       4.409   5.373  18.708  0.00  0.00    +0.000 S 
ENDROOT
BRANCH   1   6
ATOM      6  C   UNL     1       5.136   3.714  16.600  0.00  0.00    +0.000 C 
BRANCH   6  10
ATOM      7  N   UNL     1       7.718   5.220  14.678  0.00  0.00    +0.000 N 
ATOM      8  C   UNL     1       7.148   4.802  15.844  0.00  0.00    +0.000 C 
ATOM      9  O   UNL     1       7.839   4.473  16.801  0.00  0.00    +0.000 OA
ATOM     10  N   UNL     1       5.758   4.781  15.822  0.00  0.00    +0.000 N 
ATOM     11  H   UNL     1       8.711   5.035  14.617  0.00  0.00    +0.000 HD
ATOM     12  H   UNL     1       7.168   4.985  13.862  0.00  0.00    +0.000 HD
BRANCH  10  13
ATOM     13  O   UNL     1       5.219   4.880  14.504  0.00  0.00    +0.000 OA
ATOM     14  H   UNL     1       4.646   4.089  14.498  0.00  0.00    +0.000 HD
ENDBRANCH  10  13
ENDBRANCH   6  10
ENDBRANCH   1   6
BRANCH   4  15
ATOM     15  O   UNL     1       2.437   6.515  20.034  0.00  0.00    +0.000 OA
BRANCH  15  16
ATOM     16  C   UNL     1       1.973   7.757  19.654  0.00  0.00    +0.000 A 
ATOM     17  C   UNL     1       2.219   8.141  18.335  0.00  0.00    +0.000 A 
ATOM     18  C   UNL     1       1.762   9.377  17.873  0.00  0.00    +0.000 A 
ATOM     19  C   UNL     1       1.057  10.225  18.727  0.00  0.00    +0.000 A 
ATOM     20  C   UNL     1       0.785   9.830  20.035  0.00  0.00    +0.000 A 
ATOM     21  C   UNL     1       1.227   8.587  20.492  0.00  0.00    +0.000 A 
ENDBRANCH  15  16
ENDBRANCH   4  15
TORSDOF 5
ENDMDL
