MODEL 1
REMARK VINA RESULT:      -8.2      0.000      0.000
REMARK  Name = 
REMARK  11 active torsions:
REMARK  status: ('A' for Active; 'I' for Inactive)
REMARK    1  A    between atoms: C_1  and  O_2
REMARK    2  A    between atoms: O_2  and  C_3
REMARK    3  A    between atoms: C_6  and  C_7
REMARK    4  A    between atoms: N_9  and  N_10
REMARK    5  A    between atoms: C_11  and  C_13
REMARK    6  A    between atoms: C_13  and  N_14
REMARK    7  A    between atoms: C_17  and  C_18
REMARK    8  A    between atoms: C_21  and  O_22
REMARK    9  A    between atoms: O_22  and  C_23
REMARK   10  A    between atoms: C_24  and  O_25
REMARK   11  A    between atoms: O_25  and  C_26
REMARK                            x       y       z     vdW  Elec       q    Type
REMARK                         _______ _______ _______ _____ _____    ______ ____
ROOT
ATOM      1  N   UNL     1       2.476   5.560  21.006  0.00  0.00    +0.000 N 
ATOM      2  C   UNL     1       1.717   4.428  20.752  0.00  0.00    +0.000 C 
ATOM      3  O   UNL     1       0.508   4.503  20.521  0.00  0.00    +0.000 OA
ATOM      4  H   UNL     1       3.440   5.543  21.345  0.00  0.00    +0.000 HD
ENDROOT
BRANCH   1   7
ATOM      5  C   UNL     1       1.819   7.690  20.090  0.00  0.00    +0.000 C 
ATOM      6  O   UNL     1       2.463   7.489  19.063  0.00  0.00    +0.000 OA
ATOM      7  N   UNL     1       1.782   6.774  21.122  0.00  0.00    +0.000 N 
ATOM      8  H   UNL     1       1.276   6.896  21.995  0.00  0.00    +0.000 HD
BRANCH   5  12
ATOM      9  C   UNL     1      -0.450  11.319  20.731  0.00  0.00    +0.000 A 
ATOM     10  C   UNL     1      -0.066  10.508  21.799  0.00  0.00    +0.000 A 
ATOM     11  C   UNL     1       0.680   9.342  21.577  0.00  0.00    +0.000 A 
ATOM     12  C   UNL     1       1.033   8.957  20.274  0.00  0.00    +0.000 A 
ATOM     13  C   UNL     1       0.632   9.772  19.207  0.00  0.00    +0.000 A 
ATOM     14  C   UNL     1      -0.107  10.943  19.435  0.00  0.00    +0.000 A 
BRANCH   9  16
ATOM     15  C   UNL     1      -0.789  13.101  22.248  0.00  0.00    +0.000 C 
ATOM     16  O   UNL     1      -1.186  12.424  21.060  0.00  0.00    +0.000 OA
ENDBRANCH   9  16
ENDBRANCH   5  12
ENDBRANCH   1   7
BRANCH   2  17
ATOM     17  C   UNL     1       2.464   3.127  20.688  0.00  0.00    +0.000 C 
BRANCH  17  18
ATOM     18  N   UNL     1       3.115   2.977  19.414  0.00  0.00    +0.000 N 
ATOM     19  N   UNL     1       2.950   1.894  18.646  0.00  0.00    +0.000 NA
ATOM     20  N   UNL     1       3.711   2.117  17.587  0.00  0.00    +0.000 NA
ATOM     21  C   UNL     1       4.302   3.349  17.768  0.00  0.00    +0.000 A 
ATOM     22  N   UNL     1       3.938   3.925  18.928  0.00  0.00    +0.000 NA
BRANCH  21  23
ATOM     23  C   UNL     1       5.247   3.917  16.818  0.00  0.00    +0.000 A 
ATOM     24  C   UNL     1       5.341   3.436  15.512  0.00  0.00    +0.000 A 
ATOM     25  C   UNL     1       6.213   4.045  14.606  0.00  0.00    +0.000 A 
ATOM     26  C   UNL     1       7.011   5.133  14.985  0.00  0.00    +0.000 A 
ATOM     27  C   UNL     1       6.955   5.599  16.310  0.00  0.00    +0.000 A 
ATOM     28  C   UNL     1       6.067   4.985  17.208  0.00  0.00    +0.000 A 
BRANCH  26  29
ATOM     29  O   UNL     1       7.767   5.610  13.943  0.00  0.00    +0.000 OA
ATOM     30  C   UNL     1       7.678   4.963  12.682  0.00  0.00    +0.000 C 
ENDBRANCH  26  29
BRANCH  27  31
ATOM     31  O   UNL     1       7.775   6.632  16.677  0.00  0.00    +0.000 OA
ATOM     32  C   UNL     1       7.262   7.630  17.547  0.00  0.00    +0.000 C 
ENDBRANCH  27  31
ENDBRANCH  21  23
ENDBRANCH  17  18
ENDBRANCH   2  17
TORSDOF 8
ENDMDL
MODEL 2
REMARK VINA RESULT:      -7.8      0.817      1.242
REMARK  Name = 
REMARK  11 active torsions:
REMARK  status: ('A' for Active; 'I' for Inactive)
REMARK    1  A    between atoms: C_1  and  O_2
REMARK    2  A    between atoms: O_2  and  C_3
REMARK    3  A    between atoms: C_6  and  C_7
REMARK    4  A    between atoms: N_9  and  N_10
REMARK    5  A    between atoms: C_11  and  C_13
REMARK    6  A    between atoms: C_13  and  N_14
REMARK    7  A    between atoms: C_17  and  C_18
REMARK    8  A    between atoms: C_21  and  O_22
REMARK    9  A    between atoms: O_22  and  C_23
REMARK   10  A    between atoms: C_24  and  O_25
REMARK   11  A    between atoms: O_25  and  C_26
REMARK                            x       y       z     vdW  Elec       q    Type
REMARK                         _______ _______ _______ _____ _____    ______ ____
ROOT
ATOM      1  N   UNL     1       2.379   4.910  20.341  0.00  0.00    +0.000 N 
ATOM      2  C   UNL     1       2.392   3.761  21.116  0.00  0.00    +0.000 C 
ATOM      3  O   UNL     1       1.795   3.706  22.193  0.00  0.00    +0.000 OA
ATOM      4  H   UNL     1       2.970   5.058  19.520  0.00  0.00    +0.000 HD
ENDROOT
BRANCH   1   7
ATOM      5  C   UNL     1       1.843   7.258  20.244  0.00  0.00    +0.000 C 
ATOM      6  O   UNL     1       2.438   7.388  19.177  0.00  0.00    +0.000 OA
ATOM      7  N   UNL     1       1.775   6.046  20.902  0.00  0.00    +0.000 N 
ATOM      8  H   UNL     1       1.309   5.887  21.790  0.00  0.00    +0.000 HD
BRANCH   5  12
ATOM      9  C   UNL     1      -0.152  10.668  22.011  0.00  0.00    +0.000 A 
ATOM     10  C   UNL     1       0.041  10.578  20.632  0.00  0.00    +0.000 A 
ATOM     11  C   UNL     1       0.677   9.460  20.074  0.00  0.00    +0.000 A 
ATOM     12  C   UNL     1       1.154   8.424  20.892  0.00  0.00    +0.000 A 
ATOM     13  C   UNL     1       0.965   8.531  22.278  0.00  0.00    +0.000 A 
ATOM     14  C   UNL     1       0.320   9.647  22.831  0.00  0.00    +0.000 A 
BRANCH   9  16
ATOM     15  C   UNL     1      -1.066  12.775  21.448  0.00  0.00    +0.000 C 
ATOM     16  O   UNL     1      -0.771  11.807  22.449  0.00  0.00    +0.000 OA
ENDBRANCH   9  16
ENDBRANCH   5  12
ENDBRANCH   1   7
BRANCH   2  17
ATOM     17  C   UNL     1       3.091   2.570  20.528  0.00  0.00    +0.000 C 
BRANCH  17  18
ATOM     18  N   UNL     1       3.425   2.805  19.149  0.00  0.00    +0.000 N 
ATOM     19  N   UNL     1       2.672   2.352  18.140  0.00  0.00    +0.000 NA
ATOM     20  N   UNL     1       3.306   2.747  17.047  0.00  0.00    +0.000 NA
ATOM     21  C   UNL     1       4.425   3.438  17.459  0.00  0.00    +0.000 A 
ATOM     22  N   UNL     1       4.527   3.494  18.799  0.00  0.00    +0.000 NA
BRANCH  21  23
ATOM     23  C   UNL     1       5.395   3.993  16.526  0.00  0.00    +0.000 A 
ATOM     24  C   UNL     1       5.572   3.450  15.254  0.00  0.00    +0.000 A 
ATOM     25  C   UNL     1       6.465   4.045  14.360  0.00  0.00    +0.000 A 
ATOM     26  C   UNL     1       7.204   5.181  14.719  0.00  0.00    +0.000 A 
ATOM     27  C   UNL     1       7.065   5.712  16.013  0.00  0.00    +0.000 A 
ATOM     28  C   UNL     1       6.156   5.111  16.898  0.00  0.00    +0.000 A 
BRANCH  26  29
ATOM     29  O   UNL     1       7.992   5.634  13.690  0.00  0.00    +0.000 OA
ATOM     30  C   UNL     1       7.714   5.191  12.370  0.00  0.00    +0.000 C 
ENDBRANCH  26  29
BRANCH  27  31
ATOM     31  O   UNL     1       7.828   6.793  16.364  0.00  0.00    +0.000 OA
ATOM     32  C   UNL     1       7.550   7.450  17.591  0.00  0.00    +0.000 C 
ENDBRANCH  27  31
ENDBRANCH  21  23
ENDBRANCH  17  18
ENDBRANCH   2  17
TORSDOF 8
ENDMDL
MODEL 3
REMARK VINA RESULT:      -7.7      0.561      1.045
REMARK  Name = 
REMARK  11 active torsions:
REMARK  status: ('A' for Active; 'I' for Inactive)
REMARK    1  A    between atoms: C_1  and  O_2
REMARK    2  A    between atoms: O_2  and  C_3
REMARK    3  A    between atoms: C_6  and  C_7
REMARK    4  A    between atoms: N_9  and  N_10
REMARK    5  A    between atoms: C_11  and  C_13
REMARK    6  A    between atoms: C_13  and  N_14
REMARK    7  A    between atoms: C_17  and  C_18
REMARK    8  A    between atoms: C_21  and  O_22
REMARK    9  A    between atoms: O_22  and  C_23
REMARK   10  A    between atoms: C_24  and  O_25
REMARK   11  A    between atoms: O_25  and  C_26
REMARK                            x       y       z     vdW  Elec       q    Type
REMARK                         _______ _______ _______ _____ _____    ______ ____
ROOT
ATOM      1  N   UNL     1       2.484   5.893  20.578  0.00  0.00    +0.000 N 
ATOM      2  C   UNL     1       1.815   4.695  20.775  0.00  0.00    +0.000 C 
ATOM      3  O   UNL     1       0.587   4.655  20.883  0.00  0.00    +0.000 OA
ATOM      4  H   UNL     1       3.499   6.000  20.628  0.00  0.00    +0.000 HD
ENDROOT
BRANCH   1   7
ATOM      5  C   UNL     1       1.795   8.000  19.633  0.00  0.00    +0.000 C 
ATOM      6  O   UNL     1       2.540   7.852  18.666  0.00  0.00    +0.000 OA
ATOM      7  N   UNL     1       1.716   7.065  20.646  0.00  0.00    +0.000 N 
ATOM      8  H   UNL     1       1.128   7.145  21.470  0.00  0.00    +0.000 HD
BRANCH   5  12
ATOM      9  C   UNL     1      -0.708  11.521  19.887  0.00  0.00    +0.000 A 
ATOM     10  C   UNL     1      -0.349  10.977  18.654  0.00  0.00    +0.000 A 
ATOM     11  C   UNL     1       0.452   9.828  18.588  0.00  0.00    +0.000 A 
ATOM     12  C   UNL     1       0.927   9.219  19.760  0.00  0.00    +0.000 A 
ATOM     13  C   UNL     1       0.570   9.781  20.994  0.00  0.00    +0.000 A 
ATOM     14  C   UNL     1      -0.239  10.925  21.055  0.00  0.00    +0.000 A 
BRANCH   9  16
ATOM     15  C   UNL     1      -1.535  13.416  21.035  0.00  0.00    +0.000 C 
ATOM     16  O   UNL     1      -1.480  12.650  19.836  0.00  0.00    +0.000 OA
ENDBRANCH   9  16
ENDBRANCH   5  12
ENDBRANCH   1   7
BRANCH   2  17
ATOM     17  C   UNL     1       2.657   3.452  20.758  0.00  0.00    +0.000 C 
BRANCH  17  18
ATOM     18  N   UNL     1       3.258   3.262  19.466  0.00  0.00    +0.000 N 
ATOM     19  N   UNL     1       3.001   2.193  18.703  0.00  0.00    +0.000 NA
ATOM     20  N   UNL     1       3.743   2.369  17.622  0.00  0.00    +0.000 NA
ATOM     21  C   UNL     1       4.417   3.561  17.784  0.00  0.00    +0.000 A 
ATOM     22  N   UNL     1       4.125   4.157  18.955  0.00  0.00    +0.000 NA
BRANCH  21  23
ATOM     23  C   UNL     1       5.367   4.068  16.806  0.00  0.00    +0.000 A 
ATOM     24  C   UNL     1       5.560   3.428  15.582  0.00  0.00    +0.000 A 
ATOM     25  C   UNL     1       6.432   3.976  14.638  0.00  0.00    +0.000 A 
ATOM     26  C   UNL     1       7.133   5.162  14.900  0.00  0.00    +0.000 A 
ATOM     27  C   UNL     1       6.977   5.793  16.146  0.00  0.00    +0.000 A 
ATOM     28  C   UNL     1       6.090   5.238  17.081  0.00  0.00    +0.000 A 
BRANCH  26  29
ATOM     29  O   UNL     1       7.905   5.554  13.834  0.00  0.00    +0.000 OA
ATOM     30  C   UNL     1       7.593   5.053  12.543  0.00  0.00    +0.000 C 
ENDBRANCH  26  29
BRANCH  27  31
ATOM     31  O   UNL     1       7.703   6.925  16.403  0.00  0.00    +0.000 OA
ATOM     32  C   UNL     1       7.353   7.715  17.530  0.00  0.00    +0.000 C 
ENDBRANCH  27  31
ENDBRANCH  21  23
ENDBRANCH  17  18
ENDBRANCH   2  17
TORSDOF 8
ENDMDL
MODEL 4
REMARK VINA RESULT:      -7.6      3.864      8.169
REMARK  Name = 
REMARK  11 active torsions:
REMARK  status: ('A' for Active; 'I' for Inactive)
REMARK    1  A    between atoms: C_1  and  O_2
REMARK    2  A    between atoms: O_2  and  C_3
REMARK    3  A    between atoms: C_6  and  C_7
REMARK    4  A    between atoms: N_9  and  N_10
REMARK    5  A    between atoms: C_11  and  C_13
REMARK    6  A    between atoms: C_13  and  N_14
REMARK    7  A    between atoms: C_17  and  C_18
REMARK    8  A    between atoms: C_21  and  O_22
REMARK    9  A    between atoms: O_22  and  C_23
REMARK   10  A    between atoms: C_24  and  O_25
REMARK   11  A    between atoms: O_25  and  C_26
REMARK                            x       y       z     vdW  Elec       q    Type
REMARK                         _______ _______ _______ _____ _____    ______ ____
ROOT
ATOM      1  N   UNL     1       7.604   6.957  18.009  0.00  0.00    +0.000 N 
ATOM      2  C   UNL     1       7.617   5.726  18.646  0.00  0.00    +0.000 C 
ATOM      3  O   UNL     1       8.273   5.541  19.674  0.00  0.00    +0.000 OA
ATOM      4  H   UNL     1       7.200   7.122  17.085  0.00  0.00    +0.000 HD
ENDROOT
BRANCH   1   7
ATOM      5  C   UNL     1       8.306   9.258  18.146  0.00  0.00    +0.000 C 
ATOM      6  O   UNL     1       7.416   9.614  17.377  0.00  0.00    +0.000 OA
ATOM      7  N   UNL     1       8.477   7.937  18.507  0.00  0.00    +0.000 N 
ATOM      8  H   UNL     1       9.202   7.589  19.127  0.00  0.00    +0.000 HD
BRANCH   5  12
ATOM      9  C   UNL     1      11.103  12.150  19.742  0.00  0.00    +0.000 A 
ATOM     10  C   UNL     1      11.022  11.902  18.371  0.00  0.00    +0.000 A 
ATOM     11  C   UNL     1      10.102  10.972  17.868  0.00  0.00    +0.000 A 
ATOM     12  C   UNL     1       9.262  10.255  18.735  0.00  0.00    +0.000 A 
ATOM     13  C   UNL     1       9.360  10.503  20.112  0.00  0.00    +0.000 A 
ATOM     14  C   UNL     1      10.276  11.442  20.610  0.00  0.00    +0.000 A 
BRANCH   9  16
ATOM     15  C   UNL     1      12.074  14.274  19.370  0.00  0.00    +0.000 C 
ATOM     16  O   UNL     1      12.044  13.066  20.125  0.00  0.00    +0.000 OA
ENDBRANCH   9  16
ENDBRANCH   5  12
ENDBRANCH   1   7
BRANCH   2  17
ATOM     17  C   UNL     1       6.722   4.668  18.069  0.00  0.00    +0.000 C 
BRANCH  17  18
ATOM     18  N   UNL     1       5.349   5.095  18.093  0.00  0.00    +0.000 N 
ATOM     19  N   UNL     1       4.346   4.316  17.672  0.00  0.00    +0.000 NA
ATOM     20  N   UNL     1       3.260   5.054  17.832  0.00  0.00    +0.000 NA
ATOM     21  C   UNL     1       3.667   6.261  18.358  0.00  0.00    +0.000 A 
ATOM     22  N   UNL     1       4.999   6.316  18.539  0.00  0.00    +0.000 NA
BRANCH  21  23
ATOM     23  C   UNL     1       2.744   7.352  18.633  0.00  0.00    +0.000 A 
ATOM     24  C   UNL     1       2.441   8.308  17.664  0.00  0.00    +0.000 A 
ATOM     25  C   UNL     1       1.502   9.306  17.938  0.00  0.00    +0.000 A 
ATOM     26  C   UNL     1       0.859   9.376  19.182  0.00  0.00    +0.000 A 
ATOM     27  C   UNL     1       1.189   8.443  20.181  0.00  0.00    +0.000 A 
ATOM     28  C   UNL     1       2.126   7.439  19.889  0.00  0.00    +0.000 A 
BRANCH  26  29
ATOM     29  O   UNL     1      -0.053  10.401  19.238  0.00  0.00    +0.000 OA
ATOM     30  C   UNL     1       0.399  11.729  19.019  0.00  0.00    +0.000 C 
ENDBRANCH  26  29
BRANCH  27  31
ATOM     31  O   UNL     1       0.587   8.553  21.405  0.00  0.00    +0.000 OA
ATOM     32  C   UNL     1       1.265   9.260  22.434  0.00  0.00    +0.000 C 
ENDBRANCH  27  31
ENDBRANCH  21  23
ENDBRANCH  17  18
ENDBRANCH   2  17
TORSDOF 8
ENDMDL
MODEL 5
REMARK VINA RESULT:      -7.3      1.343      2.293
REMARK  Name = 
REMARK  11 active torsions:
REMARK  status: ('A' for Active; 'I' for Inactive)
REMARK    1  A    between atoms: C_1  and  O_2
REMARK    2  A    between atoms: O_2  and  C_3
REMARK    3  A    between atoms: C_6  and  C_7
REMARK    4  A    between atoms: N_9  and  N_10
REMARK    5  A    between atoms: C_11  and  C_13
REMARK    6  A    between atoms: C_13  and  N_14
REMARK    7  A    between atoms: C_17  and  C_18
REMARK    8  A    between atoms: C_21  and  O_22
REMARK    9  A    between atoms: O_22  and  C_23
REMARK   10  A    between atoms: C_24  and  O_25
REMARK   11  A    between atoms: O_25  and  C_26
REMARK                            x       y       z     vdW  Elec       q    Type
REMARK                         _______ _______ _______ _____ _____    ______ ____
ROOT
ATOM      1  N   UNL     1       2.540   5.498  20.082  0.00  0.00    +0.000 N 
ATOM      2  C   UNL     1       1.854   4.294  20.106  0.00  0.00    +0.000 C 
ATOM      3  O   UNL     1       0.715   4.212  20.571  0.00  0.00    +0.000 OA
ATOM      4  H   UNL     1       3.530   5.592  19.846  0.00  0.00    +0.000 HD
ENDROOT
BRANCH   1   7
ATOM      5  C   UNL     1       1.743   7.772  20.057  0.00  0.00    +0.000 C 
ATOM      6  O   UNL     1       2.104   7.925  18.893  0.00  0.00    +0.000 OA
ATOM      7  N   UNL     1       1.936   6.584  20.734  0.00  0.00    +0.000 N 
ATOM      8  H   UNL     1       1.668   6.410  21.698  0.00  0.00    +0.000 HD
BRANCH   5  12
ATOM      9  C   UNL     1      -0.195  10.912  22.320  0.00  0.00    +0.000 A 
ATOM     10  C   UNL     1       0.260   9.748  22.941  0.00  0.00    +0.000 A 
ATOM     11  C   UNL     1       0.898   8.746  22.197  0.00  0.00    +0.000 A 
ATOM     12  C   UNL     1       1.068   8.883  20.810  0.00  0.00    +0.000 A 
ATOM     13  C   UNL     1       0.596  10.051  20.194  0.00  0.00    +0.000 A 
ATOM     14  C   UNL     1      -0.033  11.055  20.944  0.00  0.00    +0.000 A 
BRANCH   9  16
ATOM     15  C   UNL     1      -2.229  11.903  23.006  0.00  0.00    +0.000 C 
ATOM     16  O   UNL     1      -0.814  11.818  23.137  0.00  0.00    +0.000 OA
ENDBRANCH   9  16
ENDBRANCH   5  12
ENDBRANCH   1   7
BRANCH   2  17
ATOM     17  C   UNL     1       2.537   3.125  19.456  0.00  0.00    +0.000 C 
BRANCH  17  18
ATOM     18  N   UNL     1       3.795   3.526  18.884  0.00  0.00    +0.000 N 
ATOM     19  N   UNL     1       4.880   3.764  19.629  0.00  0.00    +0.000 NA
ATOM     20  N   UNL     1       5.811   4.119  18.758  0.00  0.00    +0.000 NA
ATOM     21  C   UNL     1       5.233   4.069  17.508  0.00  0.00    +0.000 A 
ATOM     22  N   UNL     1       3.943   3.691  17.556  0.00  0.00    +0.000 NA
BRANCH  21  23
ATOM     23  C   UNL     1       5.948   4.437  16.294  0.00  0.00    +0.000 A 
ATOM     24  C   UNL     1       6.869   5.484  16.284  0.00  0.00    +0.000 A 
ATOM     25  C   UNL     1       7.586   5.770  15.119  0.00  0.00    +0.000 A 
ATOM     26  C   UNL     1       7.390   5.028  13.945  0.00  0.00    +0.000 A 
ATOM     27  C   UNL     1       6.433   3.998  13.933  0.00  0.00    +0.000 A 
ATOM     28  C   UNL     1       5.728   3.714  15.113  0.00  0.00    +0.000 A 
BRANCH  26  29
ATOM     29  O   UNL     1       8.215   5.440  12.928  0.00  0.00    +0.000 OA
ATOM     30  C   UNL     1       7.639   6.072  11.794  0.00  0.00    +0.000 C 
ENDBRANCH  26  29
BRANCH  27  31
ATOM     31  O   UNL     1       6.221   3.315  12.766  0.00  0.00    +0.000 OA
ATOM     32  C   UNL     1       4.915   3.312  12.209  0.00  0.00    +0.000 C 
ENDBRANCH  27  31
ENDBRANCH  21  23
ENDBRANCH  17  18
ENDBRANCH   2  17
TORSDOF 8
ENDMDL
MODEL 6
REMARK VINA RESULT:      -7.3      1.232      1.357
REMARK  Name = 
REMARK  11 active torsions:
REMARK  status: ('A' for Active; 'I' for Inactive)
REMARK    1  A    between atoms: C_1  and  O_2
REMARK    2  A    between atoms: O_2  and  C_3
REMARK    3  A    between atoms: C_6  and  C_7
REMARK    4  A    between atoms: N_9  and  N_10
REMARK    5  A    between atoms: C_11  and  C_13
REMARK    6  A    between atoms: C_13  and  N_14
REMARK    7  A    between atoms: C_17  and  C_18
REMARK    8  A    between atoms: C_21  and  O_22
REMARK    9  A    between atoms: O_22  and  C_23
REMARK   10  A    between atoms: C_24  and  O_25
REMARK   11  A    between atoms: O_25  and  C_26
REMARK                            x       y       z     vdW  Elec       q    Type
REMARK                         _______ _______ _______ _____ _____    ______ ____
ROOT
ATOM      1  N   UNL     1       2.020   6.350  21.062  0.00  0.00    +0.000 N 
ATOM      2  C   UNL     1       1.514   5.072  20.888  0.00  0.00    +0.000 C 
ATOM      3  O   UNL     1       0.448   4.877  20.301  0.00  0.00    +0.000 OA
ATOM      4  H   UNL     1       2.816   6.578  21.661  0.00  0.00    +0.000 HD
ENDROOT
BRANCH   1   7
ATOM      5  C   UNL     1       1.168   8.578  21.408  0.00  0.00    +0.000 C 
ATOM      6  O   UNL     1       1.830   8.711  22.435  0.00  0.00    +0.000 OA
ATOM      7  N   UNL     1       1.198   7.416  20.663  0.00  0.00    +0.000 N 
ATOM      8  H   UNL     1       0.663   7.250  19.817  0.00  0.00    +0.000 HD
BRANCH   5  12
ATOM      9  C   UNL     1      -1.404  11.794  20.077  0.00  0.00    +0.000 A 
ATOM     10  C   UNL     1      -1.183  11.560  21.435  0.00  0.00    +0.000 A 
ATOM     11  C   UNL     1      -0.336  10.522  21.850  0.00  0.00    +0.000 A 
ATOM     12  C   UNL     1       0.284   9.685  20.909  0.00  0.00    +0.000 A 
ATOM     13  C   UNL     1       0.045   9.922  19.548  0.00  0.00    +0.000 A 
ATOM     14  C   UNL     1      -0.795  10.967  19.137  0.00  0.00    +0.000 A 
BRANCH   9  16
ATOM     15  C   UNL     1      -2.882  13.445  20.902  0.00  0.00    +0.000 C 
ATOM     16  O   UNL     1      -2.257  12.822  19.784  0.00  0.00    +0.000 OA
ENDBRANCH   9  16
ENDBRANCH   5  12
ENDBRANCH   1   7
BRANCH   2  17
ATOM     17  C   UNL     1       2.378   3.943  21.371  0.00  0.00    +0.000 C 
BRANCH  17  18
ATOM     18  N   UNL     1       3.388   3.623  20.399  0.00  0.00    +0.000 N 
ATOM     19  N   UNL     1       4.136   2.517  20.476  0.00  0.00    +0.000 NA
ATOM     20  N   UNL     1       4.946   2.588  19.432  0.00  0.00    +0.000 NA
ATOM     21  C   UNL     1       4.636   3.751  18.760  0.00  0.00    +0.000 A 
ATOM     22  N   UNL     1       3.641   4.434  19.354  0.00  0.00    +0.000 NA
BRANCH  21  23
ATOM     23  C   UNL     1       5.354   4.189  17.572  0.00  0.00    +0.000 A 
ATOM     24  C   UNL     1       5.127   3.599  16.328  0.00  0.00    +0.000 A 
ATOM     25  C   UNL     1       5.784   4.086  15.196  0.00  0.00    +0.000 A 
ATOM     26  C   UNL     1       6.684   5.157  15.283  0.00  0.00    +0.000 A 
ATOM     27  C   UNL     1       6.952   5.731  16.538  0.00  0.00    +0.000 A 
ATOM     28  C   UNL     1       6.277   5.240  17.666  0.00  0.00    +0.000 A 
BRANCH  26  29
ATOM     29  O   UNL     1       7.193   5.508  14.057  0.00  0.00    +0.000 OA
ATOM     30  C   UNL     1       7.191   4.543  13.015  0.00  0.00    +0.000 C 
ENDBRANCH  26  29
BRANCH  27  31
ATOM     31  O   UNL     1       7.869   6.745  16.612  0.00  0.00    +0.000 OA
ATOM     32  C   UNL     1       7.612   7.829  17.493  0.00  0.00    +0.000 C 
ENDBRANCH  27  31
ENDBRANCH  21  23
ENDBRANCH  17  18
ENDBRANCH   2  17
TORSDOF 8
ENDMDL
MODEL 7
REMARK VINA RESULT:      -7.0      2.418      3.025
REMARK  Name = 
REMARK  11 active torsions:
REMARK  status: ('A' for Active; 'I' for Inactive)
REMARK    1  A    between atoms: C_1  and  O_2
REMARK    2  A    between atoms: O_2  and  C_3
REMARK    3  A    between atoms: C_6  and  C_7
REMARK    4  A    between atoms: N_9  and  N_10
REMARK    5  A    between atoms: C_11  and  C_13
REMARK    6  A    between atoms: C_13  and  N_14
REMARK    7  A    between atoms: C_17  and  C_18
REMARK    8  A    between atoms: C_21  and  O_22
REMARK    9  A    between atoms: O_22  and  C_23
REMARK   10  A    between atoms: C_24  and  O_25
REMARK   11  A    between atoms: O_25  and  C_26
REMARK                            x       y       z     vdW  Elec       q    Type
REMARK                         _______ _______ _______ _____ _____    ______ ____
ROOT
ATOM      1  N   UNL     1       1.391   8.285  19.609  0.00  0.00    +0.000 N 
ATOM      2  C   UNL     1       1.536   7.708  20.860  0.00  0.00    +0.000 C 
ATOM      3  O   UNL     1       1.615   8.396  21.880  0.00  0.00    +0.000 OA
ATOM      4  H   UNL     1       1.466   7.774  18.726  0.00  0.00    +0.000 HD
ENDROOT
BRANCH   1   7
ATOM      5  C   UNL     1       0.681  10.382  18.657  0.00  0.00    +0.000 C 
ATOM      6  O   UNL     1      -0.100   9.816  17.897  0.00  0.00    +0.000 OA
ATOM      7  N   UNL     1       1.478   9.684  19.543  0.00  0.00    +0.000 N 
ATOM      8  H   UNL     1       2.147  10.102  20.182  0.00  0.00    +0.000 HD
BRANCH   5  12
ATOM      9  C   UNL     1       0.942  14.702  18.674  0.00  0.00    +0.000 A 
ATOM     10  C   UNL     1      -0.276  14.051  18.872  0.00  0.00    +0.000 A 
ATOM     11  C   UNL     1      -0.342  12.650  18.876  0.00  0.00    +0.000 A 
ATOM     12  C   UNL     1       0.810  11.879  18.658  0.00  0.00    +0.000 A 
ATOM     13  C   UNL     1       2.026  12.544  18.449  0.00  0.00    +0.000 A 
ATOM     14  C   UNL     1       2.090  13.946  18.454  0.00  0.00    +0.000 A 
BRANCH   9  16
ATOM     15  C   UNL     1      -0.399  16.639  18.469  0.00  0.00    +0.000 C 
ATOM     16  O   UNL     1       0.890  16.070  18.675  0.00  0.00    +0.000 OA
ENDBRANCH   9  16
ENDBRANCH   5  12
ENDBRANCH   1   7
BRANCH   2  17
ATOM     17  C   UNL     1       1.499   6.208  20.910  0.00  0.00    +0.000 C 
BRANCH  17  18
ATOM     18  N   UNL     1       2.099   5.645  19.730  0.00  0.00    +0.000 N 
ATOM     19  N   UNL     1       1.521   4.665  19.027  0.00  0.00    +0.000 NA
ATOM     20  N   UNL     1       2.373   4.411  18.046  0.00  0.00    +0.000 NA
ATOM     21  C   UNL     1       3.438   5.271  18.205  0.00  0.00    +0.000 A 
ATOM     22  N   UNL     1       3.291   6.075  19.274  0.00  0.00    +0.000 NA
BRANCH  21  23
ATOM     23  C   UNL     1       4.600   5.257  17.329  0.00  0.00    +0.000 A 
ATOM     24  C   UNL     1       4.690   4.368  16.258  0.00  0.00    +0.000 A 
ATOM     25  C   UNL     1       5.789   4.422  15.397  0.00  0.00    +0.000 A 
ATOM     26  C   UNL     1       6.820   5.352  15.593  0.00  0.00    +0.000 A 
ATOM     27  C   UNL     1       6.760   6.225  16.694  0.00  0.00    +0.000 A 
ATOM     28  C   UNL     1       5.645   6.167  17.545  0.00  0.00    +0.000 A 
BRANCH  26  29
ATOM     29  O   UNL     1       7.785   5.270  14.620  0.00  0.00    +0.000 OA
ATOM     30  C   UNL     1       7.401   4.890  13.307  0.00  0.00    +0.000 C 
ENDBRANCH  26  29
BRANCH  27  31
ATOM     31  O   UNL     1       7.797   7.095  16.898  0.00  0.00    +0.000 OA
ATOM     32  C   UNL     1       7.553   8.278  17.644  0.00  0.00    +0.000 C 
ENDBRANCH  27  31
ENDBRANCH  21  23
ENDBRANCH  17  18
ENDBRANCH   2  17
TORSDOF 8
ENDMDL
MODEL 8
REMARK VINA RESULT:      -6.8      2.867      3.778
REMARK  Name = 
REMARK  11 active torsions:
REMARK  status: ('A' for Active; 'I' for Inactive)
REMARK    1  A    between atoms: C_1  and  O_2
REMARK    2  A    between atoms: O_2  and  C_3
REMARK    3  A    between atoms: C_6  and  C_7
REMARK    4  A    between atoms: N_9  and  N_10
REMARK    5  A    between atoms: C_11  and  C_13
REMARK    6  A    between atoms: C_13  and  N_14
REMARK    7  A    between atoms: C_17  and  C_18
REMARK    8  A    between atoms: C_21  and  O_22
REMARK    9  A    between atoms: O_22  and  C_23
REMARK   10  A    between atoms: C_24  and  O_25
REMARK   11  A    between atoms: O_25  and  C_26
REMARK                            x       y       z     vdW  Elec       q    Type
REMARK                         _______ _______ _______ _____ _____    ______ ____
ROOT
ATOM      1  N   UNL     1       1.121   8.926  19.550  0.00  0.00    +0.000 N 
ATOM      2  C   UNL     1       1.329   8.395  20.814  0.00  0.00    +0.000 C 
ATOM      3  O   UNL     1       1.753   9.089  21.740  0.00  0.00    +0.000 OA
ATOM      4  H   UNL     1       0.912   8.369  18.719  0.00  0.00    +0.000 HD
ENDROOT
BRANCH   1   7
ATOM      5  C   UNL     1       0.626  11.220  19.001  0.00  0.00    +0.000 C 
ATOM      6  O   UNL     1      -0.567  10.966  18.853  0.00  0.00    +0.000 OA
ATOM      7  N   UNL     1       1.545  10.247  19.341  0.00  0.00    +0.000 N 
ATOM      8  H   UNL     1       2.541  10.401  19.463  0.00  0.00    +0.000 HD
BRANCH   5  12
ATOM      9  C   UNL     1       2.229  15.200  18.439  0.00  0.00    +0.000 A 
ATOM     10  C   UNL     1       2.997  14.067  18.170  0.00  0.00    +0.000 A 
ATOM     11  C   UNL     1       2.459  12.784  18.345  0.00  0.00    +0.000 A 
ATOM     12  C   UNL     1       1.148  12.616  18.816  0.00  0.00    +0.000 A 
ATOM     13  C   UNL     1       0.389  13.762  19.095  0.00  0.00    +0.000 A 
ATOM     14  C   UNL     1       0.928  15.043  18.911  0.00  0.00    +0.000 A 
BRANCH   9  16
ATOM     15  C   UNL     1       4.108  16.557  18.910  0.00  0.00    +0.000 C 
ATOM     16  O   UNL     1       2.856  16.401  18.248  0.00  0.00    +0.000 OA
ENDBRANCH   9  16
ENDBRANCH   5  12
ENDBRANCH   1   7
BRANCH   2  17
ATOM     17  C   UNL     1       0.924   6.963  21.009  0.00  0.00    +0.000 C 
BRANCH  17  18
ATOM     18  N   UNL     1       1.911   6.075  20.457  0.00  0.00    +0.000 N 
ATOM     19  N   UNL     1       2.129   4.849  20.945  0.00  0.00    +0.000 NA
ATOM     20  N   UNL     1       3.106   4.361  20.198  0.00  0.00    +0.000 NA
ATOM     21  C   UNL     1       3.431   5.332  19.275  0.00  0.00    +0.000 A 
ATOM     22  N   UNL     1       2.681   6.440  19.414  0.00  0.00    +0.000 NA
BRANCH  21  23
ATOM     23  C   UNL     1       4.500   5.168  18.302  0.00  0.00    +0.000 A 
ATOM     24  C   UNL     1       4.385   4.269  17.241  0.00  0.00    +0.000 A 
ATOM     25  C   UNL     1       5.402   4.181  16.288  0.00  0.00    +0.000 A 
ATOM     26  C   UNL     1       6.554   4.976  16.379  0.00  0.00    +0.000 A 
ATOM     27  C   UNL     1       6.700   5.854  17.467  0.00  0.00    +0.000 A 
ATOM     28  C   UNL     1       5.665   5.941  18.412  0.00  0.00    +0.000 A 
BRANCH  26  29
ATOM     29  O   UNL     1       7.412   4.768  15.328  0.00  0.00    +0.000 OA
ATOM     30  C   UNL     1       6.879   4.694  14.014  0.00  0.00    +0.000 C 
ENDBRANCH  26  29
BRANCH  27  31
ATOM     31  O   UNL     1       7.851   6.588  17.567  0.00  0.00    +0.000 OA
ATOM     32  C   UNL     1       7.752   8.005  17.589  0.00  0.00    +0.000 C 
ENDBRANCH  27  31
ENDBRANCH  21  23
ENDBRANCH  17  18
ENDBRANCH   2  17
TORSDOF 8
ENDMDL
MODEL 9
REMARK VINA RESULT:      -6.7      4.228     11.505
REMARK  Name = 
REMARK  11 active torsions:
REMARK  status: ('A' for Active; 'I' for Inactive)
REMARK    1  A    between atoms: C_1  and  O_2
REMARK    2  A    between atoms: O_2  and  C_3
REMARK    3  A    between atoms: C_6  and  C_7
REMARK    4  A    between atoms: N_9  and  N_10
REMARK    5  A    between atoms: C_11  and  C_13
REMARK    6  A    between atoms: C_13  and  N_14
REMARK    7  A    between atoms: C_17  and  C_18
REMARK    8  A    between atoms: C_21  and  O_22
REMARK    9  A    between atoms: O_22  and  C_23
REMARK   10  A    between atoms: C_24  and  O_25
REMARK   11  A    between atoms: O_25  and  C_26
REMARK                            x       y       z     vdW  Elec       q    Type
REMARK                         _______ _______ _______ _____ _____    ______ ____
ROOT
ATOM      1  N   UNL     1       0.881  10.349  19.282  0.00  0.00    +0.000 N 
ATOM      2  C   UNL     1       1.569  11.416  18.725  0.00  0.00    +0.000 C 
ATOM      3  O   UNL     1       2.494  11.238  17.929  0.00  0.00    +0.000 OA
ATOM      4  H   UNL     1       0.211  10.434  20.050  0.00  0.00    +0.000 HD
ENDROOT
BRANCH   1   7
ATOM      5  C   UNL     1       1.668   8.203  20.044  0.00  0.00    +0.000 C 
ATOM      6  O   UNL     1       1.533   8.529  21.220  0.00  0.00    +0.000 OA
ATOM      7  N   UNL     1       1.373   9.065  19.006  0.00  0.00    +0.000 N 
ATOM      8  H   UNL     1       1.479   8.849  18.019  0.00  0.00    +0.000 HD
BRANCH   5  12
ATOM      9  C   UNL     1       3.067   4.224  19.073  0.00  0.00    +0.000 A 
ATOM     10  C   UNL     1       2.339   4.470  20.238  0.00  0.00    +0.000 A 
ATOM     11  C   UNL     1       1.882   5.763  20.531  0.00  0.00    +0.000 A 
ATOM     12  C   UNL     1       2.168   6.836  19.673  0.00  0.00    +0.000 A 
ATOM     13  C   UNL     1       2.911   6.579  18.512  0.00  0.00    +0.000 A 
ATOM     14  C   UNL     1       3.359   5.283  18.217  0.00  0.00    +0.000 A 
BRANCH   9  16
ATOM     15  C   UNL     1       4.362   2.418  19.882  0.00  0.00    +0.000 C 
ATOM     16  O   UNL     1       3.476   2.931  18.892  0.00  0.00    +0.000 OA
ENDBRANCH   9  16
ENDBRANCH   5  12
ENDBRANCH   1   7
BRANCH   2  17
ATOM     17  C   UNL     1       1.068  12.787  19.075  0.00  0.00    +0.000 C 
BRANCH  17  18
ATOM     18  N   UNL     1       0.276  12.748  20.274  0.00  0.00    +0.000 N 
ATOM     19  N   UNL     1       0.803  12.489  21.476  0.00  0.00    +0.000 NA
ATOM     20  N   UNL     1      -0.227  12.523  22.306  0.00  0.00    +0.000 NA
ATOM     21  C   UNL     1      -1.344  12.813  21.551  0.00  0.00    +0.000 A 
ATOM     22  N   UNL     1      -1.053  12.965  20.247  0.00  0.00    +0.000 NA
BRANCH  21  23
ATOM     23  C   UNL     1      -2.681  12.893  22.121  0.00  0.00    +0.000 A 
ATOM     24  C   UNL     1      -2.944  12.455  23.419  0.00  0.00    +0.000 A 
ATOM     25  C   UNL     1      -4.223  12.604  23.959  0.00  0.00    +0.000 A 
ATOM     26  C   UNL     1      -5.263  13.180  23.215  0.00  0.00    +0.000 A 
ATOM     27  C   UNL     1      -5.020  13.586  21.892  0.00  0.00    +0.000 A 
ATOM     28  C   UNL     1      -3.726  13.440  21.365  0.00  0.00    +0.000 A 
BRANCH  26  29
ATOM     29  O   UNL     1      -6.428  13.271  23.936  0.00  0.00    +0.000 OA
ATOM     30  C   UNL     1      -7.433  12.287  23.738  0.00  0.00    +0.000 C 
ENDBRANCH  26  29
BRANCH  27  31
ATOM     31  O   UNL     1      -6.057  14.103  21.164  0.00  0.00    +0.000 OA
ATOM     32  C   UNL     1      -6.103  15.506  20.950  0.00  0.00    +0.000 C 
ENDBRANCH  27  31
ENDBRANCH  21  23
ENDBRANCH  17  18
ENDBRANCH   2  17
TORSDOF 8
ENDMDL
