MODEL 1
REMARK VINA RESULT:      -7.5      0.000      0.000
REMARK  Name = 
REMARK  10 active torsions:
REMARK  status: ('A' for Active; 'I' for Inactive)
REMARK    1  A    between atoms: C_1  and  C_2
REMARK    2  A    between atoms: C_2  and  C_3
REMARK    3  A    between atoms: C_2  and  C_4
REMARK    4  A    between atoms: C_4  and  N_5
REMARK    5  A    between atoms: N_5  and  C_6
REMARK    6  A    between atoms: N_5  and  S_15
REMARK    7  A    between atoms: C_6  and  C_7
REMARK    8  A    between atoms: C_7  and  O_8
REMARK    9  A    between atoms: C_7  and  C_9
REMARK   10  A    between atoms: S_15  and  C_18
REMARK                            x       y       z     vdW  Elec       q    Type
REMARK                         _______ _______ _______ _____ _____    ______ ____
ROOT
ATOM      1  N   UNL     1       3.194   4.554  19.162  0.00  0.00    +0.000 NA
ENDROOT
BRANCH   1   2
ATOM      2  S   UNL     1       4.404   3.366  18.705  0.00  0.00    +0.000 S 
ATOM      3  O   UNL     1       5.320   3.186  19.808  0.00  0.00    +0.000 OA
ATOM      4  O   UNL     1       3.682   2.234  18.158  0.00  0.00    +0.000 OA
BRANCH   2   5
ATOM      5  C   UNL     1       5.338   4.075  17.386  0.00  0.00    +0.000 A 
ATOM      6  C   UNL     1       4.814   4.187  16.101  0.00  0.00    +0.000 A 
ATOM      7  C   UNL     1       5.617   4.703  15.087  0.00  0.00    +0.000 A 
ATOM      8  C   UNL     1       6.922   5.064  15.408  0.00  0.00    +0.000 A 
ATOM      9  N   UNL     1       7.445   4.978  16.647  0.00  0.00    +0.000 NA
ATOM     10  C   UNL     1       6.648   4.457  17.620  0.00  0.00    +0.000 A 
ENDBRANCH   2   5
ENDBRANCH   1   2
BRANCH   1  11
ATOM     11  C   UNL     1       2.744   4.313  20.598  0.00  0.00    +0.000 C 
BRANCH  11  13
ATOM     12  C   UNL     1       0.669   3.250  19.527  0.00  0.00    +0.000 C 
ATOM     13  C   UNL     1       1.349   3.684  20.830  0.00  0.00    +0.000 C 
ATOM     14  C   UNL     1       1.491   2.473  21.778  0.00  0.00    +0.000 C 
ENDBRANCH  11  13
ENDBRANCH   1  11
BRANCH   1  15
ATOM     15  C   UNL     1       3.743   5.977  18.965  0.00  0.00    +0.000 C 
BRANCH  15  16
ATOM     16  C   UNL     1       2.997   6.966  18.007  0.00  0.00    +0.000 C 
BRANCH  16  17
ATOM     17  C   UNL     1       2.150   8.058  18.646  0.00  0.00    +0.000 A 
ATOM     18  C   UNL     1       1.766   7.964  19.994  0.00  0.00    +0.000 A 
ATOM     19  C   UNL     1       1.021   8.977  20.608  0.00  0.00    +0.000 A 
ATOM     20  C   UNL     1       0.627  10.096  19.881  0.00  0.00    +0.000 A 
ATOM     21  C   UNL     1       0.939  10.176  18.525  0.00  0.00    +0.000 A 
ATOM     22  C   UNL     1       1.685   9.163  17.912  0.00  0.00    +0.000 A 
ENDBRANCH  16  17
BRANCH  16  23
ATOM     23  O   UNL     1       4.019   7.610  17.208  0.00  0.00    +0.000 OA
ATOM     24  H   UNL     1       4.829   7.627  17.748  0.00  0.00    +0.000 HD
ENDBRANCH  16  23
ENDBRANCH  15  16
ENDBRANCH   1  15
TORSDOF 8
ENDMDL
MODEL 2
REMARK VINA RESULT:      -7.3      0.992      1.135
REMARK  Name = 
REMARK  10 active torsions:
REMARK  status: ('A' for Active; 'I' for Inactive)
REMARK    1  A    between atoms: C_1  and  C_2
REMARK    2  A    between atoms: C_2  and  C_3
REMARK    3  A    between atoms: C_2  and  C_4
REMARK    4  A    between atoms: C_4  and  N_5
REMARK    5  A    between atoms: N_5  and  C_6
REMARK    6  A    between atoms: N_5  and  S_15
REMARK    7  A    between atoms: C_6  and  C_7
REMARK    8  A    between atoms: C_7  and  O_8
REMARK    9  A    between atoms: C_7  and  C_9
REMARK   10  A    between atoms: S_15  and  C_18
REMARK                            x       y       z     vdW  Elec       q    Type
REMARK                         _______ _______ _______ _____ _____    ______ ____
ROOT
ATOM      1  N   UNL     1       3.631   5.207  18.964  0.00  0.00    +0.000 NA
ENDROOT
BRANCH   1   2
ATOM      2  S   UNL     1       5.272   4.579  18.957  0.00  0.00    +0.000 S 
ATOM      3  O   UNL     1       6.115   5.470  19.721  0.00  0.00    +0.000 OA
ATOM      4  O   UNL     1       5.176   3.177  19.310  0.00  0.00    +0.000 OA
BRANCH   2   5
ATOM      5  C   UNL     1       5.837   4.660  17.288  0.00  0.00    +0.000 A 
ATOM      6  C   UNL     1       5.128   4.065  16.249  0.00  0.00    +0.000 A 
ATOM      7  C   UNL     1       5.651   4.112  14.959  0.00  0.00    +0.000 A 
ATOM      8  C   UNL     1       6.879   4.738  14.777  0.00  0.00    +0.000 A 
ATOM      9  N   UNL     1       7.578   5.332  15.764  0.00  0.00    +0.000 NA
ATOM     10  C   UNL     1       7.055   5.262  17.020  0.00  0.00    +0.000 A 
ENDBRANCH   2   5
ENDBRANCH   1   2
BRANCH   1  11
ATOM     11  C   UNL     1       2.883   4.693  20.189  0.00  0.00    +0.000 C 
BRANCH  11  13
ATOM     12  C   UNL     1       1.205   3.650  18.554  0.00  0.00    +0.000 C 
ATOM     13  C   UNL     1       1.458   4.123  19.989  0.00  0.00    +0.000 C 
ATOM     14  C   UNL     1       1.237   2.955  20.975  0.00  0.00    +0.000 C 
ENDBRANCH  11  13
ENDBRANCH   1  11
BRANCH   1  15
ATOM     15  C   UNL     1       3.648   6.743  18.906  0.00  0.00    +0.000 C 
BRANCH  15  16
ATOM     16  C   UNL     1       2.421   7.505  18.301  0.00  0.00    +0.000 C 
BRANCH  16  17
ATOM     17  C   UNL     1       1.658   8.449  19.221  0.00  0.00    +0.000 A 
ATOM     18  C   UNL     1       1.535   8.163  20.591  0.00  0.00    +0.000 A 
ATOM     19  C   UNL     1       0.871   9.038  21.458  0.00  0.00    +0.000 A 
ATOM     20  C   UNL     1       0.299  10.209  20.968  0.00  0.00    +0.000 A 
ATOM     21  C   UNL     1       0.352  10.478  19.602  0.00  0.00    +0.000 A 
ATOM     22  C   UNL     1       1.016   9.602  18.736  0.00  0.00    +0.000 A 
ENDBRANCH  16  17
BRANCH  16  23
ATOM     23  O   UNL     1       2.930   8.285  17.192  0.00  0.00    +0.000 OA
ATOM     24  H   UNL     1       2.715   7.793  16.380  0.00  0.00    +0.000 HD
ENDBRANCH  16  23
ENDBRANCH  15  16
ENDBRANCH   1  15
TORSDOF 8
ENDMDL
MODEL 3
REMARK VINA RESULT:      -7.3      1.063      1.371
REMARK  Name = 
REMARK  10 active torsions:
REMARK  status: ('A' for Active; 'I' for Inactive)
REMARK    1  A    between atoms: C_1  and  C_2
REMARK    2  A    between atoms: C_2  and  C_3
REMARK    3  A    between atoms: C_2  and  C_4
REMARK    4  A    between atoms: C_4  and  N_5
REMARK    5  A    between atoms: N_5  and  C_6
REMARK    6  A    between atoms: N_5  and  S_15
REMARK    7  A    between atoms: C_6  and  C_7
REMARK    8  A    between atoms: C_7  and  O_8
REMARK    9  A    between atoms: C_7  and  C_9
REMARK   10  A    between atoms: S_15  and  C_18
REMARK                            x       y       z     vdW  Elec       q    Type
REMARK                         _______ _______ _______ _____ _____    ______ ____
ROOT
ATOM      1  N   UNL     1       3.515   4.630  18.919  0.00  0.00    +0.000 NA
ENDROOT
BRANCH   1   2
ATOM      2  S   UNL     1       5.261   4.443  18.904  0.00  0.00    +0.000 S 
ATOM      3  O   UNL     1       5.852   5.526  19.655  0.00  0.00    +0.000 OA
ATOM      4  O   UNL     1       5.529   3.065  19.267  0.00  0.00    +0.000 OA
BRANCH   2   5
ATOM      5  C   UNL     1       5.778   4.651  17.230  0.00  0.00    +0.000 A 
ATOM      6  C   UNL     1       5.041   4.131  16.170  0.00  0.00    +0.000 A 
ATOM      7  C   UNL     1       5.526   4.277  14.872  0.00  0.00    +0.000 A 
ATOM      8  C   UNL     1       6.747   4.922  14.703  0.00  0.00    +0.000 A 
ATOM      9  N   UNL     1       7.471   5.444  15.712  0.00  0.00    +0.000 NA
ATOM     10  C   UNL     1       6.986   5.278  16.973  0.00  0.00    +0.000 A 
ENDBRANCH   2   5
ENDBRANCH   1   2
BRANCH   1  11
ATOM     11  C   UNL     1       2.886   3.568  19.814  0.00  0.00    +0.000 C 
BRANCH  11  13
ATOM     12  C   UNL     1       0.511   2.844  19.167  0.00  0.00    +0.000 C 
ATOM     13  C   UNL     1       2.001   2.485  19.151  0.00  0.00    +0.000 C 
ATOM     14  C   UNL     1       2.474   2.265  17.698  0.00  0.00    +0.000 C 
ENDBRANCH  11  13
ENDBRANCH   1  11
BRANCH   1  15
ATOM     15  C   UNL     1       3.135   6.052  19.363  0.00  0.00    +0.000 C 
BRANCH  15  16
ATOM     16  C   UNL     1       2.599   7.073  18.304  0.00  0.00    +0.000 C 
BRANCH  16  17
ATOM     17  C   UNL     1       1.918   8.332  18.824  0.00  0.00    +0.000 A 
ATOM     18  C   UNL     1       1.432   8.386  20.142  0.00  0.00    +0.000 A 
ATOM     19  C   UNL     1       0.839   9.547  20.649  0.00  0.00    +0.000 A 
ATOM     20  C   UNL     1       0.702  10.673  19.842  0.00  0.00    +0.000 A 
ATOM     21  C   UNL     1       1.117  10.618  18.513  0.00  0.00    +0.000 A 
ATOM     22  C   UNL     1       1.710   9.456  18.007  0.00  0.00    +0.000 A 
ENDBRANCH  16  17
BRANCH  16  23
ATOM     23  O   UNL     1       3.743   7.484  17.516  0.00  0.00    +0.000 OA
ATOM     24  H   UNL     1       4.494   6.935  17.804  0.00  0.00    +0.000 HD
ENDBRANCH  16  23
ENDBRANCH  15  16
ENDBRANCH   1  15
TORSDOF 8
ENDMDL
MODEL 4
REMARK VINA RESULT:      -7.2      1.397      4.574
REMARK  Name = 
REMARK  10 active torsions:
REMARK  status: ('A' for Active; 'I' for Inactive)
REMARK    1  A    between atoms: C_1  and  C_2
REMARK    2  A    between atoms: C_2  and  C_3
REMARK    3  A    between atoms: C_2  and  C_4
REMARK    4  A    between atoms: C_4  and  N_5
REMARK    5  A    between atoms: N_5  and  C_6
REMARK    6  A    between atoms: N_5  and  S_15
REMARK    7  A    between atoms: C_6  and  C_7
REMARK    8  A    between atoms: C_7  and  O_8
REMARK    9  A    between atoms: C_7  and  C_9
REMARK   10  A    between atoms: S_15  and  C_18
REMARK                            x       y       z     vdW  Elec       q    Type
REMARK                         _______ _______ _______ _____ _____    ______ ____
ROOT
ATOM      1  N   UNL     1       4.590   4.001  17.587  0.00  0.00    +0.000 NA
ENDROOT
BRANCH   1   2
ATOM      2  S   UNL     1       3.334   2.783  17.739  0.00  0.00    +0.000 S 
ATOM      3  O   UNL     1       2.238   3.133  16.866  0.00  0.00    +0.000 OA
ATOM      4  O   UNL     1       3.992   1.498  17.612  0.00  0.00    +0.000 OA
BRANCH   2   5
ATOM      5  C   UNL     1       2.719   2.894  19.389  0.00  0.00    +0.000 A 
ATOM      6  C   UNL     1       1.504   3.511  19.673  0.00  0.00    +0.000 A 
ATOM      7  C   UNL     1       1.095   3.619  21.000  0.00  0.00    +0.000 A 
ATOM      8  C   UNL     1       1.940   3.118  21.985  0.00  0.00    +0.000 A 
ATOM      9  N   UNL     1       3.113   2.505  21.733  0.00  0.00    +0.000 NA
ATOM     10  C   UNL     1       3.501   2.423  20.430  0.00  0.00    +0.000 A 
ENDBRANCH   2   5
ENDBRANCH   1   2
BRANCH   1  11
ATOM     11  C   UNL     1       4.845   4.305  16.115  0.00  0.00    +0.000 C 
BRANCH  11  13
ATOM     12  C   UNL     1       6.202   3.958  13.965  0.00  0.00    +0.000 C 
ATOM     13  C   UNL     1       6.180   3.828  15.492  0.00  0.00    +0.000 C 
ATOM     14  C   UNL     1       7.343   4.636  16.106  0.00  0.00    +0.000 C 
ENDBRANCH  11  13
ENDBRANCH   1  11
BRANCH   1  15
ATOM     15  C   UNL     1       4.206   5.265  18.374  0.00  0.00    +0.000 C 
BRANCH  15  16
ATOM     16  C   UNL     1       3.514   6.456  17.630  0.00  0.00    +0.000 C 
BRANCH  16  17
ATOM     17  C   UNL     1       2.621   7.375  18.453  0.00  0.00    +0.000 A 
ATOM     18  C   UNL     1       2.349   7.084  19.800  0.00  0.00    +0.000 A 
ATOM     19  C   UNL     1       1.563   7.937  20.582  0.00  0.00    +0.000 A 
ATOM     20  C   UNL     1       1.015   9.090  20.027  0.00  0.00    +0.000 A 
ATOM     21  C   UNL     1       1.218   9.362  18.675  0.00  0.00    +0.000 A 
ATOM     22  C   UNL     1       2.005   8.508  17.895  0.00  0.00    +0.000 A 
ENDBRANCH  16  17
BRANCH  16  23
ATOM     23  O   UNL     1       4.580   7.262  17.069  0.00  0.00    +0.000 OA
ATOM     24  H   UNL     1       4.495   8.150  17.458  0.00  0.00    +0.000 HD
ENDBRANCH  16  23
ENDBRANCH  15  16
ENDBRANCH   1  15
TORSDOF 8
ENDMDL
MODEL 5
REMARK VINA RESULT:      -7.2      3.494      5.640
REMARK  Name = 
REMARK  10 active torsions:
REMARK  status: ('A' for Active; 'I' for Inactive)
REMARK    1  A    between atoms: C_1  and  C_2
REMARK    2  A    between atoms: C_2  and  C_3
REMARK    3  A    between atoms: C_2  and  C_4
REMARK    4  A    between atoms: C_4  and  N_5
REMARK    5  A    between atoms: N_5  and  C_6
REMARK    6  A    between atoms: N_5  and  S_15
REMARK    7  A    between atoms: C_6  and  C_7
REMARK    8  A    between atoms: C_7  and  O_8
REMARK    9  A    between atoms: C_7  and  C_9
REMARK   10  A    between atoms: S_15  and  C_18
REMARK                            x       y       z     vdW  Elec       q    Type
REMARK                         _______ _______ _______ _____ _____    ______ ____
ROOT
ATOM      1  N   UNL     1       4.680   4.209  16.175  0.00  0.00    +0.000 NA
ENDROOT
BRANCH   1   2
ATOM      2  S   UNL     1       4.619   5.831  16.845  0.00  0.00    +0.000 S 
ATOM      3  O   UNL     1       4.826   6.784  15.778  0.00  0.00    +0.000 OA
ATOM      4  O   UNL     1       3.422   5.892  17.661  0.00  0.00    +0.000 OA
BRANCH   2   5
ATOM      5  C   UNL     1       6.000   5.983  17.931  0.00  0.00    +0.000 A 
ATOM      6  C   UNL     1       7.080   6.806  17.626  0.00  0.00    +0.000 A 
ATOM      7  C   UNL     1       8.169   6.843  18.494  0.00  0.00    +0.000 A 
ATOM      8  C   UNL     1       8.130   6.031  19.623  0.00  0.00    +0.000 A 
ATOM      9  N   UNL     1       7.090   5.237  19.946  0.00  0.00    +0.000 NA
ATOM     10  C   UNL     1       6.043   5.205  19.076  0.00  0.00    +0.000 A 
ENDBRANCH   2   5
ENDBRANCH   1   2
BRANCH   1  11
ATOM     11  C   UNL     1       6.000   3.998  15.441  0.00  0.00    +0.000 C 
BRANCH  11  13
ATOM     12  C   UNL     1       7.538   5.122  13.722  0.00  0.00    +0.000 C 
ATOM     13  C   UNL     1       6.138   4.568  14.009  0.00  0.00    +0.000 C 
ATOM     14  C   UNL     1       5.791   3.463  12.988  0.00  0.00    +0.000 C 
ENDBRANCH  11  13
ENDBRANCH   1  11
BRANCH   1  15
ATOM     15  C   UNL     1       4.469   3.165  17.284  0.00  0.00    +0.000 C 
BRANCH  15  16
ATOM     16  C   UNL     1       3.030   2.612  17.559  0.00  0.00    +0.000 C 
BRANCH  16  17
ATOM     17  C   UNL     1       2.488   2.738  18.976  0.00  0.00    +0.000 A 
ATOM     18  C   UNL     1       3.317   2.480  20.081  0.00  0.00    +0.000 A 
ATOM     19  C   UNL     1       2.847   2.629  21.390  0.00  0.00    +0.000 A 
ATOM     20  C   UNL     1       1.531   3.021  21.622  0.00  0.00    +0.000 A 
ATOM     21  C   UNL     1       0.675   3.217  20.541  0.00  0.00    +0.000 A 
ATOM     22  C   UNL     1       1.146   3.068  19.232  0.00  0.00    +0.000 A 
ENDBRANCH  16  17
BRANCH  16  23
ATOM     23  O   UNL     1       2.138   3.337  16.678  0.00  0.00    +0.000 OA
ATOM     24  H   UNL     1       1.673   3.993  17.226  0.00  0.00    +0.000 HD
ENDBRANCH  16  23
ENDBRANCH  15  16
ENDBRANCH   1  15
TORSDOF 8
ENDMDL
MODEL 6
REMARK VINA RESULT:      -7.2      1.845      5.778
REMARK  Name = 
REMARK  10 active torsions:
REMARK  status: ('A' for Active; 'I' for Inactive)
REMARK    1  A    between atoms: C_1  and  C_2
REMARK    2  A    between atoms: C_2  and  C_3
REMARK    3  A    between atoms: C_2  and  C_4
REMARK    4  A    between atoms: C_4  and  N_5
REMARK    5  A    between atoms: N_5  and  C_6
REMARK    6  A    between atoms: N_5  and  S_15
REMARK    7  A    between atoms: C_6  and  C_7
REMARK    8  A    between atoms: C_7  and  O_8
REMARK    9  A    between atoms: C_7  and  C_9
REMARK   10  A    between atoms: S_15  and  C_18
REMARK                            x       y       z     vdW  Elec       q    Type
REMARK                         _______ _______ _______ _____ _____    ______ ____
ROOT
ATOM      1  N   UNL     1       4.942   3.961  16.681  0.00  0.00    +0.000 NA
ENDROOT
BRANCH   1   2
ATOM      2  S   UNL     1       5.506   5.076  17.916  0.00  0.00    +0.000 S 
ATOM      3  O   UNL     1       5.787   4.331  19.122  0.00  0.00    +0.000 OA
ATOM      4  O   UNL     1       6.536   5.887  17.298  0.00  0.00    +0.000 OA
BRANCH   2   5
ATOM      5  C   UNL     1       4.153   6.145  18.289  0.00  0.00    +0.000 A 
ATOM      6  C   UNL     1       3.801   7.195  17.445  0.00  0.00    +0.000 A 
ATOM      7  C   UNL     1       2.760   8.042  17.818  0.00  0.00    +0.000 A 
ATOM      8  C   UNL     1       2.133   7.806  19.038  0.00  0.00    +0.000 A 
ATOM      9  N   UNL     1       2.448   6.789  19.864  0.00  0.00    +0.000 NA
ATOM     10  C   UNL     1       3.478   5.982  19.487  0.00  0.00    +0.000 A 
ENDBRANCH   2   5
ENDBRANCH   1   2
BRANCH   1  11
ATOM     11  C   UNL     1       6.046   3.716  15.659  0.00  0.00    +0.000 C 
BRANCH  11  13
ATOM     12  C   UNL     1       7.341   5.122  13.949  0.00  0.00    +0.000 C 
ATOM     13  C   UNL     1       5.993   4.497  14.325  0.00  0.00    +0.000 C 
ATOM     14  C   UNL     1       5.522   3.549  13.201  0.00  0.00    +0.000 C 
ENDBRANCH  11  13
ENDBRANCH   1  11
BRANCH   1  15
ATOM     15  C   UNL     1       4.456   2.653  17.325  0.00  0.00    +0.000 C 
BRANCH  15  16
ATOM     16  C   UNL     1       2.927   2.446  17.592  0.00  0.00    +0.000 C 
BRANCH  16  17
ATOM     17  C   UNL     1       2.424   2.675  19.011  0.00  0.00    +0.000 A 
ATOM     18  C   UNL     1       1.165   3.257  19.235  0.00  0.00    +0.000 A 
ATOM     19  C   UNL     1       0.671   3.439  20.532  0.00  0.00    +0.000 A 
ATOM     20  C   UNL     1       1.435   3.061  21.632  0.00  0.00    +0.000 A 
ATOM     21  C   UNL     1       2.714   2.544  21.433  0.00  0.00    +0.000 A 
ATOM     22  C   UNL     1       3.207   2.362  20.136  0.00  0.00    +0.000 A 
ENDBRANCH  16  17
BRANCH  16  23
ATOM     23  O   UNL     1       2.231   3.371  16.722  0.00  0.00    +0.000 OA
ATOM     24  H   UNL     1       1.301   3.384  17.011  0.00  0.00    +0.000 HD
ENDBRANCH  16  23
ENDBRANCH  15  16
ENDBRANCH   1  15
TORSDOF 8
ENDMDL
MODEL 7
REMARK VINA RESULT:      -7.2      1.519      4.679
REMARK  Name = 
REMARK  10 active torsions:
REMARK  status: ('A' for Active; 'I' for Inactive)
REMARK    1  A    between atoms: C_1  and  C_2
REMARK    2  A    between atoms: C_2  and  C_3
REMARK    3  A    between atoms: C_2  and  C_4
REMARK    4  A    between atoms: C_4  and  N_5
REMARK    5  A    between atoms: N_5  and  C_6
REMARK    6  A    between atoms: N_5  and  S_15
REMARK    7  A    between atoms: C_6  and  C_7
REMARK    8  A    between atoms: C_7  and  O_8
REMARK    9  A    between atoms: C_7  and  C_9
REMARK   10  A    between atoms: S_15  and  C_18
REMARK                            x       y       z     vdW  Elec       q    Type
REMARK                         _______ _______ _______ _____ _____    ______ ____
ROOT
ATOM      1  N   UNL     1       4.269   4.075  17.607  0.00  0.00    +0.000 NA
ENDROOT
BRANCH   1   2
ATOM      2  S   UNL     1       3.239   2.661  17.760  0.00  0.00    +0.000 S 
ATOM      3  O   UNL     1       2.114   2.805  16.864  0.00  0.00    +0.000 OA
ATOM      4  O   UNL     1       4.110   1.506  17.665  0.00  0.00    +0.000 OA
BRANCH   2   5
ATOM      5  C   UNL     1       2.584   2.687  19.398  0.00  0.00    +0.000 A 
ATOM      6  C   UNL     1       1.259   3.033  19.647  0.00  0.00    +0.000 A 
ATOM      7  C   UNL     1       0.812   3.091  20.965  0.00  0.00    +0.000 A 
ATOM      8  C   UNL     1       1.727   2.818  21.976  0.00  0.00    +0.000 A 
ATOM      9  N   UNL     1       3.010   2.469  21.758  0.00  0.00    +0.000 NA
ATOM     10  C   UNL     1       3.430   2.432  20.464  0.00  0.00    +0.000 A 
ENDBRANCH   2   5
ENDBRANCH   1   2
BRANCH   1  11
ATOM     11  C   UNL     1       5.123   3.963  16.348  0.00  0.00    +0.000 C 
BRANCH  11  13
ATOM     12  C   UNL     1       7.450   4.582  17.232  0.00  0.00    +0.000 C 
ATOM     13  C   UNL     1       6.350   4.896  16.213  0.00  0.00    +0.000 C 
ATOM     14  C   UNL     1       6.913   4.787  14.779  0.00  0.00    +0.000 C 
ENDBRANCH  11  13
ENDBRANCH   1  11
BRANCH   1  15
ATOM     15  C   UNL     1       3.421   5.356  17.610  0.00  0.00    +0.000 C 
BRANCH  15  16
ATOM     16  C   UNL     1       3.672   6.445  18.707  0.00  0.00    +0.000 C 
BRANCH  16  17
ATOM     17  C   UNL     1       2.637   7.554  18.846  0.00  0.00    +0.000 A 
ATOM     18  C   UNL     1       1.930   7.721  20.048  0.00  0.00    +0.000 A 
ATOM     19  C   UNL     1       1.004   8.758  20.207  0.00  0.00    +0.000 A 
ATOM     20  C   UNL     1       0.752   9.639  19.159  0.00  0.00    +0.000 A 
ATOM     21  C   UNL     1       1.395   9.450  17.937  0.00  0.00    +0.000 A 
ATOM     22  C   UNL     1       2.320   8.412  17.779  0.00  0.00    +0.000 A 
ENDBRANCH  16  17
BRANCH  16  23
ATOM     23  O   UNL     1       3.741   5.744  19.972  0.00  0.00    +0.000 OA
ATOM     24  H   UNL     1       3.820   6.422  20.666  0.00  0.00    +0.000 HD
ENDBRANCH  16  23
ENDBRANCH  15  16
ENDBRANCH   1  15
TORSDOF 8
ENDMDL
MODEL 8
REMARK VINA RESULT:      -7.2      1.095      1.602
REMARK  Name = 
REMARK  10 active torsions:
REMARK  status: ('A' for Active; 'I' for Inactive)
REMARK    1  A    between atoms: C_1  and  C_2
REMARK    2  A    between atoms: C_2  and  C_3
REMARK    3  A    between atoms: C_2  and  C_4
REMARK    4  A    between atoms: C_4  and  N_5
REMARK    5  A    between atoms: N_5  and  C_6
REMARK    6  A    between atoms: N_5  and  S_15
REMARK    7  A    between atoms: C_6  and  C_7
REMARK    8  A    between atoms: C_7  and  O_8
REMARK    9  A    between atoms: C_7  and  C_9
REMARK   10  A    between atoms: S_15  and  C_18
REMARK                            x       y       z     vdW  Elec       q    Type
REMARK                         _______ _______ _______ _____ _____    ______ ____
ROOT
ATOM      1  N   UNL     1       3.557   4.824  18.687  0.00  0.00    +0.000 NA
ENDROOT
BRANCH   1   2
ATOM      2  S   UNL     1       5.287   4.539  18.786  0.00  0.00    +0.000 S 
ATOM      3  O   UNL     1       5.893   5.612  19.541  0.00  0.00    +0.000 OA
ATOM      4  O   UNL     1       5.453   3.161  19.206  0.00  0.00    +0.000 OA
BRANCH   2   5
ATOM      5  C   UNL     1       5.916   4.663  17.142  0.00  0.00    +0.000 A 
ATOM      6  C   UNL     1       5.443   3.848  16.118  0.00  0.00    +0.000 A 
ATOM      7  C   UNL     1       6.016   3.951  14.853  0.00  0.00    +0.000 A 
ATOM      8  C   UNL     1       7.058   4.856  14.681  0.00  0.00    +0.000 A 
ATOM      9  N   UNL     1       7.524   5.664  15.653  0.00  0.00    +0.000 NA
ATOM     10  C   UNL     1       6.959   5.537  16.886  0.00  0.00    +0.000 A 
ENDBRANCH   2   5
ENDBRANCH   1   2
BRANCH   1  11
ATOM     11  C   UNL     1       2.799   3.610  19.211  0.00  0.00    +0.000 C 
BRANCH  11  13
ATOM     12  C   UNL     1       0.399   3.261  20.046  0.00  0.00    +0.000 C 
ATOM     13  C   UNL     1       1.789   3.822  20.364  0.00  0.00    +0.000 C 
ATOM     14  C   UNL     1       2.340   3.165  21.648  0.00  0.00    +0.000 C 
ENDBRANCH  11  13
ENDBRANCH   1  11
BRANCH   1  15
ATOM     15  C   UNL     1       3.183   6.106  19.448  0.00  0.00    +0.000 C 
BRANCH  15  16
ATOM     16  C   UNL     1       2.346   7.215  18.727  0.00  0.00    +0.000 C 
BRANCH  16  17
ATOM     17  C   UNL     1       1.627   8.233  19.603  0.00  0.00    +0.000 A 
ATOM     18  C   UNL     1       1.222   9.469  19.072  0.00  0.00    +0.000 A 
ATOM     19  C   UNL     1       0.525  10.399  19.851  0.00  0.00    +0.000 A 
ATOM     20  C   UNL     1       0.238  10.121  21.184  0.00  0.00    +0.000 A 
ATOM     21  C   UNL     1       0.690   8.930  21.748  0.00  0.00    +0.000 A 
ATOM     22  C   UNL     1       1.386   8.000  20.968  0.00  0.00    +0.000 A 
ENDBRANCH  16  17
BRANCH  16  23
ATOM     23  O   UNL     1       3.270   7.937  17.877  0.00  0.00    +0.000 OA
ATOM     24  H   UNL     1       4.159   7.591  18.070  0.00  0.00    +0.000 HD
ENDBRANCH  16  23
ENDBRANCH  15  16
ENDBRANCH   1  15
TORSDOF 8
ENDMDL
MODEL 9
REMARK VINA RESULT:      -7.1      2.294      5.649
REMARK  Name = 
REMARK  10 active torsions:
REMARK  status: ('A' for Active; 'I' for Inactive)
REMARK    1  A    between atoms: C_1  and  C_2
REMARK    2  A    between atoms: C_2  and  C_3
REMARK    3  A    between atoms: C_2  and  C_4
REMARK    4  A    between atoms: C_4  and  N_5
REMARK    5  A    between atoms: N_5  and  C_6
REMARK    6  A    between atoms: N_5  and  S_15
REMARK    7  A    between atoms: C_6  and  C_7
REMARK    8  A    between atoms: C_7  and  O_8
REMARK    9  A    between atoms: C_7  and  C_9
REMARK   10  A    between atoms: S_15  and  C_18
REMARK                            x       y       z     vdW  Elec       q    Type
REMARK                         _______ _______ _______ _____ _____    ______ ____
ROOT
ATOM      1  N   UNL     1       3.375   4.491  17.177  0.00  0.00    +0.000 NA
ENDROOT
BRANCH   1   2
ATOM      2  S   UNL     1       2.086   3.360  17.557  0.00  0.00    +0.000 S 
ATOM      3  O   UNL     1       0.815   3.999  17.303  0.00  0.00    +0.000 OA
ATOM      4  O   UNL     1       2.426   2.115  16.897  0.00  0.00    +0.000 OA
BRANCH   2   5
ATOM      5  C   UNL     1       2.164   3.068  19.295  0.00  0.00    +0.000 A 
ATOM      6  C   UNL     1       1.101   3.384  20.135  0.00  0.00    +0.000 A 
ATOM      7  C   UNL     1       1.241   3.183  21.507  0.00  0.00    +0.000 A 
ATOM      8  C   UNL     1       2.456   2.693  21.973  0.00  0.00    +0.000 A 
ATOM      9  N   UNL     1       3.494   2.367  21.177  0.00  0.00    +0.000 NA
ATOM     10  C   UNL     1       3.341   2.585  19.842  0.00  0.00    +0.000 A 
ENDBRANCH   2   5
ENDBRANCH   1   2
BRANCH   1  11
ATOM     11  C   UNL     1       3.566   5.468  18.331  0.00  0.00    +0.000 C 
BRANCH  11  13
ATOM     12  C   UNL     1       2.239   7.017  19.888  0.00  0.00    +0.000 C 
ATOM     13  C   UNL     1       2.597   6.670  18.438  0.00  0.00    +0.000 C 
ATOM     14  C   UNL     1       3.231   7.896  17.745  0.00  0.00    +0.000 C 
ENDBRANCH  11  13
ENDBRANCH   1  11
BRANCH   1  15
ATOM     15  C   UNL     1       4.670   3.732  16.848  0.00  0.00    +0.000 C 
BRANCH  15  16
ATOM     16  C   UNL     1       5.863   4.495  16.180  0.00  0.00    +0.000 C 
BRANCH  16  17
ATOM     17  C   UNL     1       6.694   5.413  17.066  0.00  0.00    +0.000 A 
ATOM     18  C   UNL     1       6.866   6.766  16.727  0.00  0.00    +0.000 A 
ATOM     19  C   UNL     1       7.593   7.633  17.551  0.00  0.00    +0.000 A 
ATOM     20  C   UNL     1       8.182   7.159  18.720  0.00  0.00    +0.000 A 
ATOM     21  C   UNL     1       8.080   5.807  19.039  0.00  0.00    +0.000 A 
ATOM     22  C   UNL     1       7.352   4.941  18.215  0.00  0.00    +0.000 A 
ENDBRANCH  16  17
BRANCH  16  23
ATOM     23  O   UNL     1       6.746   3.482  15.641  0.00  0.00    +0.000 OA
ATOM     24  H   UNL     1       7.325   3.926  14.997  0.00  0.00    +0.000 HD
ENDBRANCH  16  23
ENDBRANCH  15  16
ENDBRANCH   1  15
TORSDOF 8
ENDMDL
