MODEL 1
REMARK VINA RESULT:      -7.6      0.000      0.000
REMARK  Name = 
REMARK  5 active torsions:
REMARK  status: ('A' for Active; 'I' for Inactive)
REMARK    1  A    between atoms: N_1  and  C_2
REMARK    2  A    between atoms: C_2  and  C_3
REMARK    3  A    between atoms: C_3  and  O_4
REMARK    4  A    between atoms: O_4  and  C_5
REMARK    5  A    between atoms: C_18  and  C_19
REMARK                            x       y       z     vdW  Elec       q    Type
REMARK                         _______ _______ _______ _____ _____    ______ ____
ROOT
ATOM      1  C   UNL     1       1.893   7.365  19.871  0.00  0.00    +0.000 A 
ATOM      2  C   UNL     1       2.527   7.121  18.641  0.00  0.00    +0.000 A 
ATOM      3  C   UNL     1       2.588   8.092  17.644  0.00  0.00    +0.000 A 
ATOM      4  C   UNL     1       2.023   9.353  17.831  0.00  0.00    +0.000 A 
ATOM      5  C   UNL     1       1.386   9.605  19.051  0.00  0.00    +0.000 A 
ATOM      6  C   UNL     1       1.307   8.642  20.078  0.00  0.00    +0.000 A 
ATOM      7  C   UNL     1       0.577   9.235  21.171  0.00  0.00    +0.000 A 
ATOM      8  C   UNL     1       0.182   8.859  22.470  0.00  0.00    +0.000 A 
ATOM      9  C   UNL     1      -0.572   9.762  23.248  0.00  0.00    +0.000 A 
ATOM     10  C   UNL     1      -0.976  11.002  22.739  0.00  0.00    +0.000 A 
ATOM     11  C   UNL     1      -0.627  11.363  21.447  0.00  0.00    +0.000 A 
ATOM     12  C   UNL     1       0.180  10.481  20.737  0.00  0.00    +0.000 A 
ATOM     13  N   UNL     1       0.750  10.722  19.520  0.00  0.00    +0.000 N 
ATOM     14  C   UNL     1       0.529  12.042  18.922  0.00  0.00    +0.000 C 
ATOM     15  C   UNL     1      -0.826  12.589  19.465  0.00  0.00    +0.000 C 
ATOM     16  O   UNL     1      -0.973  12.582  20.912  0.00  0.00    +0.000 OA
ENDROOT
BRANCH  14  17
ATOM     17  C   UNL     1       1.712  12.971  19.178  0.00  0.00    +0.000 A 
ATOM     18  C   UNL     1       2.428  13.509  18.097  0.00  0.00    +0.000 A 
ATOM     19  C   UNL     1       3.530  14.343  18.312  0.00  0.00    +0.000 A 
ATOM     20  C   UNL     1       3.934  14.654  19.608  0.00  0.00    +0.000 A 
ATOM     21  C   UNL     1       3.230  14.143  20.691  0.00  0.00    +0.000 A 
ATOM     22  C   UNL     1       2.129  13.312  20.477  0.00  0.00    +0.000 A 
ENDBRANCH  14  17
BRANCH   1  23
ATOM     23  O   UNL     1       1.786   6.443  20.884  0.00  0.00    +0.000 OA
BRANCH  23  24
ATOM     24  C   UNL     1       2.214   5.112  20.592  0.00  0.00    +0.000 C 
BRANCH  24  25
ATOM     25  C   UNL     1       0.980   4.237  20.348  0.00  0.00    +0.000 C 
BRANCH  25  26
ATOM     26  N   UNL     1       1.007   3.015  21.154  0.00  0.00    +0.000 NA
ATOM     27  H   UNL     1       1.117   2.211  20.536  0.00  0.00    +0.000 HD
ATOM     28  H   UNL     1       0.106   2.892  21.616  0.00  0.00    +0.000 HD
ENDBRANCH  25  26
ENDBRANCH  24  25
ENDBRANCH  23  24
ENDBRANCH   1  23
TORSDOF 5
ENDMDL
MODEL 2
REMARK VINA RESULT:      -7.3      0.846      1.057
REMARK  Name = 
REMARK  5 active torsions:
REMARK  status: ('A' for Active; 'I' for Inactive)
REMARK    1  A    between atoms: N_1  and  C_2
REMARK    2  A    between atoms: C_2  and  C_3
REMARK    3  A    between atoms: C_3  and  O_4
REMARK    4  A    between atoms: O_4  and  C_5
REMARK    5  A    between atoms: C_18  and  C_19
REMARK                            x       y       z     vdW  Elec       q    Type
REMARK                         _______ _______ _______ _____ _____    ______ ____
ROOT
ATOM      1  C   UNL     1       2.044   7.583  19.840  0.00  0.00    +0.000 A 
ATOM      2  C   UNL     1       2.604   7.345  18.572  0.00  0.00    +0.000 A 
ATOM      3  C   UNL     1       2.431   8.238  17.517  0.00  0.00    +0.000 A 
ATOM      4  C   UNL     1       1.696   9.412  17.680  0.00  0.00    +0.000 A 
ATOM      5  C   UNL     1       1.131   9.657  18.937  0.00  0.00    +0.000 A 
ATOM      6  C   UNL     1       1.287   8.770  20.023  0.00  0.00    +0.000 A 
ATOM      7  C   UNL     1       0.569   9.328  21.141  0.00  0.00    +0.000 A 
ATOM      8  C   UNL     1       0.345   8.995  22.492  0.00  0.00    +0.000 A 
ATOM      9  C   UNL     1      -0.472   9.832  23.281  0.00  0.00    +0.000 A 
ATOM     10  C   UNL     1      -1.102  10.957  22.738  0.00  0.00    +0.000 A 
ATOM     11  C   UNL     1      -0.921  11.269  21.399  0.00  0.00    +0.000 A 
ATOM     12  C   UNL     1      -0.050  10.467  20.672  0.00  0.00    +0.000 A 
ATOM     13  N   UNL     1       0.372  10.699  19.395  0.00  0.00    +0.000 N 
ATOM     14  C   UNL     1      -0.099  11.923  18.741  0.00  0.00    +0.000 C 
ATOM     15  C   UNL     1      -1.471  12.303  19.374  0.00  0.00    +0.000 C 
ATOM     16  O   UNL     1      -1.495  12.381  20.826  0.00  0.00    +0.000 OA
ENDROOT
BRANCH  14  17
ATOM     17  C   UNL     1       0.945  13.033  18.828  0.00  0.00    +0.000 A 
ATOM     18  C   UNL     1       0.541  14.360  19.046  0.00  0.00    +0.000 A 
ATOM     19  C   UNL     1       1.481  15.394  19.105  0.00  0.00    +0.000 A 
ATOM     20  C   UNL     1       2.838  15.120  18.950  0.00  0.00    +0.000 A 
ATOM     21  C   UNL     1       3.259  13.812  18.747  0.00  0.00    +0.000 A 
ATOM     22  C   UNL     1       2.321  12.779  18.690  0.00  0.00    +0.000 A 
ENDBRANCH  14  17
BRANCH   1  23
ATOM     23  O   UNL     1       2.164   6.733  20.912  0.00  0.00    +0.000 OA
BRANCH  23  24
ATOM     24  C   UNL     1       1.486   5.478  20.819  0.00  0.00    +0.000 C 
BRANCH  24  25
ATOM     25  C   UNL     1       2.517   4.350  20.929  0.00  0.00    +0.000 C 
BRANCH  25  26
ATOM     26  N   UNL     1       2.173   3.395  21.984  0.00  0.00    +0.000 NA
ATOM     27  H   UNL     1       2.994   3.232  22.567  0.00  0.00    +0.000 HD
ATOM     28  H   UNL     1       1.942   2.494  21.566  0.00  0.00    +0.000 HD
ENDBRANCH  25  26
ENDBRANCH  24  25
ENDBRANCH  23  24
ENDBRANCH   1  23
TORSDOF 5
ENDMDL
MODEL 3
REMARK VINA RESULT:      -7.2      3.285      5.926
REMARK  Name = 
REMARK  5 active torsions:
REMARK  status: ('A' for Active; 'I' for Inactive)
REMARK    1  A    between atoms: N_1  and  C_2
REMARK    2  A    between atoms: C_2  and  C_3
REMARK    3  A    between atoms: C_3  and  O_4
REMARK    4  A    between atoms: O_4  and  C_5
REMARK    5  A    between atoms: C_18  and  C_19
REMARK                            x       y       z     vdW  Elec       q    Type
REMARK                         _______ _______ _______ _____ _____    ______ ____
ROOT
ATOM      1  C   UNL     1      -4.349  11.696  18.578  0.00  0.00    +0.000 A 
ATOM      2  C   UNL     1      -4.433  11.280  17.238  0.00  0.00    +0.000 A 
ATOM      3  C   UNL     1      -3.294  11.031  16.477  0.00  0.00    +0.000 A 
ATOM      4  C   UNL     1      -2.017  11.180  17.019  0.00  0.00    +0.000 A 
ATOM      5  C   UNL     1      -1.922  11.597  18.352  0.00  0.00    +0.000 A 
ATOM      6  C   UNL     1      -3.058  11.859  19.146  0.00  0.00    +0.000 A 
ATOM      7  C   UNL     1      -2.588  12.277  20.444  0.00  0.00    +0.000 A 
ATOM      8  C   UNL     1      -3.161  12.642  21.678  0.00  0.00    +0.000 A 
ATOM      9  C   UNL     1      -2.317  13.021  22.744  0.00  0.00    +0.000 A 
ATOM     10  C   UNL     1      -0.928  13.088  22.585  0.00  0.00    +0.000 A 
ATOM     11  C   UNL     1      -0.359  12.770  21.361  0.00  0.00    +0.000 A 
ATOM     12  C   UNL     1      -1.214  12.329  20.358  0.00  0.00    +0.000 A 
ATOM     13  N   UNL     1      -0.833  11.830  19.146  0.00  0.00    +0.000 N 
ATOM     14  C   UNL     1       0.605  11.708  18.889  0.00  0.00    +0.000 C 
ATOM     15  C   UNL     1       1.335  12.785  19.748  0.00  0.00    +0.000 C 
ATOM     16  O   UNL     1       1.002  12.791  21.164  0.00  0.00    +0.000 OA
ENDROOT
BRANCH  14  17
ATOM     17  C   UNL     1       1.094  10.286  19.143  0.00  0.00    +0.000 A 
ATOM     18  C   UNL     1       1.767   9.583  18.131  0.00  0.00    +0.000 A 
ATOM     19  C   UNL     1       2.202   8.270  18.338  0.00  0.00    +0.000 A 
ATOM     20  C   UNL     1       1.974   7.639  19.559  0.00  0.00    +0.000 A 
ATOM     21  C   UNL     1       1.323   8.322  20.578  0.00  0.00    +0.000 A 
ATOM     22  C   UNL     1       0.891   9.633  20.373  0.00  0.00    +0.000 A 
ENDBRANCH  14  17
BRANCH   1  23
ATOM     23  O   UNL     1      -5.434  11.975  19.373  0.00  0.00    +0.000 OA
BRANCH  23  24
ATOM     24  C   UNL     1      -6.691  11.434  18.961  0.00  0.00    +0.000 C 
BRANCH  24  25
ATOM     25  C   UNL     1      -7.120  10.361  19.967  0.00  0.00    +0.000 C 
BRANCH  25  26
ATOM     26  N   UNL     1      -7.489   9.107  19.307  0.00  0.00    +0.000 NA
ATOM     27  H   UNL     1      -7.909   8.480  19.994  0.00  0.00    +0.000 HD
ATOM     28  H   UNL     1      -6.648   8.637  18.974  0.00  0.00    +0.000 HD
ENDBRANCH  25  26
ENDBRANCH  24  25
ENDBRANCH  23  24
ENDBRANCH   1  23
TORSDOF 5
ENDMDL
MODEL 4
REMARK VINA RESULT:      -6.9      3.194      6.141
REMARK  Name = 
REMARK  5 active torsions:
REMARK  status: ('A' for Active; 'I' for Inactive)
REMARK    1  A    between atoms: N_1  and  C_2
REMARK    2  A    between atoms: C_2  and  C_3
REMARK    3  A    between atoms: C_3  and  O_4
REMARK    4  A    between atoms: O_4  and  C_5
REMARK    5  A    between atoms: C_18  and  C_19
REMARK                            x       y       z     vdW  Elec       q    Type
REMARK                         _______ _______ _______ _____ _____    ______ ____
ROOT
ATOM      1  C   UNL     1      -3.982  11.483  18.457  0.00  0.00    +0.000 A 
ATOM      2  C   UNL     1      -4.236  10.783  17.264  0.00  0.00    +0.000 A 
ATOM      3  C   UNL     1      -3.205  10.237  16.503  0.00  0.00    +0.000 A 
ATOM      4  C   UNL     1      -1.873  10.360  16.899  0.00  0.00    +0.000 A 
ATOM      5  C   UNL     1      -1.609  11.058  18.083  0.00  0.00    +0.000 A 
ATOM      6  C   UNL     1      -2.631  11.623  18.874  0.00  0.00    +0.000 A 
ATOM      7  C   UNL     1      -2.000  12.270  19.996  0.00  0.00    +0.000 A 
ATOM      8  C   UNL     1      -2.413  12.971  21.147  0.00  0.00    +0.000 A 
ATOM      9  C   UNL     1      -1.436  13.485  22.027  0.00  0.00    +0.000 A 
ATOM     10  C   UNL     1      -0.070  13.355  21.755  0.00  0.00    +0.000 A 
ATOM     11  C   UNL     1       0.345  12.703  20.604  0.00  0.00    +0.000 A 
ATOM     12  C   UNL     1      -0.642  12.144  19.800  0.00  0.00    +0.000 A 
ATOM     13  N   UNL     1      -0.430  11.340  18.717  0.00  0.00    +0.000 N 
ATOM     14  C   UNL     1       0.958  11.000  18.392  0.00  0.00    +0.000 C 
ATOM     15  C   UNL     1       1.866  12.154  18.914  0.00  0.00    +0.000 C 
ATOM     16  O   UNL     1       1.676  12.523  20.308  0.00  0.00    +0.000 OA
ENDROOT
BRANCH  14  17
ATOM     17  C   UNL     1       1.334   9.627  18.941  0.00  0.00    +0.000 A 
ATOM     18  C   UNL     1       0.974   9.273  20.251  0.00  0.00    +0.000 A 
ATOM     19  C   UNL     1       1.332   8.029  20.781  0.00  0.00    +0.000 A 
ATOM     20  C   UNL     1       2.051   7.118  20.011  0.00  0.00    +0.000 A 
ATOM     21  C   UNL     1       2.405   7.444  18.708  0.00  0.00    +0.000 A 
ATOM     22  C   UNL     1       2.047   8.684  18.178  0.00  0.00    +0.000 A 
ENDBRANCH  14  17
BRANCH   1  23
ATOM     23  O   UNL     1      -4.952  12.058  19.240  0.00  0.00    +0.000 OA
BRANCH  23  24
ATOM     24  C   UNL     1      -6.204  12.342  18.610  0.00  0.00    +0.000 C 
BRANCH  24  25
ATOM     25  C   UNL     1      -7.320  11.635  19.387  0.00  0.00    +0.000 C 
BRANCH  25  26
ATOM     26  N   UNL     1      -7.287  10.184  19.193  0.00  0.00    +0.000 NA
ATOM     27  H   UNL     1      -8.021   9.756  19.759  0.00  0.00    +0.000 HD
ATOM     28  H   UNL     1      -6.406   9.813  19.548  0.00  0.00    +0.000 HD
ENDBRANCH  25  26
ENDBRANCH  24  25
ENDBRANCH  23  24
ENDBRANCH   1  23
TORSDOF 5
ENDMDL
MODEL 5
REMARK VINA RESULT:      -6.8      3.711      6.321
REMARK  Name = 
REMARK  5 active torsions:
REMARK  status: ('A' for Active; 'I' for Inactive)
REMARK    1  A    between atoms: N_1  and  C_2
REMARK    2  A    between atoms: C_2  and  C_3
REMARK    3  A    between atoms: C_3  and  O_4
REMARK    4  A    between atoms: O_4  and  C_5
REMARK    5  A    between atoms: C_18  and  C_19
REMARK                            x       y       z     vdW  Elec       q    Type
REMARK                         _______ _______ _______ _____ _____    ______ ____
ROOT
ATOM      1  C   UNL     1      -4.760  11.836  18.203  0.00  0.00    +0.000 A 
ATOM      2  C   UNL     1      -4.270  11.419  16.953  0.00  0.00    +0.000 A 
ATOM      3  C   UNL     1      -2.905  11.274  16.714  0.00  0.00    +0.000 A 
ATOM      4  C   UNL     1      -1.967  11.533  17.713  0.00  0.00    +0.000 A 
ATOM      5  C   UNL     1      -2.444  11.953  18.960  0.00  0.00    +0.000 A 
ATOM      6  C   UNL     1      -3.819  12.111  19.231  0.00  0.00    +0.000 A 
ATOM      7  C   UNL     1      -3.941  12.563  20.594  0.00  0.00    +0.000 A 
ATOM      8  C   UNL     1      -4.985  12.872  21.487  0.00  0.00    +0.000 A 
ATOM      9  C   UNL     1      -4.669  13.320  22.788  0.00  0.00    +0.000 A 
ATOM     10  C   UNL     1      -3.343  13.510  23.190  0.00  0.00    +0.000 A 
ATOM     11  C   UNL     1      -2.309  13.249  22.303  0.00  0.00    +0.000 A 
ATOM     12  C   UNL     1      -2.655  12.737  21.058  0.00  0.00    +0.000 A 
ATOM     13  N   UNL     1      -1.784  12.278  20.113  0.00  0.00    +0.000 N 
ATOM     14  C   UNL     1      -0.357  12.286  20.450  0.00  0.00    +0.000 C 
ATOM     15  C   UNL     1      -0.121  13.419  21.494  0.00  0.00    +0.000 C 
ATOM     16  O   UNL     1      -0.988  13.392  22.661  0.00  0.00    +0.000 OA
ENDROOT
BRANCH  14  17
ATOM     17  C   UNL     1       0.106  10.911  20.924  0.00  0.00    +0.000 A 
ATOM     18  C   UNL     1      -0.073  10.533  22.264  0.00  0.00    +0.000 A 
ATOM     19  C   UNL     1       0.368   9.287  22.722  0.00  0.00    +0.000 A 
ATOM     20  C   UNL     1       0.991   8.398  21.849  0.00  0.00    +0.000 A 
ATOM     21  C   UNL     1       1.165   8.748  20.516  0.00  0.00    +0.000 A 
ATOM     22  C   UNL     1       0.724   9.990  20.058  0.00  0.00    +0.000 A 
ENDBRANCH  14  17
BRANCH   1  23
ATOM     23  O   UNL     1      -6.090  12.014  18.493  0.00  0.00    +0.000 OA
BRANCH  23  24
ATOM     24  C   UNL     1      -6.940  10.874  18.351  0.00  0.00    +0.000 C 
BRANCH  24  25
ATOM     25  C   UNL     1      -6.958  10.102  19.675  0.00  0.00    +0.000 C 
BRANCH  25  26
ATOM     26  N   UNL     1      -7.536   8.766  19.522  0.00  0.00    +0.000 NA
ATOM     27  H   UNL     1      -8.152   8.577  20.312  0.00  0.00    +0.000 HD
ATOM     28  H   UNL     1      -6.795   8.067  19.570  0.00  0.00    +0.000 HD
ENDBRANCH  25  26
ENDBRANCH  24  25
ENDBRANCH  23  24
ENDBRANCH   1  23
TORSDOF 5
ENDMDL
MODEL 6
REMARK VINA RESULT:      -6.7      3.894      6.955
REMARK  Name = 
REMARK  5 active torsions:
REMARK  status: ('A' for Active; 'I' for Inactive)
REMARK    1  A    between atoms: N_1  and  C_2
REMARK    2  A    between atoms: C_2  and  C_3
REMARK    3  A    between atoms: C_3  and  O_4
REMARK    4  A    between atoms: O_4  and  C_5
REMARK    5  A    between atoms: C_18  and  C_19
REMARK                            x       y       z     vdW  Elec       q    Type
REMARK                         _______ _______ _______ _____ _____    ______ ____
ROOT
ATOM      1  C   UNL     1      -4.824  11.599  17.775  0.00  0.00    +0.000 A 
ATOM      2  C   UNL     1      -4.139  11.154  16.631  0.00  0.00    +0.000 A 
ATOM      3  C   UNL     1      -2.748  11.094  16.589  0.00  0.00    +0.000 A 
ATOM      4  C   UNL     1      -1.976  11.470  17.688  0.00  0.00    +0.000 A 
ATOM      5  C   UNL     1      -2.648  11.918  18.831  0.00  0.00    +0.000 A 
ATOM      6  C   UNL     1      -4.055  11.992  18.903  0.00  0.00    +0.000 A 
ATOM      7  C   UNL     1      -4.394  12.504  20.207  0.00  0.00    +0.000 A 
ATOM      8  C   UNL     1      -5.570  12.784  20.930  0.00  0.00    +0.000 A 
ATOM      9  C   UNL     1      -5.467  13.319  22.232  0.00  0.00    +0.000 A 
ATOM     10  C   UNL     1      -4.224  13.623  22.799  0.00  0.00    +0.000 A 
ATOM     11  C   UNL     1      -3.063  13.390  22.077  0.00  0.00    +0.000 A 
ATOM     12  C   UNL     1      -3.199  12.792  20.830  0.00  0.00    +0.000 A 
ATOM     13  N   UNL     1      -2.177  12.348  20.041  0.00  0.00    +0.000 N 
ATOM     14  C   UNL     1      -0.815  12.473  20.569  0.00  0.00    +0.000 C 
ATOM     15  C   UNL     1      -0.798  13.673  21.564  0.00  0.00    +0.000 C 
ATOM     16  O   UNL     1      -1.816  13.644  22.602  0.00  0.00    +0.000 OA
ENDROOT
BRANCH  14  17
ATOM     17  C   UNL     1      -0.337  11.161  21.183  0.00  0.00    +0.000 A 
ATOM     18  C   UNL     1       0.355  10.228  20.394  0.00  0.00    +0.000 A 
ATOM     19  C   UNL     1       0.780   9.009  20.934  0.00  0.00    +0.000 A 
ATOM     20  C   UNL     1       0.524   8.704  22.268  0.00  0.00    +0.000 A 
ATOM     21  C   UNL     1      -0.147   9.620  23.069  0.00  0.00    +0.000 A 
ATOM     22  C   UNL     1      -0.569  10.837  22.532  0.00  0.00    +0.000 A 
ENDBRANCH  14  17
BRANCH   1  23
ATOM     23  O   UNL     1      -6.190  11.698  17.871  0.00  0.00    +0.000 OA
BRANCH  23  24
ATOM     24  C   UNL     1      -6.822  12.697  17.068  0.00  0.00    +0.000 C 
BRANCH  24  25
ATOM     25  C   UNL     1      -7.325  13.821  17.981  0.00  0.00    +0.000 C 
BRANCH  25  26
ATOM     26  N   UNL     1      -6.356  14.913  18.090  0.00  0.00    +0.000 NA
ATOM     27  H   UNL     1      -5.493  14.553  18.497  0.00  0.00    +0.000 HD
ATOM     28  H   UNL     1      -6.705  15.614  18.743  0.00  0.00    +0.000 HD
ENDBRANCH  25  26
ENDBRANCH  24  25
ENDBRANCH  23  24
ENDBRANCH   1  23
TORSDOF 5
ENDMDL
MODEL 7
REMARK VINA RESULT:      -6.6      3.511      6.283
REMARK  Name = 
REMARK  5 active torsions:
REMARK  status: ('A' for Active; 'I' for Inactive)
REMARK    1  A    between atoms: N_1  and  C_2
REMARK    2  A    between atoms: C_2  and  C_3
REMARK    3  A    between atoms: C_3  and  O_4
REMARK    4  A    between atoms: O_4  and  C_5
REMARK    5  A    between atoms: C_18  and  C_19
REMARK                            x       y       z     vdW  Elec       q    Type
REMARK                         _______ _______ _______ _____ _____    ______ ____
ROOT
ATOM      1  C   UNL     1      -4.767  12.022  18.711  0.00  0.00    +0.000 A 
ATOM      2  C   UNL     1      -4.603  11.562  17.393  0.00  0.00    +0.000 A 
ATOM      3  C   UNL     1      -3.343  11.287  16.865  0.00  0.00    +0.000 A 
ATOM      4  C   UNL     1      -2.189  11.451  17.631  0.00  0.00    +0.000 A 
ATOM      5  C   UNL     1      -2.341  11.912  18.944  0.00  0.00    +0.000 A 
ATOM      6  C   UNL     1      -3.602  12.201  19.505  0.00  0.00    +0.000 A 
ATOM      7  C   UNL     1      -3.379  12.660  20.853  0.00  0.00    +0.000 A 
ATOM      8  C   UNL     1      -4.170  13.065  21.947  0.00  0.00    +0.000 A 
ATOM      9  C   UNL     1      -3.536  13.478  23.138  0.00  0.00    +0.000 A 
ATOM     10  C   UNL     1      -2.142  13.537  23.239  0.00  0.00    +0.000 A 
ATOM     11  C   UNL     1      -1.356  13.180  22.153  0.00  0.00    +0.000 A 
ATOM     12  C   UNL     1      -2.013  12.707  21.023  0.00  0.00    +0.000 A 
ATOM     13  N   UNL     1      -1.417  12.168  19.919  0.00  0.00    +0.000 N 
ATOM     14  C   UNL     1       0.043  12.037  19.939  0.00  0.00    +0.000 C 
ATOM     15  C   UNL     1       0.608  13.140  20.884  0.00  0.00    +0.000 C 
ATOM     16  O   UNL     1       0.018  13.193  22.213  0.00  0.00    +0.000 OA
ENDROOT
BRANCH  14  17
ATOM     17  C   UNL     1       0.466  10.623  20.325  0.00  0.00    +0.000 A 
ATOM     18  C   UNL     1       1.147   9.816  19.400  0.00  0.00    +0.000 A 
ATOM     19  C   UNL     1       1.521   8.509  19.728  0.00  0.00    +0.000 A 
ATOM     20  C   UNL     1       1.224   7.987  20.984  0.00  0.00    +0.000 A 
ATOM     21  C   UNL     1       0.563   8.774  21.919  0.00  0.00    +0.000 A 
ATOM     22  C   UNL     1       0.191  10.079  21.593  0.00  0.00    +0.000 A 
ENDBRANCH  14  17
BRANCH   1  23
ATOM     23  O   UNL     1      -5.978  12.327  19.281  0.00  0.00    +0.000 OA
BRANCH  23  24
ATOM     24  C   UNL     1      -7.070  11.454  18.982  0.00  0.00    +0.000 C 
BRANCH  24  25
ATOM     25  C   UNL     1      -7.200  10.422  20.107  0.00  0.00    +0.000 C 
BRANCH  25  26
ATOM     26  N   UNL     1      -7.298  11.056  21.423  0.00  0.00    +0.000 NA
ATOM     27  H   UNL     1      -7.363  12.067  21.302  0.00  0.00    +0.000 HD
ATOM     28  H   UNL     1      -6.439  10.890  21.946  0.00  0.00    +0.000 HD
ENDBRANCH  25  26
ENDBRANCH  24  25
ENDBRANCH  23  24
ENDBRANCH   1  23
TORSDOF 5
ENDMDL
MODEL 8
REMARK VINA RESULT:      -6.6      3.270      6.291
REMARK  Name = 
REMARK  5 active torsions:
REMARK  status: ('A' for Active; 'I' for Inactive)
REMARK    1  A    between atoms: N_1  and  C_2
REMARK    2  A    between atoms: C_2  and  C_3
REMARK    3  A    between atoms: C_3  and  O_4
REMARK    4  A    between atoms: O_4  and  C_5
REMARK    5  A    between atoms: C_18  and  C_19
REMARK                            x       y       z     vdW  Elec       q    Type
REMARK                         _______ _______ _______ _____ _____    ______ ____
ROOT
ATOM      1  C   UNL     1      -4.230  11.605  18.472  0.00  0.00    +0.000 A 
ATOM      2  C   UNL     1      -4.295  11.190  17.131  0.00  0.00    +0.000 A 
ATOM      3  C   UNL     1      -3.146  10.933  16.388  0.00  0.00    +0.000 A 
ATOM      4  C   UNL     1      -1.877  11.073  16.950  0.00  0.00    +0.000 A 
ATOM      5  C   UNL     1      -1.800  11.490  18.284  0.00  0.00    +0.000 A 
ATOM      6  C   UNL     1      -2.946  11.759  19.061  0.00  0.00    +0.000 A 
ATOM      7  C   UNL     1      -2.495  12.173  20.366  0.00  0.00    +0.000 A 
ATOM      8  C   UNL     1      -3.085  12.542  21.591  0.00  0.00    +0.000 A 
ATOM      9  C   UNL     1      -2.256  12.915  22.670  0.00  0.00    +0.000 A 
ATOM     10  C   UNL     1      -0.864  12.972  22.533  0.00  0.00    +0.000 A 
ATOM     11  C   UNL     1      -0.277  12.651  21.319  0.00  0.00    +0.000 A 
ATOM     12  C   UNL     1      -1.119  12.216  20.302  0.00  0.00    +0.000 A 
ATOM     13  N   UNL     1      -0.722  11.714  19.096  0.00  0.00    +0.000 N 
ATOM     14  C   UNL     1       0.719  11.583  18.861  0.00  0.00    +0.000 C 
ATOM     15  C   UNL     1       1.442  12.654  19.733  0.00  0.00    +0.000 C 
ATOM     16  O   UNL     1       1.087  12.663  21.143  0.00  0.00    +0.000 OA
ENDROOT
BRANCH  14  17
ATOM     17  C   UNL     1       1.194  10.157  19.124  0.00  0.00    +0.000 A 
ATOM     18  C   UNL     1       1.871   9.447  18.119  0.00  0.00    +0.000 A 
ATOM     19  C   UNL     1       2.293   8.131  18.333  0.00  0.00    +0.000 A 
ATOM     20  C   UNL     1       2.049   7.504  19.552  0.00  0.00    +0.000 A 
ATOM     21  C   UNL     1       1.394   8.194  20.564  0.00  0.00    +0.000 A 
ATOM     22  C   UNL     1       0.974   9.508  20.352  0.00  0.00    +0.000 A 
ENDBRANCH  14  17
BRANCH   1  23
ATOM     23  O   UNL     1      -5.325  11.891  19.250  0.00  0.00    +0.000 OA
BRANCH  23  24
ATOM     24  C   UNL     1      -6.607  11.606  18.687  0.00  0.00    +0.000 C 
BRANCH  24  25
ATOM     25  C   UNL     1      -7.377  12.920  18.519  0.00  0.00    +0.000 C 
BRANCH  25  26
ATOM     26  N   UNL     1      -7.022  13.608  17.277  0.00  0.00    +0.000 NA
ATOM     27  H   UNL     1      -6.006  13.671  17.210  0.00  0.00    +0.000 HD
ATOM     28  H   UNL     1      -7.361  14.569  17.311  0.00  0.00    +0.000 HD
ENDBRANCH  25  26
ENDBRANCH  24  25
ENDBRANCH  23  24
ENDBRANCH   1  23
TORSDOF 5
ENDMDL
MODEL 9
REMARK VINA RESULT:      -6.5      3.668      6.386
REMARK  Name = 
REMARK  5 active torsions:
REMARK  status: ('A' for Active; 'I' for Inactive)
REMARK    1  A    between atoms: N_1  and  C_2
REMARK    2  A    between atoms: C_2  and  C_3
REMARK    3  A    between atoms: C_3  and  O_4
REMARK    4  A    between atoms: O_4  and  C_5
REMARK    5  A    between atoms: C_18  and  C_19
REMARK                            x       y       z     vdW  Elec       q    Type
REMARK                         _______ _______ _______ _____ _____    ______ ____
ROOT
ATOM      1  C   UNL     1      -4.775  12.857  20.148  0.00  0.00    +0.000 A 
ATOM      2  C   UNL     1      -4.764  13.611  21.335  0.00  0.00    +0.000 A 
ATOM      3  C   UNL     1      -3.596  13.803  22.069  0.00  0.00    +0.000 A 
ATOM      4  C   UNL     1      -2.383  13.256  21.650  0.00  0.00    +0.000 A 
ATOM      5  C   UNL     1      -2.383  12.500  20.472  0.00  0.00    +0.000 A 
ATOM      6  C   UNL     1      -3.550  12.287  19.709  0.00  0.00    +0.000 A 
ATOM      7  C   UNL     1      -3.184  11.462  18.584  0.00  0.00    +0.000 A 
ATOM      8  C   UNL     1      -3.825  10.922  17.452  0.00  0.00    +0.000 A 
ATOM      9  C   UNL     1      -3.085  10.114  16.562  0.00  0.00    +0.000 A 
ATOM     10  C   UNL     1      -1.743   9.801  16.807  0.00  0.00    +0.000 A 
ATOM     11  C   UNL     1      -1.116  10.295  17.941  0.00  0.00    +0.000 A 
ATOM     12  C   UNL     1      -1.853  11.148  18.754  0.00  0.00    +0.000 A 
ATOM     13  N   UNL     1      -1.371  11.849  19.821  0.00  0.00    +0.000 N 
ATOM     14  C   UNL     1       0.059  11.729  20.116  0.00  0.00    +0.000 C 
ATOM     15  C   UNL     1       0.537  10.340  19.595  0.00  0.00    +0.000 C 
ATOM     16  O   UNL     1       0.209  10.040  18.210  0.00  0.00    +0.000 OA
ENDROOT
BRANCH  14  17
ATOM     17  C   UNL     1       0.844  12.903  19.539  0.00  0.00    +0.000 A 
ATOM     18  C   UNL     1       0.233  14.161  19.413  0.00  0.00    +0.000 A 
ATOM     19  C   UNL     1       0.929  15.243  18.864  0.00  0.00    +0.000 A 
ATOM     20  C   UNL     1       2.245  15.088  18.435  0.00  0.00    +0.000 A 
ATOM     21  C   UNL     1       2.872  13.855  18.565  0.00  0.00    +0.000 A 
ATOM     22  C   UNL     1       2.179  12.776  19.114  0.00  0.00    +0.000 A 
ENDBRANCH  14  17
BRANCH   1  23
ATOM     23  O   UNL     1      -5.895  12.617  19.392  0.00  0.00    +0.000 OA
BRANCH  23  24
ATOM     24  C   UNL     1      -6.786  11.604  19.862  0.00  0.00    +0.000 C 
BRANCH  24  25
ATOM     25  C   UNL     1      -6.978  10.561  18.756  0.00  0.00    +0.000 C 
BRANCH  25  26
ATOM     26  N   UNL     1      -7.450   9.281  19.286  0.00  0.00    +0.000 NA
ATOM     27  H   UNL     1      -6.645   8.685  19.484  0.00  0.00    +0.000 HD
ATOM     28  H   UNL     1      -7.990   8.794  18.572  0.00  0.00    +0.000 HD
ENDBRANCH  25  26
ENDBRANCH  24  25
ENDBRANCH  23  24
ENDBRANCH   1  23
TORSDOF 5
ENDMDL
