MODEL 1
REMARK VINA RESULT:      -8.0      0.000      0.000
REMARK  Name = 
REMARK  5 active torsions:
REMARK  status: ('A' for Active; 'I' for Inactive)
REMARK    1  A    between atoms: C_1  and  C_2
REMARK    2  A    between atoms: C_4  and  C_5
REMARK    3  A    between atoms: C_7  and  C_9
REMARK    4  A    between atoms: C_12  and  S_13
REMARK    5  A    between atoms: S_13  and  N_16
REMARK                            x       y       z     vdW  Elec       q    Type
REMARK                         _______ _______ _______ _____ _____    ______ ____
ROOT
ATOM      1  C   UNL     1       1.263   9.225  19.067  0.00  0.00    +0.000 A 
ATOM      2  C   UNL     1       2.014   9.042  17.900  0.00  0.00    +0.000 A 
ATOM      3  C   UNL     1       2.834   7.918  17.752  0.00  0.00    +0.000 A 
ATOM      4  C   UNL     1       2.932   6.989  18.791  0.00  0.00    +0.000 A 
ATOM      5  C   UNL     1       2.214   7.171  19.976  0.00  0.00    +0.000 A 
ATOM      6  C   UNL     1       1.384   8.289  20.110  0.00  0.00    +0.000 A 
ENDROOT
BRANCH   1  13
ATOM      7  C   UNL     1      -2.918   9.751  15.792  0.00  0.00    +0.000 C 
ATOM      8  C   UNL     1      -2.247  10.410  16.939  0.00  0.00    +0.000 A 
ATOM      9  C   UNL     1      -2.596  11.611  17.580  0.00  0.00    +0.000 A 
ATOM     10  C   UNL     1      -1.647  11.787  18.561  0.00  0.00    +0.000 A 
ATOM     11  C   UNL     1      -1.502  12.891  19.548  0.00  0.00    +0.000 C 
ATOM     12  N   UNL     1      -0.777  10.707  18.475  0.00  0.00    +0.000 N 
ATOM     13  C   UNL     1       0.361  10.401  19.268  0.00  0.00    +0.000 C 
ATOM     14  O   UNL     1       0.624  11.156  20.206  0.00  0.00    +0.000 OA
ATOM     15  N   UNL     1      -1.164   9.858  17.485  0.00  0.00    +0.000 NA
ENDBRANCH   1  13
BRANCH   4  16
ATOM     16  S   UNL     1       3.939   5.539  18.582  0.00  0.00    +0.000 S 
ATOM     17  O   UNL     1       5.144   5.957  17.897  0.00  0.00    +0.000 OA
ATOM     18  O   UNL     1       4.002   4.848  19.853  0.00  0.00    +0.000 OA
BRANCH  16  19
ATOM     19  N   UNL     1       3.046   4.553  17.514  0.00  0.00    +0.000 NA
ATOM     20  C   UNL     1       1.583   4.459  17.724  0.00  0.00    +0.000 C 
ATOM     21  C   UNL     1       1.366   3.143  18.442  0.00  0.00    +0.000 C 
ATOM     22  C   UNL     1       2.426   2.233  17.857  0.00  0.00    +0.000 C 
ATOM     23  C   UNL     1       3.564   3.152  17.424  0.00  0.00    +0.000 C 
ENDBRANCH  16  19
ENDBRANCH   4  16
TORSDOF 3
ENDMDL
MODEL 2
REMARK VINA RESULT:      -8.0      0.124      1.018
REMARK  Name = 
REMARK  5 active torsions:
REMARK  status: ('A' for Active; 'I' for Inactive)
REMARK    1  A    between atoms: C_1  and  C_2
REMARK    2  A    between atoms: C_4  and  C_5
REMARK    3  A    between atoms: C_7  and  C_9
REMARK    4  A    between atoms: C_12  and  S_13
REMARK    5  A    between atoms: S_13  and  N_16
REMARK                            x       y       z     vdW  Elec       q    Type
REMARK                         _______ _______ _______ _____ _____    ______ ____
ROOT
ATOM      1  C   UNL     1       1.312   9.222  19.140  0.00  0.00    +0.000 A 
ATOM      2  C   UNL     1       1.426   8.267  20.157  0.00  0.00    +0.000 A 
ATOM      3  C   UNL     1       2.231   7.136  19.982  0.00  0.00    +0.000 A 
ATOM      4  C   UNL     1       2.897   6.939  18.770  0.00  0.00    +0.000 A 
ATOM      5  C   UNL     1       2.770   7.865  17.732  0.00  0.00    +0.000 A 
ATOM      6  C   UNL     1       1.976   9.002  17.919  0.00  0.00    +0.000 A 
ENDROOT
BRANCH   1  13
ATOM      7  C   UNL     1      -2.909   9.755  15.918  0.00  0.00    +0.000 C 
ATOM      8  C   UNL     1      -2.179  10.451  17.007  0.00  0.00    +0.000 A 
ATOM      9  C   UNL     1      -2.453  11.707  17.575  0.00  0.00    +0.000 A 
ATOM     10  C   UNL     1      -1.474  11.896  18.524  0.00  0.00    +0.000 A 
ATOM     11  C   UNL     1      -1.251  13.051  19.435  0.00  0.00    +0.000 C 
ATOM     12  N   UNL     1      -0.663  10.768  18.492  0.00  0.00    +0.000 N 
ATOM     13  C   UNL     1       0.476  10.454  19.281  0.00  0.00    +0.000 C 
ATOM     14  O   UNL     1       0.798  11.253  20.163  0.00  0.00    +0.000 OA
ATOM     15  N   UNL     1      -1.114   9.879  17.566  0.00  0.00    +0.000 NA
ENDBRANCH   1  13
BRANCH   4  16
ATOM     16  S   UNL     1       3.955   5.524  18.569  0.00  0.00    +0.000 S 
ATOM     17  O   UNL     1       5.144   5.981  17.882  0.00  0.00    +0.000 OA
ATOM     18  O   UNL     1       4.042   4.843  19.843  0.00  0.00    +0.000 OA
BRANCH  16  19
ATOM     19  N   UNL     1       3.098   4.501  17.506  0.00  0.00    +0.000 NA
ATOM     20  C   UNL     1       1.631   4.395  17.686  0.00  0.00    +0.000 C 
ATOM     21  C   UNL     1       1.414   3.095  18.431  0.00  0.00    +0.000 C 
ATOM     22  C   UNL     1       2.497   2.183  17.893  0.00  0.00    +0.000 C 
ATOM     23  C   UNL     1       3.633   3.105  17.463  0.00  0.00    +0.000 C 
ENDBRANCH  16  19
ENDBRANCH   4  16
TORSDOF 3
ENDMDL
MODEL 3
REMARK VINA RESULT:      -7.9      0.800      1.097
REMARK  Name = 
REMARK  5 active torsions:
REMARK  status: ('A' for Active; 'I' for Inactive)
REMARK    1  A    between atoms: C_1  and  C_2
REMARK    2  A    between atoms: C_4  and  C_5
REMARK    3  A    between atoms: C_7  and  C_9
REMARK    4  A    between atoms: C_12  and  S_13
REMARK    5  A    between atoms: S_13  and  N_16
REMARK                            x       y       z     vdW  Elec       q    Type
REMARK                         _______ _______ _______ _____ _____    ______ ____
ROOT
ATOM      1  C   UNL     1       1.307   9.108  19.177  0.00  0.00    +0.000 A 
ATOM      2  C   UNL     1       2.020   8.941  17.984  0.00  0.00    +0.000 A 
ATOM      3  C   UNL     1       2.825   7.813  17.791  0.00  0.00    +0.000 A 
ATOM      4  C   UNL     1       2.947   6.864  18.809  0.00  0.00    +0.000 A 
ATOM      5  C   UNL     1       2.268   7.030  20.019  0.00  0.00    +0.000 A 
ATOM      6  C   UNL     1       1.452   8.152  20.199  0.00  0.00    +0.000 A 
ENDROOT
BRANCH   1  13
ATOM      7  C   UNL     1      -2.838   9.858  15.899  0.00  0.00    +0.000 C 
ATOM      8  C   UNL     1      -2.165  10.451  17.082  0.00  0.00    +0.000 A 
ATOM      9  C   UNL     1      -2.501  11.625  17.777  0.00  0.00    +0.000 A 
ATOM     10  C   UNL     1      -1.557  11.739  18.772  0.00  0.00    +0.000 A 
ATOM     11  C   UNL     1      -1.404  12.791  19.813  0.00  0.00    +0.000 C 
ATOM     12  N   UNL     1      -0.705  10.650  18.642  0.00  0.00    +0.000 N 
ATOM     13  C   UNL     1       0.422  10.288  19.428  0.00  0.00    +0.000 C 
ATOM     14  O   UNL     1       0.689  10.993  20.403  0.00  0.00    +0.000 OA
ATOM     15  N   UNL     1      -1.096   9.856  17.609  0.00  0.00    +0.000 NA
ENDBRANCH   1  13
BRANCH   4  16
ATOM     16  S   UNL     1       3.934   5.410  18.542  0.00  0.00    +0.000 S 
ATOM     17  O   UNL     1       4.058   5.241  17.110  0.00  0.00    +0.000 OA
ATOM     18  O   UNL     1       5.105   5.499  19.390  0.00  0.00    +0.000 OA
BRANCH  16  19
ATOM     19  N   UNL     1       2.975   4.131  19.139  0.00  0.00    +0.000 NA
ATOM     20  C   UNL     1       3.670   2.904  19.593  0.00  0.00    +0.000 C 
ATOM     21  C   UNL     1       3.523   1.916  18.455  0.00  0.00    +0.000 C 
ATOM     22  C   UNL     1       2.154   2.225  17.883  0.00  0.00    +0.000 C 
ATOM     23  C   UNL     1       1.903   3.698  18.189  0.00  0.00    +0.000 C 
ENDBRANCH  16  19
ENDBRANCH   4  16
TORSDOF 3
ENDMDL
MODEL 4
REMARK VINA RESULT:      -7.9      0.825      1.521
REMARK  Name = 
REMARK  5 active torsions:
REMARK  status: ('A' for Active; 'I' for Inactive)
REMARK    1  A    between atoms: C_1  and  C_2
REMARK    2  A    between atoms: C_4  and  C_5
REMARK    3  A    between atoms: C_7  and  C_9
REMARK    4  A    between atoms: C_12  and  S_13
REMARK    5  A    between atoms: S_13  and  N_16
REMARK                            x       y       z     vdW  Elec       q    Type
REMARK                         _______ _______ _______ _____ _____    ______ ____
ROOT
ATOM      1  C   UNL     1       1.461   9.100  19.148  0.00  0.00    +0.000 A 
ATOM      2  C   UNL     1       1.496   8.096  20.123  0.00  0.00    +0.000 A 
ATOM      3  C   UNL     1       2.273   6.949  19.933  0.00  0.00    +0.000 A 
ATOM      4  C   UNL     1       2.993   6.787  18.746  0.00  0.00    +0.000 A 
ATOM      5  C   UNL     1       2.945   7.764  17.748  0.00  0.00    +0.000 A 
ATOM      6  C   UNL     1       2.178   8.916  17.952  0.00  0.00    +0.000 A 
ENDROOT
BRANCH   1  13
ATOM      7  C   UNL     1      -2.814   9.735  16.017  0.00  0.00    +0.000 C 
ATOM      8  C   UNL     1      -2.046  10.412  17.091  0.00  0.00    +0.000 A 
ATOM      9  C   UNL     1      -2.279  11.673  17.666  0.00  0.00    +0.000 A 
ATOM     10  C   UNL     1      -1.276  11.838  18.595  0.00  0.00    +0.000 A 
ATOM     11  C   UNL     1      -1.008  12.986  19.502  0.00  0.00    +0.000 C 
ATOM     12  N   UNL     1      -0.491  10.692  18.545  0.00  0.00    +0.000 N 
ATOM     13  C   UNL     1       0.657  10.351  19.309  0.00  0.00    +0.000 C 
ATOM     14  O   UNL     1       1.015  11.141  20.185  0.00  0.00    +0.000 OA
ATOM     15  N   UNL     1      -0.982   9.815  17.627  0.00  0.00    +0.000 NA
ENDBRANCH   1  13
BRANCH   4  16
ATOM     16  S   UNL     1       4.016   5.350  18.527  0.00  0.00    +0.000 S 
ATOM     17  O   UNL     1       4.141   5.134  17.102  0.00  0.00    +0.000 OA
ATOM     18  O   UNL     1       5.186   5.499  19.367  0.00  0.00    +0.000 OA
BRANCH  16  19
ATOM     19  N   UNL     1       3.092   4.069  19.172  0.00  0.00    +0.000 NA
ATOM     20  C   UNL     1       3.802   2.818  19.525  0.00  0.00    +0.000 C 
ATOM     21  C   UNL     1       3.533   1.868  18.377  0.00  0.00    +0.000 C 
ATOM     22  C   UNL     1       2.124   2.215  17.942  0.00  0.00    +0.000 C 
ATOM     23  C   UNL     1       1.930   3.682  18.313  0.00  0.00    +0.000 C 
ENDBRANCH  16  19
ENDBRANCH   4  16
TORSDOF 3
ENDMDL
MODEL 5
REMARK VINA RESULT:      -7.8      1.738      2.225
REMARK  Name = 
REMARK  5 active torsions:
REMARK  status: ('A' for Active; 'I' for Inactive)
REMARK    1  A    between atoms: C_1  and  C_2
REMARK    2  A    between atoms: C_4  and  C_5
REMARK    3  A    between atoms: C_7  and  C_9
REMARK    4  A    between atoms: C_12  and  S_13
REMARK    5  A    between atoms: S_13  and  N_16
REMARK                            x       y       z     vdW  Elec       q    Type
REMARK                         _______ _______ _______ _____ _____    ______ ____
ROOT
ATOM      1  C   UNL     1       1.441   9.154  18.989  0.00  0.00    +0.000 A 
ATOM      2  C   UNL     1       2.189   8.985  17.818  0.00  0.00    +0.000 A 
ATOM      3  C   UNL     1       2.944   7.825  17.620  0.00  0.00    +0.000 A 
ATOM      4  C   UNL     1       2.983   6.843  18.614  0.00  0.00    +0.000 A 
ATOM      5  C   UNL     1       2.268   7.010  19.803  0.00  0.00    +0.000 A 
ATOM      6  C   UNL     1       1.501   8.165  19.988  0.00  0.00    +0.000 A 
ENDROOT
BRANCH   1  13
ATOM      7  C   UNL     1      -2.943   9.831  16.022  0.00  0.00    +0.000 C 
ATOM      8  C   UNL     1      -2.163  10.471  17.110  0.00  0.00    +0.000 A 
ATOM      9  C   UNL     1      -2.415  11.690  17.762  0.00  0.00    +0.000 A 
ATOM     10  C   UNL     1      -1.389  11.834  18.669  0.00  0.00    +0.000 A 
ATOM     11  C   UNL     1      -1.127  12.938  19.631  0.00  0.00    +0.000 C 
ATOM     12  N   UNL     1      -0.574  10.717  18.532  0.00  0.00    +0.000 N 
ATOM     13  C   UNL     1       0.606  10.370  19.243  0.00  0.00    +0.000 C 
ATOM     14  O   UNL     1       0.968  11.120  20.152  0.00  0.00    +0.000 OA
ATOM     15  N   UNL     1      -1.067   9.878  17.582  0.00  0.00    +0.000 NA
ENDBRANCH   1  13
BRANCH   4  16
ATOM     16  S   UNL     1       3.907   5.350  18.340  0.00  0.00    +0.000 S 
ATOM     17  O   UNL     1       4.378   4.901  19.633  0.00  0.00    +0.000 OA
ATOM     18  O   UNL     1       3.119   4.483  17.488  0.00  0.00    +0.000 OA
BRANCH  16  19
ATOM     19  N   UNL     1       5.264   5.851  17.434  0.00  0.00    +0.000 NA
ATOM     20  C   UNL     1       5.359   5.396  16.028  0.00  0.00    +0.000 C 
ATOM     21  C   UNL     1       6.334   4.238  16.048  0.00  0.00    +0.000 C 
ATOM     22  C   UNL     1       7.332   4.624  17.120  0.00  0.00    +0.000 C 
ATOM     23  C   UNL     1       6.569   5.523  18.087  0.00  0.00    +0.000 C 
ENDBRANCH  16  19
ENDBRANCH   4  16
TORSDOF 3
ENDMDL
MODEL 6
REMARK VINA RESULT:      -7.8      1.820      2.579
REMARK  Name = 
REMARK  5 active torsions:
REMARK  status: ('A' for Active; 'I' for Inactive)
REMARK    1  A    between atoms: C_1  and  C_2
REMARK    2  A    between atoms: C_4  and  C_5
REMARK    3  A    between atoms: C_7  and  C_9
REMARK    4  A    between atoms: C_12  and  S_13
REMARK    5  A    between atoms: S_13  and  N_16
REMARK                            x       y       z     vdW  Elec       q    Type
REMARK                         _______ _______ _______ _____ _____    ______ ____
ROOT
ATOM      1  C   UNL     1       1.492   9.139  19.033  0.00  0.00    +0.000 A 
ATOM      2  C   UNL     1       1.519   8.134  20.007  0.00  0.00    +0.000 A 
ATOM      3  C   UNL     1       2.278   6.975  19.811  0.00  0.00    +0.000 A 
ATOM      4  C   UNL     1       2.985   6.803  18.618  0.00  0.00    +0.000 A 
ATOM      5  C   UNL     1       2.944   7.781  17.621  0.00  0.00    +0.000 A 
ATOM      6  C   UNL     1       2.197   8.945  17.831  0.00  0.00    +0.000 A 
ENDROOT
BRANCH   1  13
ATOM      7  C   UNL     1      -2.918   9.745  16.090  0.00  0.00    +0.000 C 
ATOM      8  C   UNL     1      -2.094  10.440  17.110  0.00  0.00    +0.000 A 
ATOM      9  C   UNL     1      -2.287  11.716  17.664  0.00  0.00    +0.000 A 
ATOM     10  C   UNL     1      -1.240  11.892  18.541  0.00  0.00    +0.000 A 
ATOM     11  C   UNL     1      -0.919  13.059  19.407  0.00  0.00    +0.000 C 
ATOM     12  N   UNL     1      -0.471  10.737  18.482  0.00  0.00    +0.000 N 
ATOM     13  C   UNL     1       0.708  10.402  19.201  0.00  0.00    +0.000 C 
ATOM     14  O   UNL     1       1.115  11.209  20.040  0.00  0.00    +0.000 OA
ATOM     15  N   UNL     1      -1.012   9.844  17.611  0.00  0.00    +0.000 NA
ENDBRANCH   1  13
BRANCH   4  16
ATOM     16  S   UNL     1       3.985   5.350  18.391  0.00  0.00    +0.000 S 
ATOM     17  O   UNL     1       4.179   4.763  19.700  0.00  0.00    +0.000 OA
ATOM     18  O   UNL     1       3.419   4.581  17.302  0.00  0.00    +0.000 OA
BRANCH  16  19
ATOM     19  N   UNL     1       5.490   5.950  17.857  0.00  0.00    +0.000 NA
ATOM     20  C   UNL     1       5.884   5.673  16.456  0.00  0.00    +0.000 C 
ATOM     21  C   UNL     1       6.856   4.514  16.536  0.00  0.00    +0.000 C 
ATOM     22  C   UNL     1       7.601   4.756  17.832  0.00  0.00    +0.000 C 
ATOM     23  C   UNL     1       6.637   5.533  18.722  0.00  0.00    +0.000 C 
ENDBRANCH  16  19
ENDBRANCH   4  16
TORSDOF 3
ENDMDL
MODEL 7
REMARK VINA RESULT:      -7.7      1.989      3.109
REMARK  Name = 
REMARK  5 active torsions:
REMARK  status: ('A' for Active; 'I' for Inactive)
REMARK    1  A    between atoms: C_1  and  C_2
REMARK    2  A    between atoms: C_4  and  C_5
REMARK    3  A    between atoms: C_7  and  C_9
REMARK    4  A    between atoms: C_12  and  S_13
REMARK    5  A    between atoms: S_13  and  N_16
REMARK                            x       y       z     vdW  Elec       q    Type
REMARK                         _______ _______ _______ _____ _____    ______ ____
ROOT
ATOM      1  C   UNL     1       2.402   7.920  18.614  0.00  0.00    +0.000 A 
ATOM      2  C   UNL     1       2.310   6.968  19.636  0.00  0.00    +0.000 A 
ATOM      3  C   UNL     1       3.078   5.799  19.588  0.00  0.00    +0.000 A 
ATOM      4  C   UNL     1       3.916   5.563  18.495  0.00  0.00    +0.000 A 
ATOM      5  C   UNL     1       3.997   6.488  17.451  0.00  0.00    +0.000 A 
ATOM      6  C   UNL     1       3.239   7.662  17.513  0.00  0.00    +0.000 A 
ENDROOT
BRANCH   1  13
ATOM      7  C   UNL     1       0.113   9.395  23.203  0.00  0.00    +0.000 C 
ATOM      8  C   UNL     1       0.265   9.818  21.789  0.00  0.00    +0.000 A 
ATOM      9  C   UNL     1      -0.291  10.939  21.150  0.00  0.00    +0.000 A 
ATOM     10  C   UNL     1       0.138  10.861  19.844  0.00  0.00    +0.000 A 
ATOM     11  C   UNL     1      -0.145  11.771  18.701  0.00  0.00    +0.000 C 
ATOM     12  N   UNL     1       0.921   9.717  19.748  0.00  0.00    +0.000 N 
ATOM     13  C   UNL     1       1.614   9.191  18.624  0.00  0.00    +0.000 C 
ATOM     14  O   UNL     1       1.575   9.837  17.575  0.00  0.00    +0.000 OA
ATOM     15  N   UNL     1       1.006   9.091  20.953  0.00  0.00    +0.000 NA
ENDBRANCH   1  13
BRANCH   4  16
ATOM     16  S   UNL     1       4.924   4.100  18.460  0.00  0.00    +0.000 S 
ATOM     17  O   UNL     1       5.928   4.303  17.438  0.00  0.00    +0.000 OA
ATOM     18  O   UNL     1       5.297   3.778  19.822  0.00  0.00    +0.000 OA
BRANCH  16  19
ATOM     19  N   UNL     1       3.870   2.871  17.922  0.00  0.00    +0.000 NA
ATOM     20  C   UNL     1       2.664   3.281  17.167  0.00  0.00    +0.000 C 
ATOM     21  C   UNL     1       1.528   3.226  18.168  0.00  0.00    +0.000 C 
ATOM     22  C   UNL     1       1.889   2.057  19.060  0.00  0.00    +0.000 C 
ATOM     23  C   UNL     1       3.411   1.960  19.016  0.00  0.00    +0.000 C 
ENDBRANCH  16  19
ENDBRANCH   4  16
TORSDOF 3
ENDMDL
MODEL 8
REMARK VINA RESULT:      -7.7      2.053      7.527
REMARK  Name = 
REMARK  5 active torsions:
REMARK  status: ('A' for Active; 'I' for Inactive)
REMARK    1  A    between atoms: C_1  and  C_2
REMARK    2  A    between atoms: C_4  and  C_5
REMARK    3  A    between atoms: C_7  and  C_9
REMARK    4  A    between atoms: C_12  and  S_13
REMARK    5  A    between atoms: S_13  and  N_16
REMARK                            x       y       z     vdW  Elec       q    Type
REMARK                         _______ _______ _______ _____ _____    ______ ____
ROOT
ATOM      1  C   UNL     1       2.606   7.394  18.450  0.00  0.00    +0.000 A 
ATOM      2  C   UNL     1       2.190   8.549  17.776  0.00  0.00    +0.000 A 
ATOM      3  C   UNL     1       1.490   9.552  18.455  0.00  0.00    +0.000 A 
ATOM      4  C   UNL     1       1.172   9.386  19.805  0.00  0.00    +0.000 A 
ATOM      5  C   UNL     1       1.551   8.226  20.485  0.00  0.00    +0.000 A 
ATOM      6  C   UNL     1       2.265   7.233  19.805  0.00  0.00    +0.000 A 
ENDROOT
BRANCH   1  13
ATOM      7  C   UNL     1       0.678   2.430  18.804  0.00  0.00    +0.000 C 
ATOM      8  C   UNL     1       1.809   3.203  18.233  0.00  0.00    +0.000 A 
ATOM      9  C   UNL     1       2.911   2.724  17.505  0.00  0.00    +0.000 A 
ATOM     10  C   UNL     1       3.673   3.836  17.228  0.00  0.00    +0.000 A 
ATOM     11  C   UNL     1       4.961   3.939  16.491  0.00  0.00    +0.000 C 
ATOM     12  N   UNL     1       3.013   4.923  17.789  0.00  0.00    +0.000 N 
ATOM     13  C   UNL     1       3.368   6.298  17.774  0.00  0.00    +0.000 C 
ATOM     14  O   UNL     1       4.378   6.622  17.146  0.00  0.00    +0.000 OA
ATOM     15  N   UNL     1       1.861   4.525  18.392  0.00  0.00    +0.000 NA
ENDBRANCH   1  13
BRANCH   4  16
ATOM     16  S   UNL     1       0.323  10.683  20.675  0.00  0.00    +0.000 S 
ATOM     17  O   UNL     1      -0.712  10.053  21.467  0.00  0.00    +0.000 OA
ATOM     18  O   UNL     1       1.317  11.539  21.287  0.00  0.00    +0.000 OA
BRANCH  16  19
ATOM     19  N   UNL     1      -0.437  11.591  19.446  0.00  0.00    +0.000 NA
ATOM     20  C   UNL     1      -0.713  13.021  19.717  0.00  0.00    +0.000 C 
ATOM     21  C   UNL     1      -2.182  13.082  20.081  0.00  0.00    +0.000 C 
ATOM     22  C   UNL     1      -2.815  12.013  19.214  0.00  0.00    +0.000 C 
ATOM     23  C   UNL     1      -1.717  10.984  18.964  0.00  0.00    +0.000 C 
ENDBRANCH  16  19
ENDBRANCH   4  16
TORSDOF 3
ENDMDL
MODEL 9
REMARK VINA RESULT:      -7.6      2.487      7.799
REMARK  Name = 
REMARK  5 active torsions:
REMARK  status: ('A' for Active; 'I' for Inactive)
REMARK    1  A    between atoms: C_1  and  C_2
REMARK    2  A    between atoms: C_4  and  C_5
REMARK    3  A    between atoms: C_7  and  C_9
REMARK    4  A    between atoms: C_12  and  S_13
REMARK    5  A    between atoms: S_13  and  N_16
REMARK                            x       y       z     vdW  Elec       q    Type
REMARK                         _______ _______ _______ _____ _____    ______ ____
ROOT
ATOM      1  C   UNL     1       2.583   7.405  18.464  0.00  0.00    +0.000 A 
ATOM      2  C   UNL     1       2.226   7.368  19.817  0.00  0.00    +0.000 A 
ATOM      3  C   UNL     1       1.505   8.421  20.389  0.00  0.00    +0.000 A 
ATOM      4  C   UNL     1       1.170   9.535  19.614  0.00  0.00    +0.000 A 
ATOM      5  C   UNL     1       1.546   9.603  18.271  0.00  0.00    +0.000 A 
ATOM      6  C   UNL     1       2.253   8.539  17.701  0.00  0.00    +0.000 A 
ENDROOT
BRANCH   1  13
ATOM      7  C   UNL     1       0.616   2.458  18.844  0.00  0.00    +0.000 C 
ATOM      8  C   UNL     1       1.756   3.218  18.273  0.00  0.00    +0.000 A 
ATOM      9  C   UNL     1       2.859   2.725  17.555  0.00  0.00    +0.000 A 
ATOM     10  C   UNL     1       3.631   3.830  17.275  0.00  0.00    +0.000 A 
ATOM     11  C   UNL     1       4.925   3.918  16.545  0.00  0.00    +0.000 C 
ATOM     12  N   UNL     1       2.976   4.926  17.824  0.00  0.00    +0.000 N 
ATOM     13  C   UNL     1       3.342   6.298  17.801  0.00  0.00    +0.000 C 
ATOM     14  O   UNL     1       4.358   6.609  17.176  0.00  0.00    +0.000 OA
ATOM     15  N   UNL     1       1.817   4.540  18.423  0.00  0.00    +0.000 NA
ENDBRANCH   1  13
BRANCH   4  16
ATOM     16  S   UNL     1       0.215  10.851  20.333  0.00  0.00    +0.000 S 
ATOM     17  O   UNL     1      -1.148  10.680  19.877  0.00  0.00    +0.000 OA
ATOM     18  O   UNL     1       0.529  10.915  21.745  0.00  0.00    +0.000 OA
BRANCH  16  19
ATOM     19  N   UNL     1       0.834  12.268  19.612  0.00  0.00    +0.000 NA
ATOM     20  C   UNL     1       1.353  13.326  20.509  0.00  0.00    +0.000 C 
ATOM     21  C   UNL     1       0.250  14.360  20.588  0.00  0.00    +0.000 C 
ATOM     22  C   UNL     1      -0.369  14.334  19.206  0.00  0.00    +0.000 C 
ATOM     23  C   UNL     1      -0.126  12.926  18.673  0.00  0.00    +0.000 C 
ENDBRANCH  16  19
ENDBRANCH   4  16
TORSDOF 3
ENDMDL
