MODEL 1
REMARK VINA RESULT:      -9.4      0.000      0.000
REMARK  Name = 
REMARK  7 active torsions:
REMARK  status: ('A' for Active; 'I' for Inactive)
REMARK    1  A    between atoms: C_1  and  C_2
REMARK    2  A    between atoms: C_6  and  C_7
REMARK    3  A    between atoms: C_11  and  C_12
REMARK    4  A    between atoms: N_14  and  C_15
REMARK    5  A    between atoms: N_18  and  C_19
REMARK    6  A    between atoms: C_19  and  C_20
REMARK    7  A    between atoms: C_20  and  C_21
REMARK                            x       y       z     vdW  Elec       q    Type
REMARK                         _______ _______ _______ _____ _____    ______ ____
ROOT
ATOM      1  C   UNL     1       2.330   7.839  18.808  0.00  0.00    +0.000 A 
ATOM      2  C   UNL     1       2.458   8.549  17.604  0.00  0.00    +0.000 A 
ATOM      3  N   UNL     1       1.807   9.715  17.629  0.00  0.00    +0.000 NA
ATOM      4  N   UNL     1       1.296   9.771  18.879  0.00  0.00    +0.000 N 
ATOM      5  C   UNL     1       1.542   8.638  19.600  0.00  0.00    +0.000 A 
ENDROOT
BRANCH   1   8
ATOM      6  C   UNL     1       2.346   5.438  18.681  0.00  0.00    +0.000 C 
ATOM      7  O   UNL     1       1.434   5.376  17.857  0.00  0.00    +0.000 OA
ATOM      8  N   UNL     1       2.884   6.619  19.144  0.00  0.00    +0.000 N 
ATOM      9  H   UNL     1       3.830   6.574  19.508  0.00  0.00    +0.000 HD
BRANCH   6  14
ATOM     10  C   UNL     1       4.252   3.778  18.908  0.00  0.00    +0.000 A 
ATOM     11  O   UNL     1       4.471   2.651  19.663  0.00  0.00    +0.000 OA
ATOM     12  C   UNL     1       3.317   2.494  20.371  0.00  0.00    +0.000 A 
ATOM     13  N   UNL     1       2.396   3.402  20.157  0.00  0.00    +0.000 NA
ATOM     14  C   UNL     1       2.992   4.251  19.229  0.00  0.00    +0.000 A 
BRANCH  10  20
ATOM     15  C   UNL     1       5.815   3.951  14.196  0.00  0.00    +0.000 C 
ATOM     16  C   UNL     1       6.089   4.221  15.643  0.00  0.00    +0.000 A 
ATOM     17  C   UNL     1       7.278   4.803  16.080  0.00  0.00    +0.000 A 
ATOM     18  C   UNL     1       7.483   5.049  17.439  0.00  0.00    +0.000 A 
ATOM     19  C   UNL     1       6.499   4.719  18.375  0.00  0.00    +0.000 A 
ATOM     20  C   UNL     1       5.299   4.135  17.959  0.00  0.00    +0.000 A 
ATOM     21  C   UNL     1       5.118   3.881  16.593  0.00  0.00    +0.000 A 
ENDBRANCH  10  20
ENDBRANCH   6  14
ENDBRANCH   1   8
BRANCH   4  22
ATOM     22  C   UNL     1       0.605  10.977  19.307  0.00  0.00    +0.000 C 
BRANCH  22  23
ATOM     23  C   UNL     1      -0.698  10.712  20.066  0.00  0.00    +0.000 C 
BRANCH  23  24
ATOM     24  C   UNL     1      -1.903  11.219  19.335  0.00  0.00    +0.000 A 
ATOM     25  C   UNL     1      -2.751  12.216  19.775  0.00  0.00    +0.000 A 
ATOM     26  N   UNL     1      -3.722  12.409  18.831  0.00  0.00    +0.000 N 
ATOM     27  C   UNL     1      -3.504  11.586  17.754  0.00  0.00    +0.000 A 
ATOM     28  C   UNL     1      -4.203  11.488  16.544  0.00  0.00    +0.000 A 
ATOM     29  C   UNL     1      -3.752  10.554  15.609  0.00  0.00    +0.000 A 
ATOM     30  C   UNL     1      -2.667   9.727  15.891  0.00  0.00    +0.000 A 
ATOM     31  C   UNL     1      -1.985   9.832  17.109  0.00  0.00    +0.000 A 
ATOM     32  C   UNL     1      -2.392  10.797  18.055  0.00  0.00    +0.000 A 
ATOM     33  H   UNL     1      -4.478  13.076  18.899  0.00  0.00    +0.000 HD
ENDBRANCH  23  24
ENDBRANCH  22  23
ENDBRANCH   4  22
TORSDOF 6
ENDMDL
MODEL 2
REMARK VINA RESULT:      -9.4      0.916      1.582
REMARK  Name = 
REMARK  7 active torsions:
REMARK  status: ('A' for Active; 'I' for Inactive)
REMARK    1  A    between atoms: C_1  and  C_2
REMARK    2  A    between atoms: C_6  and  C_7
REMARK    3  A    between atoms: C_11  and  C_12
REMARK    4  A    between atoms: N_14  and  C_15
REMARK    5  A    between atoms: N_18  and  C_19
REMARK    6  A    between atoms: C_19  and  C_20
REMARK    7  A    between atoms: C_20  and  C_21
REMARK                            x       y       z     vdW  Elec       q    Type
REMARK                         _______ _______ _______ _____ _____    ______ ____
ROOT
ATOM      1  C   UNL     1       2.173   7.433  19.749  0.00  0.00    +0.000 A 
ATOM      2  C   UNL     1       2.086   8.325  18.668  0.00  0.00    +0.000 A 
ATOM      3  N   UNL     1       1.252   9.339  18.911  0.00  0.00    +0.000 NA
ATOM      4  N   UNL     1       0.837   9.118  20.178  0.00  0.00    +0.000 N 
ATOM      5  C   UNL     1       1.324   7.953  20.696  0.00  0.00    +0.000 A 
ENDROOT
BRANCH   1   8
ATOM      6  C   UNL     1       2.474   5.066  19.455  0.00  0.00    +0.000 C 
ATOM      7  O   UNL     1       1.404   4.901  18.869  0.00  0.00    +0.000 OA
ATOM      8  N   UNL     1       2.948   6.295  19.858  0.00  0.00    +0.000 N 
ATOM      9  H   UNL     1       3.951   6.375  19.982  0.00  0.00    +0.000 HD
BRANCH   6  14
ATOM     10  C   UNL     1       4.647   3.778  19.215  0.00  0.00    +0.000 A 
ATOM     11  O   UNL     1       5.162   2.633  19.774  0.00  0.00    +0.000 OA
ATOM     12  C   UNL     1       4.166   2.182  20.588  0.00  0.00    +0.000 A 
ATOM     13  N   UNL     1       3.083   2.919  20.616  0.00  0.00    +0.000 NA
ATOM     14  C   UNL     1       3.385   3.966  19.750  0.00  0.00    +0.000 A 
BRANCH  10  20
ATOM     15  C   UNL     1       7.910   7.346  18.073  0.00  0.00    +0.000 C 
ATOM     16  C   UNL     1       7.071   6.189  17.622  0.00  0.00    +0.000 A 
ATOM     17  C   UNL     1       7.078   5.734  16.305  0.00  0.00    +0.000 A 
ATOM     18  C   UNL     1       6.290   4.643  15.934  0.00  0.00    +0.000 A 
ATOM     19  C   UNL     1       5.490   3.993  16.878  0.00  0.00    +0.000 A 
ATOM     20  C   UNL     1       5.469   4.432  18.205  0.00  0.00    +0.000 A 
ATOM     21  C   UNL     1       6.254   5.539  18.554  0.00  0.00    +0.000 A 
ENDBRANCH  10  20
ENDBRANCH   6  14
ENDBRANCH   1   8
BRANCH   4  22
ATOM     22  C   UNL     1      -0.012  10.105  20.827  0.00  0.00    +0.000 C 
BRANCH  22  23
ATOM     23  C   UNL     1      -0.140  11.420  20.053  0.00  0.00    +0.000 C 
BRANCH  23  24
ATOM     24  C   UNL     1      -1.528  11.654  19.542  0.00  0.00    +0.000 A 
ATOM     25  C   UNL     1      -2.471  12.479  20.123  0.00  0.00    +0.000 A 
ATOM     26  N   UNL     1      -3.607  12.445  19.362  0.00  0.00    +0.000 N 
ATOM     27  C   UNL     1      -3.416  11.643  18.263  0.00  0.00    +0.000 A 
ATOM     28  C   UNL     1      -4.276  11.367  17.193  0.00  0.00    +0.000 A 
ATOM     29  C   UNL     1      -3.813  10.509  16.193  0.00  0.00    +0.000 A 
ATOM     30  C   UNL     1      -2.552   9.923  16.283  0.00  0.00    +0.000 A 
ATOM     31  C   UNL     1      -1.708  10.202  17.365  0.00  0.00    +0.000 A 
ATOM     32  C   UNL     1      -2.133  11.100  18.367  0.00  0.00    +0.000 A 
ATOM     33  H   UNL     1      -4.459  12.951  19.560  0.00  0.00    +0.000 HD
ENDBRANCH  23  24
ENDBRANCH  22  23
ENDBRANCH   4  22
TORSDOF 6
ENDMDL
MODEL 3
REMARK VINA RESULT:      -8.8      1.333      2.358
REMARK  Name = 
REMARK  7 active torsions:
REMARK  status: ('A' for Active; 'I' for Inactive)
REMARK    1  A    between atoms: C_1  and  C_2
REMARK    2  A    between atoms: C_6  and  C_7
REMARK    3  A    between atoms: C_11  and  C_12
REMARK    4  A    between atoms: N_14  and  C_15
REMARK    5  A    between atoms: N_18  and  C_19
REMARK    6  A    between atoms: C_19  and  C_20
REMARK    7  A    between atoms: C_20  and  C_21
REMARK                            x       y       z     vdW  Elec       q    Type
REMARK                         _______ _______ _______ _____ _____    ______ ____
ROOT
ATOM      1  C   UNL     1       2.166   7.358  19.974  0.00  0.00    +0.000 A 
ATOM      2  C   UNL     1       1.369   7.869  21.010  0.00  0.00    +0.000 A 
ATOM      3  N   UNL     1       0.717   8.979  20.652  0.00  0.00    +0.000 NA
ATOM      4  N   UNL     1       1.067   9.153  19.358  0.00  0.00    +0.000 N 
ATOM      5  C   UNL     1       1.979   8.232  18.930  0.00  0.00    +0.000 A 
ENDROOT
BRANCH   1   8
ATOM      6  C   UNL     1       2.422   4.986  19.685  0.00  0.00    +0.000 C 
ATOM      7  O   UNL     1       1.272   4.810  19.283  0.00  0.00    +0.000 OA
ATOM      8  N   UNL     1       2.951   6.223  19.980  0.00  0.00    +0.000 N 
ATOM      9  H   UNL     1       3.962   6.305  19.939  0.00  0.00    +0.000 HD
BRANCH   6  14
ATOM     10  C   UNL     1       4.553   3.715  19.152  0.00  0.00    +0.000 A 
ATOM     11  O   UNL     1       5.145   2.572  19.633  0.00  0.00    +0.000 OA
ATOM     12  C   UNL     1       4.271   2.111  20.571  0.00  0.00    +0.000 A 
ATOM     13  N   UNL     1       3.196   2.841  20.746  0.00  0.00    +0.000 NA
ATOM     14  C   UNL     1       3.372   3.892  19.851  0.00  0.00    +0.000 A 
BRANCH  10  20
ATOM     15  C   UNL     1       7.612   7.305  17.597  0.00  0.00    +0.000 C 
ATOM     16  C   UNL     1       6.727   6.146  17.258  0.00  0.00    +0.000 A 
ATOM     17  C   UNL     1       6.559   5.696  15.950  0.00  0.00    +0.000 A 
ATOM     18  C   UNL     1       5.735   4.601  15.683  0.00  0.00    +0.000 A 
ATOM     19  C   UNL     1       5.072   3.943  16.724  0.00  0.00    +0.000 A 
ATOM     20  C   UNL     1       5.228   4.377  18.043  0.00  0.00    +0.000 A 
ATOM     21  C   UNL     1       6.047   5.487  18.289  0.00  0.00    +0.000 A 
ENDBRANCH  10  20
ENDBRANCH   6  14
ENDBRANCH   1   8
BRANCH   4  22
ATOM     22  C   UNL     1       0.445  10.225  18.597  0.00  0.00    +0.000 C 
BRANCH  22  23
ATOM     23  C   UNL     1      -0.834  10.778  19.230  0.00  0.00    +0.000 C 
BRANCH  23  24
ATOM     24  C   UNL     1      -1.976  10.840  18.262  0.00  0.00    +0.000 A 
ATOM     25  C   UNL     1      -2.008  10.243  17.017  0.00  0.00    +0.000 A 
ATOM     26  N   UNL     1      -3.218  10.511  16.438  0.00  0.00    +0.000 N 
ATOM     27  C   UNL     1      -4.003  11.239  17.298  0.00  0.00    +0.000 A 
ATOM     28  C   UNL     1      -5.325  11.679  17.152  0.00  0.00    +0.000 A 
ATOM     29  C   UNL     1      -5.886  12.405  18.205  0.00  0.00    +0.000 A 
ATOM     30  C   UNL     1      -5.140  12.709  19.341  0.00  0.00    +0.000 A 
ATOM     31  C   UNL     1      -3.816  12.269  19.467  0.00  0.00    +0.000 A 
ATOM     32  C   UNL     1      -3.238  11.496  18.438  0.00  0.00    +0.000 A 
ATOM     33  H   UNL     1      -3.508  10.201  15.521  0.00  0.00    +0.000 HD
ENDBRANCH  23  24
ENDBRANCH  22  23
ENDBRANCH   4  22
TORSDOF 6
ENDMDL
MODEL 4
REMARK VINA RESULT:      -8.8      0.867      1.217
REMARK  Name = 
REMARK  7 active torsions:
REMARK  status: ('A' for Active; 'I' for Inactive)
REMARK    1  A    between atoms: C_1  and  C_2
REMARK    2  A    between atoms: C_6  and  C_7
REMARK    3  A    between atoms: C_11  and  C_12
REMARK    4  A    between atoms: N_14  and  C_15
REMARK    5  A    between atoms: N_18  and  C_19
REMARK    6  A    between atoms: C_19  and  C_20
REMARK    7  A    between atoms: C_20  and  C_21
REMARK                            x       y       z     vdW  Elec       q    Type
REMARK                         _______ _______ _______ _____ _____    ______ ____
ROOT
ATOM      1  C   UNL     1       1.762   7.477  20.493  0.00  0.00    +0.000 A 
ATOM      2  C   UNL     1       0.775   7.906  21.395  0.00  0.00    +0.000 A 
ATOM      3  N   UNL     1       0.218   9.063  21.028  0.00  0.00    +0.000 NA
ATOM      4  N   UNL     1       0.823   9.354  19.855  0.00  0.00    +0.000 N 
ATOM      5  C   UNL     1       1.796   8.454  19.528  0.00  0.00    +0.000 A 
ENDROOT
BRANCH   1   8
ATOM      6  C   UNL     1       2.580   5.462  19.468  0.00  0.00    +0.000 C 
ATOM      7  O   UNL     1       2.079   5.699  18.369  0.00  0.00    +0.000 OA
ATOM      8  N   UNL     1       2.521   6.325  20.541  0.00  0.00    +0.000 N 
ATOM      9  H   UNL     1       3.245   6.223  21.244  0.00  0.00    +0.000 HD
BRANCH   6  14
ATOM     10  C   UNL     1       4.553   3.893  19.182  0.00  0.00    +0.000 A 
ATOM     11  O   UNL     1       4.916   2.684  19.726  0.00  0.00    +0.000 OA
ATOM     12  C   UNL     1       3.882   2.366  20.555  0.00  0.00    +0.000 A 
ATOM     13  N   UNL     1       2.910   3.244  20.606  0.00  0.00    +0.000 NA
ATOM     14  C   UNL     1       3.338   4.246  19.740  0.00  0.00    +0.000 A 
BRANCH  10  20
ATOM     15  C   UNL     1       5.843   4.136  14.392  0.00  0.00    +0.000 C 
ATOM     16  C   UNL     1       6.094   4.562  15.806  0.00  0.00    +0.000 A 
ATOM     17  C   UNL     1       7.113   5.450  16.145  0.00  0.00    +0.000 A 
ATOM     18  C   UNL     1       7.301   5.830  17.476  0.00  0.00    +0.000 A 
ATOM     19  C   UNL     1       6.468   5.327  18.480  0.00  0.00    +0.000 A 
ATOM     20  C   UNL     1       5.439   4.436  18.161  0.00  0.00    +0.000 A 
ATOM     21  C   UNL     1       5.278   4.054  16.823  0.00  0.00    +0.000 A 
ENDBRANCH  10  20
ENDBRANCH   6  14
ENDBRANCH   1   8
BRANCH   4  22
ATOM     22  C   UNL     1       0.377  10.512  19.098  0.00  0.00    +0.000 C 
BRANCH  22  23
ATOM     23  C   UNL     1      -0.503  11.477  19.897  0.00  0.00    +0.000 C 
BRANCH  23  24
ATOM     24  C   UNL     1      -1.861  11.655  19.288  0.00  0.00    +0.000 A 
ATOM     25  C   UNL     1      -2.884  12.420  19.813  0.00  0.00    +0.000 A 
ATOM     26  N   UNL     1      -3.958  12.347  18.968  0.00  0.00    +0.000 N 
ATOM     27  C   UNL     1      -3.646  11.581  17.872  0.00  0.00    +0.000 A 
ATOM     28  C   UNL     1      -4.411  11.287  16.735  0.00  0.00    +0.000 A 
ATOM     29  C   UNL     1      -3.833  10.475  15.757  0.00  0.00    +0.000 A 
ATOM     30  C   UNL     1      -2.555   9.949  15.929  0.00  0.00    +0.000 A 
ATOM     31  C   UNL     1      -1.807  10.245  17.076  0.00  0.00    +0.000 A 
ATOM     32  C   UNL     1      -2.349  11.098  18.060  0.00  0.00    +0.000 A 
ATOM     33  H   UNL     1      -4.846  12.807  19.112  0.00  0.00    +0.000 HD
ENDBRANCH  23  24
ENDBRANCH  22  23
ENDBRANCH   4  22
TORSDOF 6
ENDMDL
MODEL 5
REMARK VINA RESULT:      -8.7      1.487      2.229
REMARK  Name = 
REMARK  7 active torsions:
REMARK  status: ('A' for Active; 'I' for Inactive)
REMARK    1  A    between atoms: C_1  and  C_2
REMARK    2  A    between atoms: C_6  and  C_7
REMARK    3  A    between atoms: C_11  and  C_12
REMARK    4  A    between atoms: N_14  and  C_15
REMARK    5  A    between atoms: N_18  and  C_19
REMARK    6  A    between atoms: C_19  and  C_20
REMARK    7  A    between atoms: C_20  and  C_21
REMARK                            x       y       z     vdW  Elec       q    Type
REMARK                         _______ _______ _______ _____ _____    ______ ____
ROOT
ATOM      1  C   UNL     1       1.355   8.293  21.153  0.00  0.00    +0.000 A 
ATOM      2  C   UNL     1       1.357   9.022  22.352  0.00  0.00    +0.000 A 
ATOM      3  N   UNL     1       1.135  10.325  22.157  0.00  0.00    +0.000 NA
ATOM      4  N   UNL     1       0.945  10.422  20.823  0.00  0.00    +0.000 N 
ATOM      5  C   UNL     1       1.123   9.233  20.177  0.00  0.00    +0.000 A 
ENDROOT
BRANCH   1   8
ATOM      6  C   UNL     1       2.164   6.431  19.866  0.00  0.00    +0.000 C 
ATOM      7  O   UNL     1       2.728   7.130  19.024  0.00  0.00    +0.000 OA
ATOM      8  N   UNL     1       1.526   6.935  20.978  0.00  0.00    +0.000 N 
ATOM      9  H   UNL     1       1.428   6.305  21.768  0.00  0.00    +0.000 HD
BRANCH   6  14
ATOM     10  C   UNL     1       3.125   4.169  19.233  0.00  0.00    +0.000 A 
ATOM     11  O   UNL     1       2.725   2.866  19.400  0.00  0.00    +0.000 OA
ATOM     12  C   UNL     1       1.519   2.964  20.028  0.00  0.00    +0.000 A 
ATOM     13  N   UNL     1       1.116   4.184  20.287  0.00  0.00    +0.000 NA
ATOM     14  C   UNL     1       2.152   4.974  19.797  0.00  0.00    +0.000 A 
BRANCH  10  20
ATOM     15  C   UNL     1       7.820   5.789  19.172  0.00  0.00    +0.000 C 
ATOM     16  C   UNL     1       6.670   5.178  18.432  0.00  0.00    +0.000 A 
ATOM     17  C   UNL     1       6.761   4.804  17.093  0.00  0.00    +0.000 A 
ATOM     18  C   UNL     1       5.667   4.224  16.449  0.00  0.00    +0.000 A 
ATOM     19  C   UNL     1       4.470   4.010  17.139  0.00  0.00    +0.000 A 
ATOM     20  C   UNL     1       4.357   4.377  18.483  0.00  0.00    +0.000 A 
ATOM     21  C   UNL     1       5.461   4.972  19.107  0.00  0.00    +0.000 A 
ENDBRANCH  10  20
ENDBRANCH   6  14
ENDBRANCH   1   8
BRANCH   4  22
ATOM     22  C   UNL     1       0.562  11.705  20.255  0.00  0.00    +0.000 C 
BRANCH  22  23
ATOM     23  C   UNL     1       0.075  11.625  18.806  0.00  0.00    +0.000 C 
BRANCH  23  24
ATOM     24  C   UNL     1      -1.413  11.749  18.691  0.00  0.00    +0.000 A 
ATOM     25  C   UNL     1      -2.233  12.436  19.564  0.00  0.00    +0.000 A 
ATOM     26  N   UNL     1      -3.523  12.335  19.120  0.00  0.00    +0.000 N 
ATOM     27  C   UNL     1      -3.564  11.628  17.944  0.00  0.00    +0.000 A 
ATOM     28  C   UNL     1      -4.651  11.335  17.111  0.00  0.00    +0.000 A 
ATOM     29  C   UNL     1      -4.400  10.592  15.955  0.00  0.00    +0.000 A 
ATOM     30  C   UNL     1      -3.118  10.132  15.666  0.00  0.00    +0.000 A 
ATOM     31  C   UNL     1      -2.043  10.426  16.515  0.00  0.00    +0.000 A 
ATOM     32  C   UNL     1      -2.260  11.212  17.667  0.00  0.00    +0.000 A 
ATOM     33  H   UNL     1      -4.330  12.740  19.574  0.00  0.00    +0.000 HD
ENDBRANCH  23  24
ENDBRANCH  22  23
ENDBRANCH   4  22
TORSDOF 6
ENDMDL
MODEL 6
REMARK VINA RESULT:      -8.7      0.632      1.435
REMARK  Name = 
REMARK  7 active torsions:
REMARK  status: ('A' for Active; 'I' for Inactive)
REMARK    1  A    between atoms: C_1  and  C_2
REMARK    2  A    between atoms: C_6  and  C_7
REMARK    3  A    between atoms: C_11  and  C_12
REMARK    4  A    between atoms: N_14  and  C_15
REMARK    5  A    between atoms: N_18  and  C_19
REMARK    6  A    between atoms: C_19  and  C_20
REMARK    7  A    between atoms: C_20  and  C_21
REMARK                            x       y       z     vdW  Elec       q    Type
REMARK                         _______ _______ _______ _____ _____    ______ ____
ROOT
ATOM      1  C   UNL     1       2.271   7.724  18.627  0.00  0.00    +0.000 A 
ATOM      2  C   UNL     1       2.636   8.554  17.555  0.00  0.00    +0.000 A 
ATOM      3  N   UNL     1       2.103   9.775  17.651  0.00  0.00    +0.000 NA
ATOM      4  N   UNL     1       1.428   9.739  18.821  0.00  0.00    +0.000 N 
ATOM      5  C   UNL     1       1.458   8.508  19.409  0.00  0.00    +0.000 A 
ENDROOT
BRANCH   1   8
ATOM      6  C   UNL     1       1.973   5.362  18.300  0.00  0.00    +0.000 C 
ATOM      7  O   UNL     1       1.078   5.489  17.464  0.00  0.00    +0.000 OA
ATOM      8  N   UNL     1       2.652   6.419  18.865  0.00  0.00    +0.000 N 
ATOM      9  H   UNL     1       3.576   6.219  19.233  0.00  0.00    +0.000 HD
BRANCH   6  14
ATOM     10  C   UNL     1       3.733   3.565  18.639  0.00  0.00    +0.000 A 
ATOM     11  O   UNL     1       3.742   2.314  19.207  0.00  0.00    +0.000 OA
ATOM     12  C   UNL     1       2.453   2.115  19.601  0.00  0.00    +0.000 A 
ATOM     13  N   UNL     1       1.630   3.105  19.356  0.00  0.00    +0.000 NA
ATOM     14  C   UNL     1       2.445   4.058  18.753  0.00  0.00    +0.000 A 
BRANCH  10  20
ATOM     15  C   UNL     1       8.103   5.874  19.127  0.00  0.00    +0.000 C 
ATOM     16  C   UNL     1       7.132   5.150  18.246  0.00  0.00    +0.000 A 
ATOM     17  C   UNL     1       7.399   4.887  16.904  0.00  0.00    +0.000 A 
ATOM     18  C   UNL     1       6.470   4.195  16.124  0.00  0.00    +0.000 A 
ATOM     19  C   UNL     1       5.265   3.756  16.681  0.00  0.00    +0.000 A 
ATOM     20  C   UNL     1       4.978   4.008  18.026  0.00  0.00    +0.000 A 
ATOM     21  C   UNL     1       5.916   4.718  18.787  0.00  0.00    +0.000 A 
ENDBRANCH  10  20
ENDBRANCH   6  14
ENDBRANCH   1   8
BRANCH   4  22
ATOM     22  C   UNL     1       0.801  10.957  19.313  0.00  0.00    +0.000 C 
BRANCH  22  23
ATOM     23  C   UNL     1      -0.476  10.716  20.122  0.00  0.00    +0.000 C 
BRANCH  23  24
ATOM     24  C   UNL     1      -1.700  11.231  19.429  0.00  0.00    +0.000 A 
ATOM     25  C   UNL     1      -2.530  12.230  19.899  0.00  0.00    +0.000 A 
ATOM     26  N   UNL     1      -3.528  12.430  18.985  0.00  0.00    +0.000 N 
ATOM     27  C   UNL     1      -3.347  11.610  17.899  0.00  0.00    +0.000 A 
ATOM     28  C   UNL     1      -4.083  11.519  16.710  0.00  0.00    +0.000 A 
ATOM     29  C   UNL     1      -3.664  10.587  15.758  0.00  0.00    +0.000 A 
ATOM     30  C   UNL     1      -2.574   9.755  16.004  0.00  0.00    +0.000 A 
ATOM     31  C   UNL     1      -1.855   9.853  17.202  0.00  0.00    +0.000 A 
ATOM     32  C   UNL     1      -2.229  10.816  18.163  0.00  0.00    +0.000 A 
ATOM     33  H   UNL     1      -4.279  13.100  19.078  0.00  0.00    +0.000 HD
ENDBRANCH  23  24
ENDBRANCH  22  23
ENDBRANCH   4  22
TORSDOF 6
ENDMDL
MODEL 7
REMARK VINA RESULT:      -8.6      1.021      1.826
REMARK  Name = 
REMARK  7 active torsions:
REMARK  status: ('A' for Active; 'I' for Inactive)
REMARK    1  A    between atoms: C_1  and  C_2
REMARK    2  A    between atoms: C_6  and  C_7
REMARK    3  A    between atoms: C_11  and  C_12
REMARK    4  A    between atoms: N_14  and  C_15
REMARK    5  A    between atoms: N_18  and  C_19
REMARK    6  A    between atoms: C_19  and  C_20
REMARK    7  A    between atoms: C_20  and  C_21
REMARK                            x       y       z     vdW  Elec       q    Type
REMARK                         _______ _______ _______ _____ _____    ______ ____
ROOT
ATOM      1  C   UNL     1       2.232   7.588  19.406  0.00  0.00    +0.000 A 
ATOM      2  C   UNL     1       2.244   8.392  18.255  0.00  0.00    +0.000 A 
ATOM      3  N   UNL     1       1.460   9.466  18.375  0.00  0.00    +0.000 NA
ATOM      4  N   UNL     1       0.976   9.371  19.634  0.00  0.00    +0.000 N 
ATOM      5  C   UNL     1       1.372   8.228  20.265  0.00  0.00    +0.000 A 
ENDROOT
BRANCH   1   8
ATOM      6  C   UNL     1       2.491   5.210  19.163  0.00  0.00    +0.000 C 
ATOM      7  O   UNL     1       1.531   5.082  18.403  0.00  0.00    +0.000 OA
ATOM      8  N   UNL     1       2.935   6.424  19.642  0.00  0.00    +0.000 N 
ATOM      9  H   UNL     1       3.905   6.467  19.935  0.00  0.00    +0.000 HD
BRANCH   6  14
ATOM     10  C   UNL     1       4.556   3.735  19.142  0.00  0.00    +0.000 A 
ATOM     11  O   UNL     1       4.957   2.620  19.837  0.00  0.00    +0.000 OA
ATOM     12  C   UNL     1       3.904   2.340  20.656  0.00  0.00    +0.000 A 
ATOM     13  N   UNL     1       2.885   3.160  20.565  0.00  0.00    +0.000 NA
ATOM     14  C   UNL     1       3.299   4.079  19.605  0.00  0.00    +0.000 A 
BRANCH  10  20
ATOM     15  C   UNL     1       5.589   4.148  14.301  0.00  0.00    +0.000 C 
ATOM     16  C   UNL     1       5.988   4.415  15.720  0.00  0.00    +0.000 A 
ATOM     17  C   UNL     1       7.158   5.098  16.048  0.00  0.00    +0.000 A 
ATOM     18  C   UNL     1       7.482   5.337  17.385  0.00  0.00    +0.000 A 
ATOM     19  C   UNL     1       6.637   4.896  18.408  0.00  0.00    +0.000 A 
ATOM     20  C   UNL     1       5.459   4.209  18.101  0.00  0.00    +0.000 A 
ATOM     21  C   UNL     1       5.160   3.965  16.754  0.00  0.00    +0.000 A 
ENDBRANCH  10  20
ENDBRANCH   6  14
ENDBRANCH   1   8
BRANCH   4  22
ATOM     22  C   UNL     1       0.156  10.452  20.159  0.00  0.00    +0.000 C 
BRANCH  22  23
ATOM     23  C   UNL     1      -0.239  11.498  19.114  0.00  0.00    +0.000 C 
BRANCH  23  24
ATOM     24  C   UNL     1      -1.591  11.238  18.523  0.00  0.00    +0.000 A 
ATOM     25  C   UNL     1      -1.854  10.415  17.445  0.00  0.00    +0.000 A 
ATOM     26  N   UNL     1      -3.202  10.421  17.212  0.00  0.00    +0.000 N 
ATOM     27  C   UNL     1      -3.840  11.201  18.145  0.00  0.00    +0.000 A 
ATOM     28  C   UNL     1      -5.207  11.445  18.328  0.00  0.00    +0.000 A 
ATOM     29  C   UNL     1      -5.581  12.287  19.377  0.00  0.00    +0.000 A 
ATOM     30  C   UNL     1      -4.620  12.888  20.187  0.00  0.00    +0.000 A 
ATOM     31  C   UNL     1      -3.257  12.641  19.986  0.00  0.00    +0.000 A 
ATOM     32  C   UNL     1      -2.853  11.760  18.960  0.00  0.00    +0.000 A 
ATOM     33  H   UNL     1      -3.670   9.910  16.477  0.00  0.00    +0.000 HD
ENDBRANCH  23  24
ENDBRANCH  22  23
ENDBRANCH   4  22
TORSDOF 6
ENDMDL
MODEL 8
REMARK VINA RESULT:      -8.6      1.252      2.143
REMARK  Name = 
REMARK  7 active torsions:
REMARK  status: ('A' for Active; 'I' for Inactive)
REMARK    1  A    between atoms: C_1  and  C_2
REMARK    2  A    between atoms: C_6  and  C_7
REMARK    3  A    between atoms: C_11  and  C_12
REMARK    4  A    between atoms: N_14  and  C_15
REMARK    5  A    between atoms: N_18  and  C_19
REMARK    6  A    between atoms: C_19  and  C_20
REMARK    7  A    between atoms: C_20  and  C_21
REMARK                            x       y       z     vdW  Elec       q    Type
REMARK                         _______ _______ _______ _____ _____    ______ ____
ROOT
ATOM      1  C   UNL     1       2.180   7.430  19.927  0.00  0.00    +0.000 A 
ATOM      2  C   UNL     1       1.322   7.922  20.924  0.00  0.00    +0.000 A 
ATOM      3  N   UNL     1       0.721   9.058  20.563  0.00  0.00    +0.000 NA
ATOM      4  N   UNL     1       1.164   9.271  19.304  0.00  0.00    +0.000 N 
ATOM      5  C   UNL     1       2.085   8.346  18.907  0.00  0.00    +0.000 A 
ENDROOT
BRANCH   1   8
ATOM      6  C   UNL     1       2.377   5.046  19.693  0.00  0.00    +0.000 C 
ATOM      7  O   UNL     1       1.214   4.887  19.319  0.00  0.00    +0.000 OA
ATOM      8  N   UNL     1       2.940   6.278  19.945  0.00  0.00    +0.000 N 
ATOM      9  H   UNL     1       3.951   6.335  19.881  0.00  0.00    +0.000 HD
BRANCH   6  14
ATOM     10  C   UNL     1       4.488   3.736  19.177  0.00  0.00    +0.000 A 
ATOM     11  O   UNL     1       5.055   2.583  19.662  0.00  0.00    +0.000 OA
ATOM     12  C   UNL     1       4.165   2.138  20.593  0.00  0.00    +0.000 A 
ATOM     13  N   UNL     1       3.102   2.887  20.759  0.00  0.00    +0.000 NA
ATOM     14  C   UNL     1       3.305   3.935  19.866  0.00  0.00    +0.000 A 
BRANCH  10  20
ATOM     15  C   UNL     1       7.653   7.248  17.653  0.00  0.00    +0.000 C 
ATOM     16  C   UNL     1       6.736   6.116  17.304  0.00  0.00    +0.000 A 
ATOM     17  C   UNL     1       6.558   5.680  15.992  0.00  0.00    +0.000 A 
ATOM     18  C   UNL     1       5.703   4.611  15.717  0.00  0.00    +0.000 A 
ATOM     19  C   UNL     1       5.019   3.966  16.752  0.00  0.00    +0.000 A 
ATOM     20  C   UNL     1       5.184   4.386  18.074  0.00  0.00    +0.000 A 
ATOM     21  C   UNL     1       6.034   5.471  18.329  0.00  0.00    +0.000 A 
ENDBRANCH  10  20
ENDBRANCH   6  14
ENDBRANCH   1   8
BRANCH   4  22
ATOM     22  C   UNL     1       0.620  10.384  18.542  0.00  0.00    +0.000 C 
BRANCH  22  23
ATOM     23  C   UNL     1      -0.823  10.173  18.076  0.00  0.00    +0.000 C 
BRANCH  23  24
ATOM     24  C   UNL     1      -1.798  11.040  18.813  0.00  0.00    +0.000 A 
ATOM     25  C   UNL     1      -1.523  11.772  19.951  0.00  0.00    +0.000 A 
ATOM     26  N   UNL     1      -2.656  12.445  20.319  0.00  0.00    +0.000 N 
ATOM     27  C   UNL     1      -3.663  12.203  19.417  0.00  0.00    +0.000 A 
ATOM     28  C   UNL     1      -4.962  12.725  19.361  0.00  0.00    +0.000 A 
ATOM     29  C   UNL     1      -5.785  12.304  18.314  0.00  0.00    +0.000 A 
ATOM     30  C   UNL     1      -5.335  11.372  17.382  0.00  0.00    +0.000 A 
ATOM     31  C   UNL     1      -4.036  10.853  17.458  0.00  0.00    +0.000 A 
ATOM     32  C   UNL     1      -3.169  11.294  18.480  0.00  0.00    +0.000 A 
ATOM     33  H   UNL     1      -2.740  13.052  21.122  0.00  0.00    +0.000 HD
ENDBRANCH  23  24
ENDBRANCH  22  23
ENDBRANCH   4  22
TORSDOF 6
ENDMDL
MODEL 9
REMARK VINA RESULT:      -8.6      1.891      3.193
REMARK  Name = 
REMARK  7 active torsions:
REMARK  status: ('A' for Active; 'I' for Inactive)
REMARK    1  A    between atoms: C_1  and  C_2
REMARK    2  A    between atoms: C_6  and  C_7
REMARK    3  A    between atoms: C_11  and  C_12
REMARK    4  A    between atoms: N_14  and  C_15
REMARK    5  A    between atoms: N_18  and  C_19
REMARK    6  A    between atoms: C_19  and  C_20
REMARK    7  A    between atoms: C_20  and  C_21
REMARK                            x       y       z     vdW  Elec       q    Type
REMARK                         _______ _______ _______ _____ _____    ______ ____
ROOT
ATOM      1  C   UNL     1       2.138   7.352  19.941  0.00  0.00    +0.000 A 
ATOM      2  C   UNL     1       1.968   8.301  18.921  0.00  0.00    +0.000 A 
ATOM      3  N   UNL     1       1.158   9.299  19.284  0.00  0.00    +0.000 NA
ATOM      4  N   UNL     1       0.844   9.008  20.565  0.00  0.00    +0.000 N 
ATOM      5  C   UNL     1       1.368   7.818  20.979  0.00  0.00    +0.000 A 
ENDROOT
BRANCH   1   8
ATOM      6  C   UNL     1       2.350   4.960  19.838  0.00  0.00    +0.000 C 
ATOM      7  O   UNL     1       1.150   4.762  19.645  0.00  0.00    +0.000 OA
ATOM      8  N   UNL     1       2.917   6.212  19.926  0.00  0.00    +0.000 N 
ATOM      9  H   UNL     1       3.907   6.277  19.715  0.00  0.00    +0.000 HD
BRANCH   6  14
ATOM     10  C   UNL     1       4.470   3.719  19.201  0.00  0.00    +0.000 A 
ATOM     11  O   UNL     1       5.093   2.576  19.642  0.00  0.00    +0.000 OA
ATOM     12  C   UNL     1       4.262   2.094  20.608  0.00  0.00    +0.000 A 
ATOM     13  N   UNL     1       3.188   2.809  20.837  0.00  0.00    +0.000 NA
ATOM     14  C   UNL     1       3.317   3.874  19.950  0.00  0.00    +0.000 A 
BRANCH  10  20
ATOM     15  C   UNL     1       7.583   7.235  17.582  0.00  0.00    +0.000 C 
ATOM     16  C   UNL     1       6.617   6.137  17.259  0.00  0.00    +0.000 A 
ATOM     17  C   UNL     1       6.328   5.761  15.948  0.00  0.00    +0.000 A 
ATOM     18  C   UNL     1       5.432   4.721  15.696  0.00  0.00    +0.000 A 
ATOM     19  C   UNL     1       4.817   4.043  16.754  0.00  0.00    +0.000 A 
ATOM     20  C   UNL     1       5.093   4.403  18.076  0.00  0.00    +0.000 A 
ATOM     21  C   UNL     1       5.983   5.460  18.308  0.00  0.00    +0.000 A 
ENDBRANCH  10  20
ENDBRANCH   6  14
ENDBRANCH   1   8
BRANCH   4  22
ATOM     22  C   UNL     1       0.050   9.957  21.331  0.00  0.00    +0.000 C 
BRANCH  22  23
ATOM     23  C   UNL     1       0.105  11.390  20.795  0.00  0.00    +0.000 C 
BRANCH  23  24
ATOM     24  C   UNL     1      -1.257  11.986  20.610  0.00  0.00    +0.000 A 
ATOM     25  C   UNL     1      -1.825  12.334  19.401  0.00  0.00    +0.000 A 
ATOM     26  N   UNL     1      -3.078  12.831  19.636  0.00  0.00    +0.000 N 
ATOM     27  C   UNL     1      -3.364  12.776  20.978  0.00  0.00    +0.000 A 
ATOM     28  C   UNL     1      -4.539  13.117  21.660  0.00  0.00    +0.000 A 
ATOM     29  C   UNL     1      -4.555  12.952  23.047  0.00  0.00    +0.000 A 
ATOM     30  C   UNL     1      -3.426  12.499  23.725  0.00  0.00    +0.000 A 
ATOM     31  C   UNL     1      -2.256  12.171  23.029  0.00  0.00    +0.000 A 
ATOM     32  C   UNL     1      -2.226  12.287  21.623  0.00  0.00    +0.000 A 
ATOM     33  H   UNL     1      -3.715  13.168  18.928  0.00  0.00    +0.000 HD
ENDBRANCH  23  24
ENDBRANCH  22  23
ENDBRANCH   4  22
TORSDOF 6
ENDMDL
