MODEL 1
REMARK VINA RESULT:      -8.1      0.000      0.000
REMARK  Name = 
REMARK  4 active torsions:
REMARK  status: ('A' for Active; 'I' for Inactive)
REMARK    1  A    between atoms: C_1  and  C_2
REMARK    2  A    between atoms: C_4  and  C_5
REMARK    3  A    between atoms: C_15  and  N_16
REMARK    4  A    between atoms: N_16  and  C_17
REMARK                            x       y       z     vdW  Elec       q    Type
REMARK                         _______ _______ _______ _____ _____    ______ ____
ROOT
ATOM      1  C   UNL     1       1.530   2.293  20.617  0.00  0.00    +0.000 C 
ATOM      2  C   UNL     1       2.333   3.503  20.289  0.00  0.00    +0.000 A 
ATOM      3  N   UNL     1       1.918   4.746  20.432  0.00  0.00    +0.000 NA
ATOM      4  C   UNL     1       2.840   5.613  19.833  0.00  0.00    +0.000 A 
ATOM      5  C   UNL     1       4.041   5.022  19.443  0.00  0.00    +0.000 A 
ATOM      6  S   UNL     1       3.898   3.317  19.609  0.00  0.00    +0.000 S 
ENDROOT
BRANCH   4   7
ATOM      7  C   UNL     1       2.481   7.007  19.530  0.00  0.00    +0.000 C 
ATOM      8  O   UNL     1       2.771   7.502  18.446  0.00  0.00    +0.000 OA
ATOM      9  N   UNL     1       1.809   7.641  20.555  0.00  0.00    +0.000 N 
ATOM     10  C   UNL     1       1.257   8.922  20.429  0.00  0.00    +0.000 A 
ATOM     11  C   UNL     1       0.793   9.578  21.566  0.00  0.00    +0.000 A 
ATOM     12  C   UNL     1       0.219  10.843  21.430  0.00  0.00    +0.000 A 
ATOM     13  C   UNL     1       0.112  11.406  20.166  0.00  0.00    +0.000 A 
ATOM     14  F   UNL     1      -0.450  12.609  19.997  0.00  0.00    +0.000 F 
ATOM     15  C   UNL     1       0.595  10.698  19.089  0.00  0.00    +0.000 A 
ATOM     16  N   UNL     1       1.158   9.475  19.205  0.00  0.00    +0.000 NA
ATOM     17  H   UNL     1       1.716   7.138  21.427  0.00  0.00    +0.000 HD
ENDBRANCH   4   7
BRANCH   5  18
ATOM     18  N   UNL     1       5.162   5.565  18.897  0.00  0.00    +0.000 N 
ATOM     19  H   UNL     1       5.533   6.419  19.298  0.00  0.00    +0.000 HD
BRANCH  18  20
ATOM     20  C   UNL     1       5.765   5.212  17.674  0.00  0.00    +0.000 A 
ATOM     21  C   UNL     1       5.016   5.289  16.496  0.00  0.00    +0.000 A 
ATOM     22  C   UNL     1       5.599   4.986  15.266  0.00  0.00    +0.000 A 
ATOM     23  C   UNL     1       6.932   4.614  15.243  0.00  0.00    +0.000 A 
ATOM     24  N   UNL     1       7.705   4.539  16.345  0.00  0.00    +0.000 NA
ATOM     25  C   UNL     1       7.108   4.857  17.523  0.00  0.00    +0.000 A 
ENDBRANCH  18  20
ENDBRANCH   5  18
TORSDOF 3
ENDMDL
MODEL 2
REMARK VINA RESULT:      -8.0      1.035      1.104
REMARK  Name = 
REMARK  4 active torsions:
REMARK  status: ('A' for Active; 'I' for Inactive)
REMARK    1  A    between atoms: C_1  and  C_2
REMARK    2  A    between atoms: C_4  and  C_5
REMARK    3  A    between atoms: C_15  and  N_16
REMARK    4  A    between atoms: N_16  and  C_17
REMARK                            x       y       z     vdW  Elec       q    Type
REMARK                         _______ _______ _______ _____ _____    ______ ____
ROOT
ATOM      1  C   UNL     1       2.158   2.509  21.547  0.00  0.00    +0.000 C 
ATOM      2  C   UNL     1       2.517   3.651  20.662  0.00  0.00    +0.000 A 
ATOM      3  N   UNL     1       2.394   4.923  20.985  0.00  0.00    +0.000 NA
ATOM      4  C   UNL     1       2.619   5.712  19.849  0.00  0.00    +0.000 A 
ATOM      5  C   UNL     1       3.123   5.028  18.744  0.00  0.00    +0.000 A 
ATOM      6  S   UNL     1       3.074   3.340  19.068  0.00  0.00    +0.000 S 
ENDROOT
BRANCH   4   7
ATOM      7  C   UNL     1       2.214   7.126  19.818  0.00  0.00    +0.000 C 
ATOM      8  O   UNL     1       2.488   7.829  18.852  0.00  0.00    +0.000 OA
ATOM      9  N   UNL     1       1.520   7.528  20.941  0.00  0.00    +0.000 N 
ATOM     10  C   UNL     1       0.927   8.791  21.060  0.00  0.00    +0.000 A 
ATOM     11  C   UNL     1       0.441   9.200  22.299  0.00  0.00    +0.000 A 
ATOM     12  C   UNL     1      -0.175  10.449  22.405  0.00  0.00    +0.000 A 
ATOM     13  C   UNL     1      -0.300  11.241  21.271  0.00  0.00    +0.000 A 
ATOM     14  F   UNL     1      -0.901  12.435  21.334  0.00  0.00    +0.000 F 
ATOM     15  C   UNL     1       0.207  10.770  20.082  0.00  0.00    +0.000 A 
ATOM     16  N   UNL     1       0.810   9.566  19.964  0.00  0.00    +0.000 NA
ATOM     17  H   UNL     1       1.444   6.864  21.699  0.00  0.00    +0.000 HD
ENDBRANCH   4   7
BRANCH   5  18
ATOM     18  N   UNL     1       3.508   5.478  17.520  0.00  0.00    +0.000 N 
ATOM     19  H   UNL     1       2.804   5.867  16.902  0.00  0.00    +0.000 HD
BRANCH  18  20
ATOM     20  C   UNL     1       4.751   5.267  16.892  0.00  0.00    +0.000 A 
ATOM     21  C   UNL     1       4.896   4.191  16.012  0.00  0.00    +0.000 A 
ATOM     22  C   UNL     1       6.102   3.982  15.343  0.00  0.00    +0.000 A 
ATOM     23  C   UNL     1       7.142   4.867  15.569  0.00  0.00    +0.000 A 
ATOM     24  N   UNL     1       7.052   5.930  16.394  0.00  0.00    +0.000 NA
ATOM     25  C   UNL     1       5.858   6.111  17.015  0.00  0.00    +0.000 A 
ENDBRANCH  18  20
ENDBRANCH   5  18
TORSDOF 3
ENDMDL
MODEL 3
REMARK VINA RESULT:      -8.0      1.359      1.690
REMARK  Name = 
REMARK  4 active torsions:
REMARK  status: ('A' for Active; 'I' for Inactive)
REMARK    1  A    between atoms: C_1  and  C_2
REMARK    2  A    between atoms: C_4  and  C_5
REMARK    3  A    between atoms: C_15  and  N_16
REMARK    4  A    between atoms: N_16  and  C_17
REMARK                            x       y       z     vdW  Elec       q    Type
REMARK                         _______ _______ _______ _____ _____    ______ ____
ROOT
ATOM      1  C   UNL     1       1.367   2.517  21.430  0.00  0.00    +0.000 C 
ATOM      2  C   UNL     1       2.043   3.620  20.693  0.00  0.00    +0.000 A 
ATOM      3  N   UNL     1       1.909   4.903  20.966  0.00  0.00    +0.000 NA
ATOM      4  C   UNL     1       2.512   5.657  19.950  0.00  0.00    +0.000 A 
ATOM      5  C   UNL     1       3.279   4.924  19.046  0.00  0.00    +0.000 A 
ATOM      6  S   UNL     1       3.030   3.249  19.339  0.00  0.00    +0.000 S 
ENDROOT
BRANCH   4   7
ATOM      7  C   UNL     1       2.223   7.092  19.800  0.00  0.00    +0.000 C 
ATOM      8  O   UNL     1       2.624   7.707  18.819  0.00  0.00    +0.000 OA
ATOM      9  N   UNL     1       1.480   7.618  20.837  0.00  0.00    +0.000 N 
ATOM     10  C   UNL     1       0.980   8.926  20.831  0.00  0.00    +0.000 A 
ATOM     11  C   UNL     1       0.436   9.452  22.000  0.00  0.00    +0.000 A 
ATOM     12  C   UNL     1      -0.086  10.747  21.979  0.00  0.00    +0.000 A 
ATOM     13  C   UNL     1      -0.061  11.469  20.794  0.00  0.00    +0.000 A 
ATOM     14  F   UNL     1      -0.569  12.706  20.735  0.00  0.00    +0.000 F 
ATOM     15  C   UNL     1       0.495  10.883  19.680  0.00  0.00    +0.000 A 
ATOM     16  N   UNL     1       1.009   9.633  19.685  0.00  0.00    +0.000 NA
ATOM     17  H   UNL     1       1.294   7.014  21.625  0.00  0.00    +0.000 HD
ENDBRANCH   4   7
BRANCH   5  18
ATOM     18  N   UNL     1       4.039   5.330  17.993  0.00  0.00    +0.000 N 
ATOM     19  H   UNL     1       3.755   5.059  17.058  0.00  0.00    +0.000 HD
BRANCH  18  20
ATOM     20  C   UNL     1       5.325   5.902  18.046  0.00  0.00    +0.000 A 
ATOM     21  C   UNL     1       6.258   5.400  18.959  0.00  0.00    +0.000 A 
ATOM     22  C   UNL     1       7.551   5.919  19.005  0.00  0.00    +0.000 A 
ATOM     23  C   UNL     1       7.885   6.934  18.125  0.00  0.00    +0.000 A 
ATOM     24  N   UNL     1       7.032   7.444  17.215  0.00  0.00    +0.000 NA
ATOM     25  C   UNL     1       5.786   6.903  17.188  0.00  0.00    +0.000 A 
ENDBRANCH  18  20
ENDBRANCH   5  18
TORSDOF 3
ENDMDL
MODEL 4
REMARK VINA RESULT:      -7.8      1.397      1.591
REMARK  Name = 
REMARK  4 active torsions:
REMARK  status: ('A' for Active; 'I' for Inactive)
REMARK    1  A    between atoms: C_1  and  C_2
REMARK    2  A    between atoms: C_4  and  C_5
REMARK    3  A    between atoms: C_15  and  N_16
REMARK    4  A    between atoms: N_16  and  C_17
REMARK                            x       y       z     vdW  Elec       q    Type
REMARK                         _______ _______ _______ _____ _____    ______ ____
ROOT
ATOM      1  C   UNL     1       1.648   2.313  21.286  0.00  0.00    +0.000 C 
ATOM      2  C   UNL     1       2.281   3.482  20.614  0.00  0.00    +0.000 A 
ATOM      3  N   UNL     1       2.045   4.743  20.915  0.00  0.00    +0.000 NA
ATOM      4  C   UNL     1       2.642   5.567  19.951  0.00  0.00    +0.000 A 
ATOM      5  C   UNL     1       3.500   4.916  19.067  0.00  0.00    +0.000 A 
ATOM      6  S   UNL     1       3.354   3.219  19.301  0.00  0.00    +0.000 S 
ENDROOT
BRANCH   4   7
ATOM      7  C   UNL     1       2.263   6.983  19.827  0.00  0.00    +0.000 C 
ATOM      8  O   UNL     1       2.535   7.612  18.811  0.00  0.00    +0.000 OA
ATOM      9  N   UNL     1       1.592   7.475  20.928  0.00  0.00    +0.000 N 
ATOM     10  C   UNL     1       1.024   8.754  20.967  0.00  0.00    +0.000 A 
ATOM     11  C   UNL     1       0.563   9.258  22.181  0.00  0.00    +0.000 A 
ATOM     12  C   UNL     1      -0.028  10.522  22.208  0.00  0.00    +0.000 A 
ATOM     13  C   UNL     1      -0.155  11.237  21.024  0.00  0.00    +0.000 A 
ATOM     14  F   UNL     1      -0.733  12.443  21.011  0.00  0.00    +0.000 F 
ATOM     15  C   UNL     1       0.326  10.674  19.864  0.00  0.00    +0.000 A 
ATOM     16  N   UNL     1       0.906   9.454  19.822  0.00  0.00    +0.000 NA
ATOM     17  H   UNL     1       1.514   6.867  21.732  0.00  0.00    +0.000 HD
ENDBRANCH   4   7
BRANCH   5  18
ATOM     18  N   UNL     1       4.279   5.404  18.064  0.00  0.00    +0.000 N 
ATOM     19  H   UNL     1       3.979   5.266  17.105  0.00  0.00    +0.000 HD
BRANCH  18  20
ATOM     20  C   UNL     1       5.595   5.893  18.175  0.00  0.00    +0.000 A 
ATOM     21  C   UNL     1       6.023   6.903  17.308  0.00  0.00    +0.000 A 
ATOM     22  C   UNL     1       7.307   7.435  17.421  0.00  0.00    +0.000 A 
ATOM     23  C   UNL     1       8.138   6.944  18.413  0.00  0.00    +0.000 A 
ATOM     24  N   UNL     1       7.772   5.984  19.286  0.00  0.00    +0.000 NA
ATOM     25  C   UNL     1       6.510   5.501  19.156  0.00  0.00    +0.000 A 
ENDBRANCH  18  20
ENDBRANCH   5  18
TORSDOF 3
ENDMDL
MODEL 5
REMARK VINA RESULT:      -7.8      1.075      1.302
REMARK  Name = 
REMARK  4 active torsions:
REMARK  status: ('A' for Active; 'I' for Inactive)
REMARK    1  A    between atoms: C_1  and  C_2
REMARK    2  A    between atoms: C_4  and  C_5
REMARK    3  A    between atoms: C_15  and  N_16
REMARK    4  A    between atoms: N_16  and  C_17
REMARK                            x       y       z     vdW  Elec       q    Type
REMARK                         _______ _______ _______ _____ _____    ______ ____
ROOT
ATOM      1  C   UNL     1       1.799   2.451  21.696  0.00  0.00    +0.000 C 
ATOM      2  C   UNL     1       2.220   3.559  20.796  0.00  0.00    +0.000 A 
ATOM      3  N   UNL     1       2.187   4.840  21.109  0.00  0.00    +0.000 NA
ATOM      4  C   UNL     1       2.448   5.603  19.963  0.00  0.00    +0.000 A 
ATOM      5  C   UNL     1       2.891   4.877  18.858  0.00  0.00    +0.000 A 
ATOM      6  S   UNL     1       2.733   3.199  19.198  0.00  0.00    +0.000 S 
ENDROOT
BRANCH   4   7
ATOM      7  C   UNL     1       2.138   7.040  19.924  0.00  0.00    +0.000 C 
ATOM      8  O   UNL     1       2.503   7.728  18.977  0.00  0.00    +0.000 OA
ATOM      9  N   UNL     1       1.419   7.481  21.016  0.00  0.00    +0.000 N 
ATOM     10  C   UNL     1       0.903   8.779  21.117  0.00  0.00    +0.000 A 
ATOM     11  C   UNL     1       0.387   9.213  22.335  0.00  0.00    +0.000 A 
ATOM     12  C   UNL     1      -0.151  10.499  22.421  0.00  0.00    +0.000 A 
ATOM     13  C   UNL     1      -0.170  11.303  21.290  0.00  0.00    +0.000 A 
ATOM     14  F   UNL     1      -0.695  12.533  21.333  0.00  0.00    +0.000 F 
ATOM     15  C   UNL     1       0.361  10.805  20.122  0.00  0.00    +0.000 A 
ATOM     16  N   UNL     1       0.890   9.566  20.023  0.00  0.00    +0.000 NA
ATOM     17  H   UNL     1       1.263   6.820  21.764  0.00  0.00    +0.000 HD
ENDBRANCH   4   7
BRANCH   5  18
ATOM     18  N   UNL     1       3.288   5.290  17.625  0.00  0.00    +0.000 N 
ATOM     19  H   UNL     1       2.580   5.584  16.960  0.00  0.00    +0.000 HD
BRANCH  18  20
ATOM     20  C   UNL     1       4.568   5.150  17.055  0.00  0.00    +0.000 A 
ATOM     21  C   UNL     1       5.575   6.054  17.407  0.00  0.00    +0.000 A 
ATOM     22  C   UNL     1       6.863   5.914  16.890  0.00  0.00    +0.000 A 
ATOM     23  C   UNL     1       7.116   4.860  16.029  0.00  0.00    +0.000 A 
ATOM     24  N   UNL     1       6.188   3.951  15.669  0.00  0.00    +0.000 NA
ATOM     25  C   UNL     1       4.950   4.109  16.204  0.00  0.00    +0.000 A 
ENDBRANCH  18  20
ENDBRANCH   5  18
TORSDOF 3
ENDMDL
MODEL 6
REMARK VINA RESULT:      -7.6      1.612      1.894
REMARK  Name = 
REMARK  4 active torsions:
REMARK  status: ('A' for Active; 'I' for Inactive)
REMARK    1  A    between atoms: C_1  and  C_2
REMARK    2  A    between atoms: C_4  and  C_5
REMARK    3  A    between atoms: C_15  and  N_16
REMARK    4  A    between atoms: N_16  and  C_17
REMARK                            x       y       z     vdW  Elec       q    Type
REMARK                         _______ _______ _______ _____ _____    ______ ____
ROOT
ATOM      1  C   UNL     1       0.787   2.248  18.854  0.00  0.00    +0.000 C 
ATOM      2  C   UNL     1       1.701   3.411  18.683  0.00  0.00    +0.000 A 
ATOM      3  N   UNL     1       1.595   4.555  19.329  0.00  0.00    +0.000 NA
ATOM      4  C   UNL     1       2.482   5.486  18.770  0.00  0.00    +0.000 A 
ATOM      5  C   UNL     1       3.394   4.958  17.857  0.00  0.00    +0.000 A 
ATOM      6  S   UNL     1       2.962   3.329  17.521  0.00  0.00    +0.000 S 
ENDROOT
BRANCH   4   7
ATOM      7  C   UNL     1       2.342   6.924  19.045  0.00  0.00    +0.000 C 
ATOM      8  O   UNL     1       2.786   7.752  18.259  0.00  0.00    +0.000 OA
ATOM      9  N   UNL     1       1.677   7.200  20.223  0.00  0.00    +0.000 N 
ATOM     10  C   UNL     1       1.317   8.496  20.610  0.00  0.00    +0.000 A 
ATOM     11  C   UNL     1       0.852   8.715  21.904  0.00  0.00    +0.000 A 
ATOM     12  C   UNL     1       0.468  10.006  22.276  0.00  0.00    +0.000 A 
ATOM     13  C   UNL     1       0.546  11.031  21.343  0.00  0.00    +0.000 A 
ATOM     14  F   UNL     1       0.169  12.275  21.659  0.00  0.00    +0.000 F 
ATOM     15  C   UNL     1       1.017  10.737  20.083  0.00  0.00    +0.000 A 
ATOM     16  N   UNL     1       1.398   9.495  19.710  0.00  0.00    +0.000 NA
ATOM     17  H   UNL     1       1.444   6.416  20.816  0.00  0.00    +0.000 HD
ENDBRANCH   4   7
BRANCH   5  18
ATOM     18  N   UNL     1       4.416   5.548  17.182  0.00  0.00    +0.000 N 
ATOM     19  H   UNL     1       4.367   5.594  16.170  0.00  0.00    +0.000 HD
BRANCH  18  20
ATOM     20  C   UNL     1       5.674   5.916  17.700  0.00  0.00    +0.000 A 
ATOM     21  C   UNL     1       6.309   7.057  17.203  0.00  0.00    +0.000 A 
ATOM     22  C   UNL     1       7.535   7.468  17.725  0.00  0.00    +0.000 A 
ATOM     23  C   UNL     1       8.099   6.722  18.746  0.00  0.00    +0.000 A 
ATOM     24  N   UNL     1       7.523   5.624  19.274  0.00  0.00    +0.000 NA
ATOM     25  C   UNL     1       6.322   5.263  18.751  0.00  0.00    +0.000 A 
ENDBRANCH  18  20
ENDBRANCH   5  18
TORSDOF 3
ENDMDL
MODEL 7
REMARK VINA RESULT:      -7.5      1.089      1.421
REMARK  Name = 
REMARK  4 active torsions:
REMARK  status: ('A' for Active; 'I' for Inactive)
REMARK    1  A    between atoms: C_1  and  C_2
REMARK    2  A    between atoms: C_4  and  C_5
REMARK    3  A    between atoms: C_15  and  N_16
REMARK    4  A    between atoms: N_16  and  C_17
REMARK                            x       y       z     vdW  Elec       q    Type
REMARK                         _______ _______ _______ _____ _____    ______ ____
ROOT
ATOM      1  C   UNL     1       1.633   2.493  20.493  0.00  0.00    +0.000 C 
ATOM      2  C   UNL     1       2.253   3.810  20.182  0.00  0.00    +0.000 A 
ATOM      3  N   UNL     1       1.827   4.971  20.638  0.00  0.00    +0.000 NA
ATOM      4  C   UNL     1       2.507   6.004  19.979  0.00  0.00    +0.000 A 
ATOM      5  C   UNL     1       3.587   5.597  19.199  0.00  0.00    +0.000 A 
ATOM      6  S   UNL     1       3.585   3.881  19.101  0.00  0.00    +0.000 S 
ENDROOT
BRANCH   4   7
ATOM      7  C   UNL     1       2.007   7.387  20.023  0.00  0.00    +0.000 C 
ATOM      8  O   UNL     1       2.197   8.146  19.079  0.00  0.00    +0.000 OA
ATOM      9  N   UNL     1       1.328   7.694  21.184  0.00  0.00    +0.000 N 
ATOM     10  C   UNL     1       0.655   8.907  21.378  0.00  0.00    +0.000 A 
ATOM     11  C   UNL     1       0.188   9.231  22.648  0.00  0.00    +0.000 A 
ATOM     12  C   UNL     1      -0.507  10.428  22.829  0.00  0.00    +0.000 A 
ATOM     13  C   UNL     1      -0.726  11.256  21.736  0.00  0.00    +0.000 A 
ATOM     14  F   UNL     1      -1.403  12.402  21.869  0.00  0.00    +0.000 F 
ATOM     15  C   UNL     1      -0.232  10.869  20.511  0.00  0.00    +0.000 A 
ATOM     16  N   UNL     1       0.447   9.716  20.321  0.00  0.00    +0.000 NA
ATOM     17  H   UNL     1       1.324   6.996  21.915  0.00  0.00    +0.000 HD
ENDBRANCH   4   7
BRANCH   5  18
ATOM     18  N   UNL     1       4.489   6.321  18.484  0.00  0.00    +0.000 N 
ATOM     19  H   UNL     1       4.456   7.334  18.544  0.00  0.00    +0.000 HD
BRANCH  18  20
ATOM     20  C   UNL     1       5.343   5.848  17.468  0.00  0.00    +0.000 A 
ATOM     21  C   UNL     1       6.474   5.106  17.819  0.00  0.00    +0.000 A 
ATOM     22  C   UNL     1       7.315   4.589  16.833  0.00  0.00    +0.000 A 
ATOM     23  C   UNL     1       6.997   4.826  15.507  0.00  0.00    +0.000 A 
ATOM     24  N   UNL     1       5.911   5.521  15.112  0.00  0.00    +0.000 NA
ATOM     25  C   UNL     1       5.107   5.994  16.099  0.00  0.00    +0.000 A 
ENDBRANCH  18  20
ENDBRANCH   5  18
TORSDOF 3
ENDMDL
MODEL 8
REMARK VINA RESULT:      -7.3      4.445      6.718
REMARK  Name = 
REMARK  4 active torsions:
REMARK  status: ('A' for Active; 'I' for Inactive)
REMARK    1  A    between atoms: C_1  and  C_2
REMARK    2  A    between atoms: C_4  and  C_5
REMARK    3  A    between atoms: C_15  and  N_16
REMARK    4  A    between atoms: N_16  and  C_17
REMARK                            x       y       z     vdW  Elec       q    Type
REMARK                         _______ _______ _______ _____ _____    ______ ____
ROOT
ATOM      1  C   UNL     1       7.108   4.524  13.589  0.00  0.00    +0.000 C 
ATOM      2  C   UNL     1       6.816   4.923  14.994  0.00  0.00    +0.000 A 
ATOM      3  N   UNL     1       7.161   6.074  15.538  0.00  0.00    +0.000 NA
ATOM      4  C   UNL     1       6.919   6.023  16.917  0.00  0.00    +0.000 A 
ATOM      5  C   UNL     1       6.191   4.916  17.350  0.00  0.00    +0.000 A 
ATOM      6  S   UNL     1       6.033   3.812  16.041  0.00  0.00    +0.000 S 
ENDROOT
BRANCH   4   7
ATOM      7  C   UNL     1       7.518   7.011  17.827  0.00  0.00    +0.000 C 
ATOM      8  O   UNL     1       7.935   6.669  18.928  0.00  0.00    +0.000 OA
ATOM      9  N   UNL     1       7.559   8.289  17.307  0.00  0.00    +0.000 N 
ATOM     10  C   UNL     1       8.207   9.353  17.947  0.00  0.00    +0.000 A 
ATOM     11  C   UNL     1       8.015  10.649  17.476  0.00  0.00    +0.000 A 
ATOM     12  C   UNL     1       8.687  11.702  18.100  0.00  0.00    +0.000 A 
ATOM     13  C   UNL     1       9.537  11.428  19.163  0.00  0.00    +0.000 A 
ATOM     14  F   UNL     1      10.210  12.411  19.772  0.00  0.00    +0.000 F 
ATOM     15  C   UNL     1       9.674  10.122  19.574  0.00  0.00    +0.000 A 
ATOM     16  N   UNL     1       9.028   9.093  18.983  0.00  0.00    +0.000 NA
ATOM     17  H   UNL     1       7.099   8.442  16.421  0.00  0.00    +0.000 HD
ENDBRANCH   4   7
BRANCH   5  18
ATOM     18  N   UNL     1       5.733   4.582  18.585  0.00  0.00    +0.000 N 
ATOM     19  H   UNL     1       6.407   4.418  19.326  0.00  0.00    +0.000 HD
BRANCH  18  20
ATOM     20  C   UNL     1       4.420   4.205  18.929  0.00  0.00    +0.000 A 
ATOM     21  C   UNL     1       3.348   4.989  18.492  0.00  0.00    +0.000 A 
ATOM     22  C   UNL     1       2.036   4.617  18.782  0.00  0.00    +0.000 A 
ATOM     23  C   UNL     1       1.825   3.456  19.505  0.00  0.00    +0.000 A 
ATOM     24  N   UNL     1       2.819   2.654  19.938  0.00  0.00    +0.000 NA
ATOM     25  C   UNL     1       4.083   3.039  19.622  0.00  0.00    +0.000 A 
ENDBRANCH  18  20
ENDBRANCH   5  18
TORSDOF 3
ENDMDL
MODEL 9
REMARK VINA RESULT:      -7.3      1.902      4.340
REMARK  Name = 
REMARK  4 active torsions:
REMARK  status: ('A' for Active; 'I' for Inactive)
REMARK    1  A    between atoms: C_1  and  C_2
REMARK    2  A    between atoms: C_4  and  C_5
REMARK    3  A    between atoms: C_15  and  N_16
REMARK    4  A    between atoms: N_16  and  C_17
REMARK                            x       y       z     vdW  Elec       q    Type
REMARK                         _______ _______ _______ _____ _____    ______ ____
ROOT
ATOM      1  C   UNL     1       7.432   6.733  17.007  0.00  0.00    +0.000 C 
ATOM      2  C   UNL     1       6.021   6.345  17.284  0.00  0.00    +0.000 A 
ATOM      3  N   UNL     1       5.065   7.179  17.639  0.00  0.00    +0.000 NA
ATOM      4  C   UNL     1       3.931   6.449  18.021  0.00  0.00    +0.000 A 
ATOM      5  C   UNL     1       3.984   5.085  17.736  0.00  0.00    +0.000 A 
ATOM      6  S   UNL     1       5.573   4.689  17.213  0.00  0.00    +0.000 S 
ENDROOT
BRANCH   4   7
ATOM      7  C   UNL     1       2.845   7.081  18.785  0.00  0.00    +0.000 C 
ATOM      8  O   UNL     1       2.524   6.646  19.884  0.00  0.00    +0.000 OA
ATOM      9  N   UNL     1       2.280   8.167  18.147  0.00  0.00    +0.000 N 
ATOM     10  C   UNL     1       1.326   8.995  18.751  0.00  0.00    +0.000 A 
ATOM     11  C   UNL     1       0.643   9.927  17.973  0.00  0.00    +0.000 A 
ATOM     12  C   UNL     1      -0.287  10.769  18.587  0.00  0.00    +0.000 A 
ATOM     13  C   UNL     1      -0.495  10.664  19.955  0.00  0.00    +0.000 A 
ATOM     14  F   UNL     1      -1.366  11.468  20.578  0.00  0.00    +0.000 F 
ATOM     15  C   UNL     1       0.215   9.717  20.657  0.00  0.00    +0.000 A 
ATOM     16  N   UNL     1       1.114   8.892  20.077  0.00  0.00    +0.000 NA
ATOM     17  H   UNL     1       2.586   8.359  17.203  0.00  0.00    +0.000 HD
ENDBRANCH   4   7
BRANCH   5  18
ATOM     18  N   UNL     1       3.057   4.105  17.909  0.00  0.00    +0.000 N 
ATOM     19  H   UNL     1       2.508   3.809  17.109  0.00  0.00    +0.000 HD
BRANCH  18  20
ATOM     20  C   UNL     1       2.588   3.589  19.133  0.00  0.00    +0.000 A 
ATOM     21  C   UNL     1       1.211   3.543  19.371  0.00  0.00    +0.000 A 
ATOM     22  C   UNL     1       0.716   2.999  20.556  0.00  0.00    +0.000 A 
ATOM     23  C   UNL     1       1.620   2.505  21.481  0.00  0.00    +0.000 A 
ATOM     24  N   UNL     1       2.955   2.509  21.297  0.00  0.00    +0.000 NA
ATOM     25  C   UNL     1       3.400   3.031  20.124  0.00  0.00    +0.000 A 
ENDBRANCH  18  20
ENDBRANCH   5  18
TORSDOF 3
ENDMDL
