MODEL 1
REMARK VINA RESULT:      -8.0      0.000      0.000
REMARK  Name = 
REMARK  4 active torsions:
REMARK  status: ('A' for Active; 'I' for Inactive)
REMARK    1  A    between atoms: C_1  and  C_2
REMARK    2  A    between atoms: C_5  and  C_6
REMARK    3  A    between atoms: C_14  and  N_15
REMARK    4  A    between atoms: N_15  and  C_16
REMARK                            x       y       z     vdW  Elec       q    Type
REMARK                         _______ _______ _______ _____ _____    ______ ____
ROOT
ATOM      1  C   UNL     1       3.781   6.727  17.691  0.00  0.00    +0.000 A 
ATOM      2  N   UNL     1       4.986   7.196  17.217  0.00  0.00    +0.000 NA
ATOM      3  C   UNL     1       5.551   6.129  16.702  0.00  0.00    +0.000 A 
ATOM      4  C   UNL     1       6.856   6.025  16.107  0.00  0.00    +0.000 A 
ATOM      5  N   UNL     1       7.301   4.903  15.609  0.00  0.00    +0.000 NA
ATOM      6  C   UNL     1       6.470   3.797  15.691  0.00  0.00    +0.000 A 
ATOM      7  C   UNL     1       5.253   3.807  16.264  0.00  0.00    +0.000 A 
ATOM      8  N   UNL     1       4.769   5.001  16.777  0.00  0.00    +0.000 N 
ATOM      9  C   UNL     1       3.600   5.375  17.424  0.00  0.00    +0.000 A 
ENDROOT
BRANCH   1  14
ATOM     10  C   UNL     1       0.852   8.397  21.292  0.00  0.00    +0.000 C 
ATOM     11  C   UNL     1       1.468   8.408  19.950  0.00  0.00    +0.000 A 
ATOM     12  C   UNL     1       1.380   9.268  18.878  0.00  0.00    +0.000 A 
ATOM     13  C   UNL     1       2.249   8.753  17.888  0.00  0.00    +0.000 A 
ATOM     14  C   UNL     1       2.804   7.598  18.402  0.00  0.00    +0.000 A 
ATOM     15  O   UNL     1       2.316   7.381  19.663  0.00  0.00    +0.000 OA
ENDBRANCH   1  14
BRANCH   9  16
ATOM     16  N   UNL     1       2.594   4.524  17.781  0.00  0.00    +0.000 N 
ATOM     17  H   UNL     1       2.289   3.877  17.047  0.00  0.00    +0.000 HD
BRANCH  16  18
ATOM     18  C   UNL     1       2.396   3.911  19.041  0.00  0.00    +0.000 A 
ATOM     19  C   UNL     1       3.471   3.214  19.613  0.00  0.00    +0.000 A 
ATOM     20  C   UNL     1       3.333   2.560  20.838  0.00  0.00    +0.000 A 
ATOM     21  C   UNL     1       2.116   2.598  21.512  0.00  0.00    +0.000 A 
ATOM     22  C   UNL     1       1.043   3.300  20.967  0.00  0.00    +0.000 A 
ATOM     23  C   UNL     1       1.185   3.958  19.741  0.00  0.00    +0.000 A 
ENDBRANCH  16  18
ENDBRANCH   9  16
TORSDOF 3
ENDMDL
MODEL 2
REMARK VINA RESULT:      -8.0      0.056      1.027
REMARK  Name = 
REMARK  4 active torsions:
REMARK  status: ('A' for Active; 'I' for Inactive)
REMARK    1  A    between atoms: C_1  and  C_2
REMARK    2  A    between atoms: C_5  and  C_6
REMARK    3  A    between atoms: C_14  and  N_15
REMARK    4  A    between atoms: N_15  and  C_16
REMARK                            x       y       z     vdW  Elec       q    Type
REMARK                         _______ _______ _______ _____ _____    ______ ____
ROOT
ATOM      1  C   UNL     1       3.799   6.724  17.689  0.00  0.00    +0.000 A 
ATOM      2  N   UNL     1       5.002   7.200  17.214  0.00  0.00    +0.000 NA
ATOM      3  C   UNL     1       5.574   6.136  16.700  0.00  0.00    +0.000 A 
ATOM      4  C   UNL     1       6.879   6.040  16.105  0.00  0.00    +0.000 A 
ATOM      5  N   UNL     1       7.332   4.921  15.608  0.00  0.00    +0.000 NA
ATOM      6  C   UNL     1       6.508   3.810  15.692  0.00  0.00    +0.000 A 
ATOM      7  C   UNL     1       5.291   3.812  16.265  0.00  0.00    +0.000 A 
ATOM      8  N   UNL     1       4.799   5.004  16.777  0.00  0.00    +0.000 N 
ATOM      9  C   UNL     1       3.628   5.370  17.423  0.00  0.00    +0.000 A 
ENDROOT
BRANCH   1  14
ATOM     10  C   UNL     1       0.861   8.379  21.288  0.00  0.00    +0.000 C 
ATOM     11  C   UNL     1       1.476   8.392  19.946  0.00  0.00    +0.000 A 
ATOM     12  C   UNL     1       1.381   9.249  18.872  0.00  0.00    +0.000 A 
ATOM     13  C   UNL     1       2.253   8.739  17.883  0.00  0.00    +0.000 A 
ATOM     14  C   UNL     1       2.817   7.589  18.399  0.00  0.00    +0.000 A 
ATOM     15  O   UNL     1       2.331   7.370  19.660  0.00  0.00    +0.000 OA
ENDBRANCH   1  14
BRANCH   9  16
ATOM     16  N   UNL     1       2.627   4.513  17.781  0.00  0.00    +0.000 N 
ATOM     17  H   UNL     1       2.295   3.894  17.034  0.00  0.00    +0.000 HD
BRANCH  16  18
ATOM     18  C   UNL     1       2.464   3.856  19.024  0.00  0.00    +0.000 A 
ATOM     19  C   UNL     1       1.207   3.922  19.645  0.00  0.00    +0.000 A 
ATOM     20  C   UNL     1       0.987   3.324  20.886  0.00  0.00    +0.000 A 
ATOM     21  C   UNL     1       2.022   2.646  21.524  0.00  0.00    +0.000 A 
ATOM     22  C   UNL     1       3.272   2.557  20.914  0.00  0.00    +0.000 A 
ATOM     23  C   UNL     1       3.488   3.153  19.667  0.00  0.00    +0.000 A 
ENDBRANCH  16  18
ENDBRANCH   9  16
TORSDOF 3
ENDMDL
MODEL 3
REMARK VINA RESULT:      -8.0      3.271      5.494
REMARK  Name = 
REMARK  4 active torsions:
REMARK  status: ('A' for Active; 'I' for Inactive)
REMARK    1  A    between atoms: C_1  and  C_2
REMARK    2  A    between atoms: C_5  and  C_6
REMARK    3  A    between atoms: C_14  and  N_15
REMARK    4  A    between atoms: N_15  and  C_16
REMARK                            x       y       z     vdW  Elec       q    Type
REMARK                         _______ _______ _______ _____ _____    ______ ____
ROOT
ATOM      1  C   UNL     1       6.377   4.525  15.228  0.00  0.00    +0.000 A 
ATOM      2  N   UNL     1       7.236   5.561  15.521  0.00  0.00    +0.000 NA
ATOM      3  C   UNL     1       7.161   5.664  16.828  0.00  0.00    +0.000 A 
ATOM      4  C   UNL     1       7.818   6.623  17.673  0.00  0.00    +0.000 A 
ATOM      5  N   UNL     1       7.677   6.611  18.972  0.00  0.00    +0.000 NA
ATOM      6  C   UNL     1       6.848   5.641  19.511  0.00  0.00    +0.000 A 
ATOM      7  C   UNL     1       6.172   4.734  18.784  0.00  0.00    +0.000 A 
ATOM      8  N   UNL     1       6.334   4.731  17.406  0.00  0.00    +0.000 N 
ATOM      9  C   UNL     1       5.809   3.973  16.371  0.00  0.00    +0.000 A 
ENDROOT
BRANCH   1  14
ATOM     10  C   UNL     1       3.844   3.125  11.233  0.00  0.00    +0.000 C 
ATOM     11  C   UNL     1       5.061   3.431  12.010  0.00  0.00    +0.000 A 
ATOM     12  C   UNL     1       6.403   3.441  11.699  0.00  0.00    +0.000 A 
ATOM     13  C   UNL     1       7.075   3.865  12.869  0.00  0.00    +0.000 A 
ATOM     14  C   UNL     1       6.111   4.072  13.834  0.00  0.00    +0.000 A 
ATOM     15  O   UNL     1       4.876   3.795  13.311  0.00  0.00    +0.000 OA
ENDBRANCH   1  14
BRANCH   9  16
ATOM     16  N   UNL     1       4.867   2.995  16.513  0.00  0.00    +0.000 N 
ATOM     17  H   UNL     1       5.235   2.040  16.566  0.00  0.00    +0.000 HD
BRANCH  16  18
ATOM     18  C   UNL     1       3.665   3.063  17.257  0.00  0.00    +0.000 A 
ATOM     19  C   UNL     1       3.334   1.974  18.076  0.00  0.00    +0.000 A 
ATOM     20  C   UNL     1       2.147   1.963  18.812  0.00  0.00    +0.000 A 
ATOM     21  C   UNL     1       1.276   3.046  18.741  0.00  0.00    +0.000 A 
ATOM     22  C   UNL     1       1.598   4.143  17.945  0.00  0.00    +0.000 A 
ATOM     23  C   UNL     1       2.790   4.154  17.213  0.00  0.00    +0.000 A 
ENDBRANCH  16  18
ENDBRANCH   9  16
TORSDOF 3
ENDMDL
MODEL 4
REMARK VINA RESULT:      -8.0      3.283      5.556
REMARK  Name = 
REMARK  4 active torsions:
REMARK  status: ('A' for Active; 'I' for Inactive)
REMARK    1  A    between atoms: C_1  and  C_2
REMARK    2  A    between atoms: C_5  and  C_6
REMARK    3  A    between atoms: C_14  and  N_15
REMARK    4  A    between atoms: N_15  and  C_16
REMARK                            x       y       z     vdW  Elec       q    Type
REMARK                         _______ _______ _______ _____ _____    ______ ____
ROOT
ATOM      1  C   UNL     1       6.414   4.555  15.210  0.00  0.00    +0.000 A 
ATOM      2  N   UNL     1       7.223   5.636  15.482  0.00  0.00    +0.000 NA
ATOM      3  C   UNL     1       7.178   5.734  16.790  0.00  0.00    +0.000 A 
ATOM      4  C   UNL     1       7.805   6.727  17.620  0.00  0.00    +0.000 A 
ATOM      5  N   UNL     1       7.701   6.706  18.921  0.00  0.00    +0.000 NA
ATOM      6  C   UNL     1       6.941   5.692  19.481  0.00  0.00    +0.000 A 
ATOM      7  C   UNL     1       6.296   4.749  18.770  0.00  0.00    +0.000 A 
ATOM      8  N   UNL     1       6.419   4.757  17.389  0.00  0.00    +0.000 N 
ATOM      9  C   UNL     1       5.909   3.972  16.366  0.00  0.00    +0.000 A 
ENDROOT
BRANCH   1  14
ATOM     10  C   UNL     1       3.843   3.133  11.248  0.00  0.00    +0.000 C 
ATOM     11  C   UNL     1       5.067   3.438  12.013  0.00  0.00    +0.000 A 
ATOM     12  C   UNL     1       6.407   3.434  11.692  0.00  0.00    +0.000 A 
ATOM     13  C   UNL     1       7.091   3.865  12.853  0.00  0.00    +0.000 A 
ATOM     14  C   UNL     1       6.134   4.090  13.823  0.00  0.00    +0.000 A 
ATOM     15  O   UNL     1       4.894   3.816  13.311  0.00  0.00    +0.000 OA
ENDBRANCH   1  14
BRANCH   9  16
ATOM     16  N   UNL     1       5.026   2.944  16.532  0.00  0.00    +0.000 N 
ATOM     17  H   UNL     1       5.450   2.017  16.638  0.00  0.00    +0.000 HD
BRANCH  16  18
ATOM     18  C   UNL     1       3.803   2.969  17.244  0.00  0.00    +0.000 A 
ATOM     19  C   UNL     1       2.972   4.088  17.088  0.00  0.00    +0.000 A 
ATOM     20  C   UNL     1       1.767   4.191  17.786  0.00  0.00    +0.000 A 
ATOM     21  C   UNL     1       1.375   3.172  18.649  0.00  0.00    +0.000 A 
ATOM     22  C   UNL     1       2.181   2.046  18.803  0.00  0.00    +0.000 A 
ATOM     23  C   UNL     1       3.385   1.943  18.098  0.00  0.00    +0.000 A 
ENDBRANCH  16  18
ENDBRANCH   9  16
TORSDOF 3
ENDMDL
MODEL 5
REMARK VINA RESULT:      -7.9      2.150      5.368
REMARK  Name = 
REMARK  4 active torsions:
REMARK  status: ('A' for Active; 'I' for Inactive)
REMARK    1  A    between atoms: C_1  and  C_2
REMARK    2  A    between atoms: C_5  and  C_6
REMARK    3  A    between atoms: C_14  and  N_15
REMARK    4  A    between atoms: N_15  and  C_16
REMARK                            x       y       z     vdW  Elec       q    Type
REMARK                         _______ _______ _______ _____ _____    ______ ____
ROOT
ATOM      1  C   UNL     1       4.945   4.865  18.608  0.00  0.00    +0.000 A 
ATOM      2  N   UNL     1       4.937   3.562  19.055  0.00  0.00    +0.000 NA
ATOM      3  C   UNL     1       3.677   3.207  18.949  0.00  0.00    +0.000 A 
ATOM      4  C   UNL     1       3.082   1.954  19.326  0.00  0.00    +0.000 A 
ATOM      5  N   UNL     1       1.810   1.712  19.152  0.00  0.00    +0.000 NA
ATOM      6  C   UNL     1       1.042   2.725  18.601  0.00  0.00    +0.000 A 
ATOM      7  C   UNL     1       1.519   3.935  18.257  0.00  0.00    +0.000 A 
ATOM      8  N   UNL     1       2.872   4.189  18.423  0.00  0.00    +0.000 N 
ATOM      9  C   UNL     1       3.688   5.286  18.192  0.00  0.00    +0.000 A 
ENDROOT
BRANCH   1  14
ATOM     10  C   UNL     1       7.988   8.577  17.472  0.00  0.00    +0.000 C 
ATOM     11  C   UNL     1       7.603   7.311  18.125  0.00  0.00    +0.000 A 
ATOM     12  C   UNL     1       8.253   6.458  18.991  0.00  0.00    +0.000 A 
ATOM     13  C   UNL     1       7.333   5.429  19.295  0.00  0.00    +0.000 A 
ATOM     14  C   UNL     1       6.180   5.698  18.585  0.00  0.00    +0.000 A 
ATOM     15  O   UNL     1       6.350   6.846  17.859  0.00  0.00    +0.000 OA
ENDBRANCH   1  14
BRANCH   9  16
ATOM     16  N   UNL     1       3.257   6.506  17.757  0.00  0.00    +0.000 N 
ATOM     17  H   UNL     1       2.988   6.547  16.768  0.00  0.00    +0.000 HD
BRANCH  16  18
ATOM     18  C   UNL     1       2.491   7.453  18.477  0.00  0.00    +0.000 A 
ATOM     19  C   UNL     1       2.026   8.585  17.792  0.00  0.00    +0.000 A 
ATOM     20  C   UNL     1       1.292   9.573  18.451  0.00  0.00    +0.000 A 
ATOM     21  C   UNL     1       1.008   9.439  19.807  0.00  0.00    +0.000 A 
ATOM     22  C   UNL     1       1.447   8.312  20.499  0.00  0.00    +0.000 A 
ATOM     23  C   UNL     1       2.179   7.322  19.835  0.00  0.00    +0.000 A 
ENDBRANCH  16  18
ENDBRANCH   9  16
TORSDOF 3
ENDMDL
MODEL 6
REMARK VINA RESULT:      -7.9      2.147      5.330
REMARK  Name = 
REMARK  4 active torsions:
REMARK  status: ('A' for Active; 'I' for Inactive)
REMARK    1  A    between atoms: C_1  and  C_2
REMARK    2  A    between atoms: C_5  and  C_6
REMARK    3  A    between atoms: C_14  and  N_15
REMARK    4  A    between atoms: N_15  and  C_16
REMARK                            x       y       z     vdW  Elec       q    Type
REMARK                         _______ _______ _______ _____ _____    ______ ____
ROOT
ATOM      1  C   UNL     1       4.931   4.865  18.610  0.00  0.00    +0.000 A 
ATOM      2  N   UNL     1       4.916   3.572  19.086  0.00  0.00    +0.000 NA
ATOM      3  C   UNL     1       3.657   3.215  18.973  0.00  0.00    +0.000 A 
ATOM      4  C   UNL     1       3.057   1.972  19.371  0.00  0.00    +0.000 A 
ATOM      5  N   UNL     1       1.787   1.727  19.187  0.00  0.00    +0.000 NA
ATOM      6  C   UNL     1       1.026   2.727  18.605  0.00  0.00    +0.000 A 
ATOM      7  C   UNL     1       1.508   3.929  18.239  0.00  0.00    +0.000 A 
ATOM      8  N   UNL     1       2.859   4.185  18.415  0.00  0.00    +0.000 N 
ATOM      9  C   UNL     1       3.678   5.277  18.169  0.00  0.00    +0.000 A 
ENDROOT
BRANCH   1  14
ATOM     10  C   UNL     1       7.977   8.568  17.454  0.00  0.00    +0.000 C 
ATOM     11  C   UNL     1       7.590   7.305  18.114  0.00  0.00    +0.000 A 
ATOM     12  C   UNL     1       8.240   6.457  18.984  0.00  0.00    +0.000 A 
ATOM     13  C   UNL     1       7.318   5.430  19.294  0.00  0.00    +0.000 A 
ATOM     14  C   UNL     1       6.165   5.697  18.583  0.00  0.00    +0.000 A 
ATOM     15  O   UNL     1       6.337   6.840  17.850  0.00  0.00    +0.000 OA
ENDBRANCH   1  14
BRANCH   9  16
ATOM     16  N   UNL     1       3.253   6.487  17.702  0.00  0.00    +0.000 N 
ATOM     17  H   UNL     1       2.963   6.498  16.719  0.00  0.00    +0.000 HD
BRANCH  16  18
ATOM     18  C   UNL     1       2.515   7.468  18.406  0.00  0.00    +0.000 A 
ATOM     19  C   UNL     1       2.268   7.254  19.771  0.00  0.00    +0.000 A 
ATOM     20  C   UNL     1       1.519   8.166  20.516  0.00  0.00    +0.000 A 
ATOM     21  C   UNL     1       1.011   9.310  19.908  0.00  0.00    +0.000 A 
ATOM     22  C   UNL     1       1.262   9.546  18.558  0.00  0.00    +0.000 A 
ATOM     23  C   UNL     1       2.016   8.633  17.813  0.00  0.00    +0.000 A 
ENDBRANCH  16  18
ENDBRANCH   9  16
TORSDOF 3
ENDMDL
MODEL 7
REMARK VINA RESULT:      -7.8      2.231      5.540
REMARK  Name = 
REMARK  4 active torsions:
REMARK  status: ('A' for Active; 'I' for Inactive)
REMARK    1  A    between atoms: C_1  and  C_2
REMARK    2  A    between atoms: C_5  and  C_6
REMARK    3  A    between atoms: C_14  and  N_15
REMARK    4  A    between atoms: N_15  and  C_16
REMARK                            x       y       z     vdW  Elec       q    Type
REMARK                         _______ _______ _______ _____ _____    ______ ____
ROOT
ATOM      1  C   UNL     1       4.573   4.743  18.754  0.00  0.00    +0.000 A 
ATOM      2  N   UNL     1       4.440   3.470  18.245  0.00  0.00    +0.000 NA
ATOM      3  C   UNL     1       3.205   3.143  18.549  0.00  0.00    +0.000 A 
ATOM      4  C   UNL     1       2.540   1.894  18.301  0.00  0.00    +0.000 A 
ATOM      5  N   UNL     1       1.294   1.695  18.637  0.00  0.00    +0.000 NA
ATOM      6  C   UNL     1       0.632   2.738  19.266  0.00  0.00    +0.000 A 
ATOM      7  C   UNL     1       1.197   3.922  19.564  0.00  0.00    +0.000 A 
ATOM      8  N   UNL     1       2.515   4.143  19.191  0.00  0.00    +0.000 N 
ATOM      9  C   UNL     1       3.397   5.203  19.335  0.00  0.00    +0.000 A 
ENDROOT
BRANCH   1  14
ATOM     10  C   UNL     1       7.784   8.221  17.368  0.00  0.00    +0.000 C 
ATOM     11  C   UNL     1       7.343   7.020  18.103  0.00  0.00    +0.000 A 
ATOM     12  C   UNL     1       7.957   6.195  19.020  0.00  0.00    +0.000 A 
ATOM     13  C   UNL     1       6.990   5.233  19.394  0.00  0.00    +0.000 A 
ATOM     14  C   UNL     1       5.846   5.512  18.672  0.00  0.00    +0.000 A 
ATOM     15  O   UNL     1       6.067   6.601  17.872  0.00  0.00    +0.000 OA
ENDBRANCH   1  14
BRANCH   9  16
ATOM     16  N   UNL     1       3.129   6.362  20.006  0.00  0.00    +0.000 N 
ATOM     17  H   UNL     1       3.878   6.691  20.624  0.00  0.00    +0.000 HD
BRANCH  16  18
ATOM     18  C   UNL     1       2.406   7.481  19.530  0.00  0.00    +0.000 A 
ATOM     19  C   UNL     1       1.610   8.189  20.442  0.00  0.00    +0.000 A 
ATOM     20  C   UNL     1       0.846   9.283  20.032  0.00  0.00    +0.000 A 
ATOM     21  C   UNL     1       0.873   9.689  18.701  0.00  0.00    +0.000 A 
ATOM     22  C   UNL     1       1.672   9.007  17.785  0.00  0.00    +0.000 A 
ATOM     23  C   UNL     1       2.439   7.914  18.200  0.00  0.00    +0.000 A 
ENDBRANCH  16  18
ENDBRANCH   9  16
TORSDOF 3
ENDMDL
MODEL 8
REMARK VINA RESULT:      -7.7      2.235      5.140
REMARK  Name = 
REMARK  4 active torsions:
REMARK  status: ('A' for Active; 'I' for Inactive)
REMARK    1  A    between atoms: C_1  and  C_2
REMARK    2  A    between atoms: C_5  and  C_6
REMARK    3  A    between atoms: C_14  and  N_15
REMARK    4  A    between atoms: N_15  and  C_16
REMARK                            x       y       z     vdW  Elec       q    Type
REMARK                         _______ _______ _______ _____ _____    ______ ____
ROOT
ATOM      1  C   UNL     1       3.388   7.509  18.013  0.00  0.00    +0.000 A 
ATOM      2  N   UNL     1       2.823   8.640  17.465  0.00  0.00    +0.000 NA
ATOM      3  C   UNL     1       1.908   8.983  18.342  0.00  0.00    +0.000 A 
ATOM      4  C   UNL     1       0.973  10.072  18.257  0.00  0.00    +0.000 A 
ATOM      5  N   UNL     1       0.118  10.325  19.211  0.00  0.00    +0.000 NA
ATOM      6  C   UNL     1       0.130   9.486  20.313  0.00  0.00    +0.000 A 
ATOM      7  C   UNL     1       0.949   8.427  20.449  0.00  0.00    +0.000 A 
ATOM      8  N   UNL     1       1.872   8.166  19.447  0.00  0.00    +0.000 N 
ATOM      9  C   UNL     1       2.837   7.192  19.249  0.00  0.00    +0.000 A 
ENDROOT
BRANCH   1  14
ATOM     10  C   UNL     1       7.307   4.568  17.446  0.00  0.00    +0.000 C 
ATOM     11  C   UNL     1       6.213   5.446  16.990  0.00  0.00    +0.000 A 
ATOM     12  C   UNL     1       5.775   5.840  15.744  0.00  0.00    +0.000 A 
ATOM     13  C   UNL     1       4.645   6.662  15.966  0.00  0.00    +0.000 A 
ATOM     14  C   UNL     1       4.467   6.740  17.332  0.00  0.00    +0.000 A 
ATOM     15  O   UNL     1       5.436   6.004  17.961  0.00  0.00    +0.000 OA
ENDBRANCH   1  14
BRANCH   9  16
ATOM     16  N   UNL     1       3.061   6.129  20.076  0.00  0.00    +0.000 N 
ATOM     17  H   UNL     1       3.312   6.370  21.040  0.00  0.00    +0.000 HD
BRANCH  16  18
ATOM     18  C   UNL     1       2.381   4.887  20.080  0.00  0.00    +0.000 A 
ATOM     19  C   UNL     1       1.925   4.381  18.853  0.00  0.00    +0.000 A 
ATOM     20  C   UNL     1       1.220   3.178  18.791  0.00  0.00    +0.000 A 
ATOM     21  C   UNL     1       0.964   2.460  19.956  0.00  0.00    +0.000 A 
ATOM     22  C   UNL     1       1.424   2.941  21.180  0.00  0.00    +0.000 A 
ATOM     23  C   UNL     1       2.135   4.145  21.240  0.00  0.00    +0.000 A 
ENDBRANCH  16  18
ENDBRANCH   9  16
TORSDOF 3
ENDMDL
MODEL 9
REMARK VINA RESULT:      -7.7      1.924      5.572
REMARK  Name = 
REMARK  4 active torsions:
REMARK  status: ('A' for Active; 'I' for Inactive)
REMARK    1  A    between atoms: C_1  and  C_2
REMARK    2  A    between atoms: C_5  and  C_6
REMARK    3  A    between atoms: C_14  and  N_15
REMARK    4  A    between atoms: N_15  and  C_16
REMARK                            x       y       z     vdW  Elec       q    Type
REMARK                         _______ _______ _______ _____ _____    ______ ____
ROOT
ATOM      1  C   UNL     1       4.204   4.653  18.106  0.00  0.00    +0.000 A 
ATOM      2  N   UNL     1       3.854   3.371  17.744  0.00  0.00    +0.000 NA
ATOM      3  C   UNL     1       2.763   3.141  18.438  0.00  0.00    +0.000 A 
ATOM      4  C   UNL     1       1.993   1.929  18.489  0.00  0.00    +0.000 A 
ATOM      5  N   UNL     1       0.907   1.829  19.208  0.00  0.00    +0.000 NA
ATOM      6  C   UNL     1       0.530   2.940  19.946  0.00  0.00    +0.000 A 
ATOM      7  C   UNL     1       1.218   4.096  19.978  0.00  0.00    +0.000 A 
ATOM      8  N   UNL     1       2.361   4.212  19.200  0.00  0.00    +0.000 N 
ATOM      9  C   UNL     1       3.295   5.216  18.995  0.00  0.00    +0.000 A 
ENDROOT
BRANCH   1  14
ATOM     10  C   UNL     1       7.773   8.027  17.651  0.00  0.00    +0.000 C 
ATOM     11  C   UNL     1       7.046   6.790  17.307  0.00  0.00    +0.000 A 
ATOM     12  C   UNL     1       7.268   5.788  16.387  0.00  0.00    +0.000 A 
ATOM     13  C   UNL     1       6.230   4.845  16.574  0.00  0.00    +0.000 A 
ATOM     14  C   UNL     1       5.423   5.331  17.583  0.00  0.00    +0.000 A 
ATOM     15  O   UNL     1       5.917   6.529  18.025  0.00  0.00    +0.000 OA
ENDBRANCH   1  14
BRANCH   9  16
ATOM     16  N   UNL     1       3.311   6.418  19.642  0.00  0.00    +0.000 N 
ATOM     17  H   UNL     1       4.241   6.765  19.895  0.00  0.00    +0.000 HD
BRANCH  16  18
ATOM     18  C   UNL     1       2.457   7.524  19.417  0.00  0.00    +0.000 A 
ATOM     19  C   UNL     1       2.406   8.067  18.125  0.00  0.00    +0.000 A 
ATOM     20  C   UNL     1       1.609   9.178  17.843  0.00  0.00    +0.000 A 
ATOM     21  C   UNL     1       0.846   9.759  18.851  0.00  0.00    +0.000 A 
ATOM     22  C   UNL     1       0.872   9.222  20.137  0.00  0.00    +0.000 A 
ATOM     23  C   UNL     1       1.668   8.106  20.416  0.00  0.00    +0.000 A 
ENDBRANCH  16  18
ENDBRANCH   9  16
TORSDOF 3
ENDMDL
