MODEL 1
REMARK VINA RESULT:      -8.0      0.000      0.000
REMARK  Name = 
REMARK  5 active torsions:
REMARK  status: ('A' for Active; 'I' for Inactive)
REMARK    1  A    between atoms: C_5  and  C_6
REMARK    2  A    between atoms: C_6  and  C_7
REMARK    3  A    between atoms: C_7  and  C_8
REMARK    4  A    between atoms: C_8  and  C_9
REMARK    5  A    between atoms: C_9  and  N_10
REMARK                            x       y       z     vdW  Elec       q    Type
REMARK                         _______ _______ _______ _____ _____    ______ ____
ROOT
ATOM      1  N   UNL     1       7.679   6.366  17.343  0.00  0.00    +0.000 NA
ATOM      2  C   UNL     1       7.289   5.692  18.612  0.00  0.00    +0.000 C 
ATOM      3  C   UNL     1       5.792   5.821  18.991  0.00  0.00    +0.000 C 
ATOM      4  N   UNL     1       5.008   5.312  17.868  0.00  0.00    +0.000 N 
ATOM      5  C   UNL     1       3.894   4.546  18.105  0.00  0.00    +0.000 A 
ATOM      6  C   UNL     1       3.486   3.596  17.165  0.00  0.00    +0.000 A 
ATOM      7  C   UNL     1       2.401   2.763  17.429  0.00  0.00    +0.000 A 
ATOM      8  C   UNL     1       1.727   2.905  18.629  0.00  0.00    +0.000 A 
ATOM      9 CL   UNL     1       0.382   1.909  18.997  0.00  0.00    +0.000 Cl
ATOM     10  C   UNL     1       2.182   3.861  19.520  0.00  0.00    +0.000 A 
ATOM     11  N   UNL     1       3.250   4.666  19.285  0.00  0.00    +0.000 NA
ATOM     12  C   UNL     1       5.263   5.955  16.580  0.00  0.00    +0.000 C 
ATOM     13  C   UNL     1       6.778   5.874  16.263  0.00  0.00    +0.000 C 
ENDROOT
BRANCH   1  14
ATOM     14  C   UNL     1       7.614   7.833  17.427  0.00  0.00    +0.000 C 
BRANCH  14  15
ATOM     15  C   UNL     1       8.439   8.406  18.583  0.00  0.00    +0.000 C 
BRANCH  15  16
ATOM     16  C   UNL     1       8.792   9.868  18.318  0.00  0.00    +0.000 C 
BRANCH  16  17
ATOM     17  C   UNL     1       9.533  10.474  19.509  0.00  0.00    +0.000 C 
BRANCH  17  22
ATOM     18  F   UNL     1      12.323  15.127  18.006  0.00  0.00    +0.000 F 
ATOM     19  C   UNL     1      11.663  14.018  18.363  0.00  0.00    +0.000 A 
ATOM     20  C   UNL     1      11.743  13.566  19.676  0.00  0.00    +0.000 A 
ATOM     21  C   UNL     1      11.056  12.411  20.046  0.00  0.00    +0.000 A 
ATOM     22  C   UNL     1      10.297  11.706  19.100  0.00  0.00    +0.000 A 
ATOM     23  C   UNL     1      10.223  12.182  17.783  0.00  0.00    +0.000 A 
ATOM     24  C   UNL     1      10.912  13.335  17.412  0.00  0.00    +0.000 A 
ENDBRANCH  17  22
ENDBRANCH  16  17
ENDBRANCH  15  16
ENDBRANCH  14  15
ENDBRANCH   1  14
TORSDOF 5
ENDMDL
MODEL 2
REMARK VINA RESULT:      -7.6      4.741      7.153
REMARK  Name = 
REMARK  5 active torsions:
REMARK  status: ('A' for Active; 'I' for Inactive)
REMARK    1  A    between atoms: C_5  and  C_6
REMARK    2  A    between atoms: C_6  and  C_7
REMARK    3  A    between atoms: C_7  and  C_8
REMARK    4  A    between atoms: C_8  and  C_9
REMARK    5  A    between atoms: C_9  and  N_10
REMARK                            x       y       z     vdW  Elec       q    Type
REMARK                         _______ _______ _______ _____ _____    ______ ____
ROOT
ATOM      1  N   UNL     1       3.624   4.694  19.655  0.00  0.00    +0.000 NA
ATOM      2  C   UNL     1       3.968   6.066  19.192  0.00  0.00    +0.000 C 
ATOM      3  C   UNL     1       2.754   6.986  18.906  0.00  0.00    +0.000 C 
ATOM      4  N   UNL     1       1.941   7.034  20.119  0.00  0.00    +0.000 N 
ATOM      5  C   UNL     1       1.380   8.220  20.519  0.00  0.00    +0.000 A 
ATOM      6  C   UNL     1       1.129   8.453  21.873  0.00  0.00    +0.000 A 
ATOM      7  C   UNL     1       0.628   9.683  22.296  0.00  0.00    +0.000 A 
ATOM      8  C   UNL     1       0.370  10.660  21.352  0.00  0.00    +0.000 A 
ATOM      9 CL   UNL     1      -0.252  12.186  21.821  0.00  0.00    +0.000 Cl
ATOM     10  C   UNL     1       0.645  10.369  20.027  0.00  0.00    +0.000 A 
ATOM     11  N   UNL     1       1.151   9.184  19.602  0.00  0.00    +0.000 NA
ATOM     12  C   UNL     1       1.489   5.738  20.624  0.00  0.00    +0.000 C 
ATOM     13  C   UNL     1       2.718   4.816  20.831  0.00  0.00    +0.000 C 
ENDROOT
BRANCH   1  14
ATOM     14  C   UNL     1       2.989   3.876  18.610  0.00  0.00    +0.000 C 
BRANCH  14  15
ATOM     15  C   UNL     1       3.998   3.105  17.754  0.00  0.00    +0.000 C 
BRANCH  15  16
ATOM     16  C   UNL     1       4.282   3.854  16.454  0.00  0.00    +0.000 C 
BRANCH  16  17
ATOM     17  C   UNL     1       5.777   3.847  16.137  0.00  0.00    +0.000 C 
BRANCH  17  22
ATOM     18  F   UNL     1       8.535   7.883  18.929  0.00  0.00    +0.000 F 
ATOM     19  C   UNL     1       7.875   6.924  18.268  0.00  0.00    +0.000 A 
ATOM     20  C   UNL     1       7.111   7.262  17.156  0.00  0.00    +0.000 A 
ATOM     21  C   UNL     1       6.424   6.263  16.467  0.00  0.00    +0.000 A 
ATOM     22  C   UNL     1       6.496   4.929  16.898  0.00  0.00    +0.000 A 
ATOM     23  C   UNL     1       7.279   4.609  18.017  0.00  0.00    +0.000 A 
ATOM     24  C   UNL     1       7.964   5.608  18.707  0.00  0.00    +0.000 A 
ENDBRANCH  17  22
ENDBRANCH  16  17
ENDBRANCH  15  16
ENDBRANCH  14  15
ENDBRANCH   1  14
TORSDOF 5
ENDMDL
MODEL 3
REMARK VINA RESULT:      -7.5      4.835      7.268
REMARK  Name = 
REMARK  5 active torsions:
REMARK  status: ('A' for Active; 'I' for Inactive)
REMARK    1  A    between atoms: C_5  and  C_6
REMARK    2  A    between atoms: C_6  and  C_7
REMARK    3  A    between atoms: C_7  and  C_8
REMARK    4  A    between atoms: C_8  and  C_9
REMARK    5  A    between atoms: C_9  and  N_10
REMARK                            x       y       z     vdW  Elec       q    Type
REMARK                         _______ _______ _______ _____ _____    ______ ____
ROOT
ATOM      1  N   UNL     1       3.238   4.568  19.779  0.00  0.00    +0.000 NA
ATOM      2  C   UNL     1       3.700   5.898  19.294  0.00  0.00    +0.000 C 
ATOM      3  C   UNL     1       2.569   6.910  18.978  0.00  0.00    +0.000 C 
ATOM      4  N   UNL     1       1.753   7.049  20.182  0.00  0.00    +0.000 N 
ATOM      5  C   UNL     1       1.289   8.286  20.555  0.00  0.00    +0.000 A 
ATOM      6  C   UNL     1       1.047   8.565  21.901  0.00  0.00    +0.000 A 
ATOM      7  C   UNL     1       0.646   9.840  22.296  0.00  0.00    +0.000 A 
ATOM      8  C   UNL     1       0.479  10.816  21.332  0.00  0.00    +0.000 A 
ATOM      9 CL   UNL     1      -0.018  12.398  21.766  0.00  0.00    +0.000 Cl
ATOM     10  C   UNL     1       0.740  10.479  20.015  0.00  0.00    +0.000 A 
ATOM     11  N   UNL     1       1.149   9.247  19.617  0.00  0.00    +0.000 NA
ATOM     12  C   UNL     1       1.190   5.805  20.707  0.00  0.00    +0.000 C 
ATOM     13  C   UNL     1       2.335   4.789  20.944  0.00  0.00    +0.000 C 
ENDROOT
BRANCH   1  14
ATOM     14  C   UNL     1       2.546   3.787  18.744  0.00  0.00    +0.000 C 
BRANCH  14  15
ATOM     15  C   UNL     1       3.118   4.008  17.340  0.00  0.00    +0.000 C 
BRANCH  15  16
ATOM     16  C   UNL     1       4.424   3.237  17.165  0.00  0.00    +0.000 C 
BRANCH  16  17
ATOM     17  C   UNL     1       5.344   3.944  16.170  0.00  0.00    +0.000 C 
BRANCH  17  22
ATOM     18  F   UNL     1       8.527   7.753  18.826  0.00  0.00    +0.000 F 
ATOM     19  C   UNL     1       7.774   6.846  18.191  0.00  0.00    +0.000 A 
ATOM     20  C   UNL     1       7.851   5.509  18.566  0.00  0.00    +0.000 A 
ATOM     21  C   UNL     1       7.066   4.565  17.905  0.00  0.00    +0.000 A 
ATOM     22  C   UNL     1       6.212   4.960  16.864  0.00  0.00    +0.000 A 
ATOM     23  C   UNL     1       6.143   6.314  16.506  0.00  0.00    +0.000 A 
ATOM     24  C   UNL     1       6.930   7.258  17.166  0.00  0.00    +0.000 A 
ENDBRANCH  17  22
ENDBRANCH  16  17
ENDBRANCH  15  16
ENDBRANCH  14  15
ENDBRANCH   1  14
TORSDOF 5
ENDMDL
MODEL 4
REMARK VINA RESULT:      -7.4      1.326      1.592
REMARK  Name = 
REMARK  5 active torsions:
REMARK  status: ('A' for Active; 'I' for Inactive)
REMARK    1  A    between atoms: C_5  and  C_6
REMARK    2  A    between atoms: C_6  and  C_7
REMARK    3  A    between atoms: C_7  and  C_8
REMARK    4  A    between atoms: C_8  and  C_9
REMARK    5  A    between atoms: C_9  and  N_10
REMARK                            x       y       z     vdW  Elec       q    Type
REMARK                         _______ _______ _______ _____ _____    ______ ____
ROOT
ATOM      1  N   UNL     1       7.690   6.299  17.216  0.00  0.00    +0.000 NA
ATOM      2  C   UNL     1       7.262   5.731  18.524  0.00  0.00    +0.000 C 
ATOM      3  C   UNL     1       5.754   5.884  18.846  0.00  0.00    +0.000 C 
ATOM      4  N   UNL     1       5.005   5.282  17.745  0.00  0.00    +0.000 N 
ATOM      5  C   UNL     1       3.885   4.534  18.010  0.00  0.00    +0.000 A 
ATOM      6  C   UNL     1       3.508   3.508  17.140  0.00  0.00    +0.000 A 
ATOM      7  C   UNL     1       2.416   2.696  17.439  0.00  0.00    +0.000 A 
ATOM      8  C   UNL     1       1.706   2.933  18.601  0.00  0.00    +0.000 A 
ATOM      9 CL   UNL     1       0.351   1.966  19.010  0.00  0.00    +0.000 Cl
ATOM     10  C   UNL     1       2.133   3.961  19.424  0.00  0.00    +0.000 A 
ATOM     11  N   UNL     1       3.206   4.747  19.157  0.00  0.00    +0.000 NA
ATOM     12  C   UNL     1       5.299   5.818  16.417  0.00  0.00    +0.000 C 
ATOM     13  C   UNL     1       6.823   5.717  16.153  0.00  0.00    +0.000 C 
ENDROOT
BRANCH   1  14
ATOM     14  C   UNL     1       7.621   7.767  17.177  0.00  0.00    +0.000 C 
BRANCH  14  15
ATOM     15  C   UNL     1       8.445   8.438  18.280  0.00  0.00    +0.000 C 
BRANCH  15  16
ATOM     16  C   UNL     1       8.262   9.953  18.241  0.00  0.00    +0.000 C 
BRANCH  16  17
ATOM     17  C   UNL     1       9.614  10.663  18.170  0.00  0.00    +0.000 C 
BRANCH  17  22
ATOM     18  F   UNL     1       9.981  14.557  22.220  0.00  0.00    +0.000 F 
ATOM     19  C   UNL     1       9.898  13.629  21.257  0.00  0.00    +0.000 A 
ATOM     20  C   UNL     1       9.712  12.296  21.606  0.00  0.00    +0.000 A 
ATOM     21  C   UNL     1       9.626  11.331  20.603  0.00  0.00    +0.000 A 
ATOM     22  C   UNL     1       9.736  11.702  19.254  0.00  0.00    +0.000 A 
ATOM     23  C   UNL     1       9.915  13.053  18.923  0.00  0.00    +0.000 A 
ATOM     24  C   UNL     1      10.003  14.018  19.926  0.00  0.00    +0.000 A 
ENDBRANCH  17  22
ENDBRANCH  16  17
ENDBRANCH  15  16
ENDBRANCH  14  15
ENDBRANCH   1  14
TORSDOF 5
ENDMDL
MODEL 5
REMARK VINA RESULT:      -7.2      1.042      1.168
REMARK  Name = 
REMARK  5 active torsions:
REMARK  status: ('A' for Active; 'I' for Inactive)
REMARK    1  A    between atoms: C_5  and  C_6
REMARK    2  A    between atoms: C_6  and  C_7
REMARK    3  A    between atoms: C_7  and  C_8
REMARK    4  A    between atoms: C_8  and  C_9
REMARK    5  A    between atoms: C_9  and  N_10
REMARK                            x       y       z     vdW  Elec       q    Type
REMARK                         _______ _______ _______ _____ _____    ______ ____
ROOT
ATOM      1  N   UNL     1       7.548   6.229  17.025  0.00  0.00    +0.000 NA
ATOM      2  C   UNL     1       7.400   4.996  17.847  0.00  0.00    +0.000 C 
ATOM      3  C   UNL     1       6.247   5.033  18.882  0.00  0.00    +0.000 C 
ATOM      4  N   UNL     1       5.013   5.330  18.158  0.00  0.00    +0.000 N 
ATOM      5  C   UNL     1       3.852   4.678  18.492  0.00  0.00    +0.000 A 
ATOM      6  C   UNL     1       2.864   4.473  17.526  0.00  0.00    +0.000 A 
ATOM      7  C   UNL     1       1.715   3.749  17.836  0.00  0.00    +0.000 A 
ATOM      8  C   UNL     1       1.564   3.250  19.117  0.00  0.00    +0.000 A 
ATOM      9 CL   UNL     1       0.167   2.358  19.549  0.00  0.00    +0.000 Cl
ATOM     10  C   UNL     1       2.581   3.482  20.027  0.00  0.00    +0.000 A 
ATOM     11  N   UNL     1       3.715   4.169  19.735  0.00  0.00    +0.000 NA
ATOM     12  C   UNL     1       5.027   6.562  17.370  0.00  0.00    +0.000 C 
ATOM     13  C   UNL     1       6.232   6.527  16.395  0.00  0.00    +0.000 C 
ENDROOT
BRANCH   1  14
ATOM     14  C   UNL     1       8.010   7.387  17.804  0.00  0.00    +0.000 C 
BRANCH  14  15
ATOM     15  C   UNL     1       7.208   8.661  17.522  0.00  0.00    +0.000 C 
BRANCH  15  16
ATOM     16  C   UNL     1       8.033   9.901  17.860  0.00  0.00    +0.000 C 
BRANCH  16  17
ATOM     17  C   UNL     1       9.002   9.615  19.006  0.00  0.00    +0.000 C 
BRANCH  17  22
ATOM     18  F   UNL     1      12.333  14.065  19.898  0.00  0.00    +0.000 F 
ATOM     19  C   UNL     1      11.544  13.003  19.688  0.00  0.00    +0.000 A 
ATOM     20  C   UNL     1      10.655  12.605  20.680  0.00  0.00    +0.000 A 
ATOM     21  C   UNL     1       9.833  11.500  20.461  0.00  0.00    +0.000 A 
ATOM     22  C   UNL     1       9.910  10.791  19.252  0.00  0.00    +0.000 A 
ATOM     23  C   UNL     1      10.807  11.214  18.261  0.00  0.00    +0.000 A 
ATOM     24  C   UNL     1      11.630  12.318  18.482  0.00  0.00    +0.000 A 
ENDBRANCH  17  22
ENDBRANCH  16  17
ENDBRANCH  15  16
ENDBRANCH  14  15
ENDBRANCH   1  14
TORSDOF 5
ENDMDL
MODEL 6
REMARK VINA RESULT:      -7.2      4.586      6.898
REMARK  Name = 
REMARK  5 active torsions:
REMARK  status: ('A' for Active; 'I' for Inactive)
REMARK    1  A    between atoms: C_5  and  C_6
REMARK    2  A    between atoms: C_6  and  C_7
REMARK    3  A    between atoms: C_7  and  C_8
REMARK    4  A    between atoms: C_8  and  C_9
REMARK    5  A    between atoms: C_9  and  N_10
REMARK                            x       y       z     vdW  Elec       q    Type
REMARK                         _______ _______ _______ _____ _____    ______ ____
ROOT
ATOM      1  N   UNL     1       2.297   4.819  18.538  0.00  0.00    +0.000 NA
ATOM      2  C   UNL     1       1.518   4.875  19.806  0.00  0.00    +0.000 C 
ATOM      3  C   UNL     1       1.900   6.034  20.761  0.00  0.00    +0.000 C 
ATOM      4  N   UNL     1       1.769   7.283  20.013  0.00  0.00    +0.000 N 
ATOM      5  C   UNL     1       1.232   8.390  20.620  0.00  0.00    +0.000 A 
ATOM      6  C   UNL     1       0.566   9.351  19.858  0.00  0.00    +0.000 A 
ATOM      7  C   UNL     1      -0.046  10.441  20.474  0.00  0.00    +0.000 A 
ATOM      8  C   UNL     1       0.031  10.560  21.849  0.00  0.00    +0.000 A 
ATOM      9 CL   UNL     1      -0.699  11.885  22.654  0.00  0.00    +0.000 Cl
ATOM     10  C   UNL     1       0.702   9.572  22.550  0.00  0.00    +0.000 A 
ATOM     11  N   UNL     1       1.285   8.495  21.965  0.00  0.00    +0.000 NA
ATOM     12  C   UNL     1       2.552   7.361  18.780  0.00  0.00    +0.000 C 
ATOM     13  C   UNL     1       2.201   6.151  17.877  0.00  0.00    +0.000 C 
ENDROOT
BRANCH   1  14
ATOM     14  C   UNL     1       3.707   4.458  18.745  0.00  0.00    +0.000 C 
BRANCH  14  15
ATOM     15  C   UNL     1       4.229   3.453  17.714  0.00  0.00    +0.000 C 
BRANCH  15  16
ATOM     16  C   UNL     1       4.722   4.175  16.462  0.00  0.00    +0.000 C 
BRANCH  16  17
ATOM     17  C   UNL     1       6.241   4.073  16.338  0.00  0.00    +0.000 C 
BRANCH  17  22
ATOM     18  F   UNL     1       8.704   8.332  19.075  0.00  0.00    +0.000 F 
ATOM     19  C   UNL     1       8.122   7.318  18.422  0.00  0.00    +0.000 A 
ATOM     20  C   UNL     1       8.117   6.050  18.993  0.00  0.00    +0.000 A 
ATOM     21  C   UNL     1       7.511   4.994  18.313  0.00  0.00    +0.000 A 
ATOM     22  C   UNL     1       6.920   5.209  17.058  0.00  0.00    +0.000 A 
ATOM     23  C   UNL     1       6.929   6.496  16.504  0.00  0.00    +0.000 A 
ATOM     24  C   UNL     1       7.537   7.551  17.183  0.00  0.00    +0.000 A 
ENDBRANCH  17  22
ENDBRANCH  16  17
ENDBRANCH  15  16
ENDBRANCH  14  15
ENDBRANCH   1  14
TORSDOF 5
ENDMDL
MODEL 7
REMARK VINA RESULT:      -7.2      1.746      2.135
REMARK  Name = 
REMARK  5 active torsions:
REMARK  status: ('A' for Active; 'I' for Inactive)
REMARK    1  A    between atoms: C_5  and  C_6
REMARK    2  A    between atoms: C_6  and  C_7
REMARK    3  A    between atoms: C_7  and  C_8
REMARK    4  A    between atoms: C_8  and  C_9
REMARK    5  A    between atoms: C_9  and  N_10
REMARK                            x       y       z     vdW  Elec       q    Type
REMARK                         _______ _______ _______ _____ _____    ______ ____
ROOT
ATOM      1  N   UNL     1       7.756   6.582  17.400  0.00  0.00    +0.000 NA
ATOM      2  C   UNL     1       7.335   5.915  18.664  0.00  0.00    +0.000 C 
ATOM      3  C   UNL     1       5.825   6.023  18.992  0.00  0.00    +0.000 C 
ATOM      4  N   UNL     1       5.086   5.491  17.849  0.00  0.00    +0.000 N 
ATOM      5  C   UNL     1       3.977   4.710  18.057  0.00  0.00    +0.000 A 
ATOM      6  C   UNL     1       3.615   3.745  17.115  0.00  0.00    +0.000 A 
ATOM      7  C   UNL     1       2.534   2.898  17.351  0.00  0.00    +0.000 A 
ATOM      8  C   UNL     1       1.819   3.040  18.526  0.00  0.00    +0.000 A 
ATOM      9 CL   UNL     1       0.478   2.027  18.861  0.00  0.00    +0.000 Cl
ATOM     10  C   UNL     1       2.230   4.012  19.422  0.00  0.00    +0.000 A 
ATOM     11  N   UNL     1       3.293   4.831  19.215  0.00  0.00    +0.000 NA
ATOM     12  C   UNL     1       5.374   6.126  16.564  0.00  0.00    +0.000 C 
ATOM     13  C   UNL     1       6.899   6.066  16.297  0.00  0.00    +0.000 C 
ENDROOT
BRANCH   1  14
ATOM     14  C   UNL     1       7.666   8.048  17.467  0.00  0.00    +0.000 C 
BRANCH  14  15
ATOM     15  C   UNL     1       8.559   8.657  18.553  0.00  0.00    +0.000 C 
BRANCH  15  16
ATOM     16  C   UNL     1       8.793  10.142  18.285  0.00  0.00    +0.000 C 
BRANCH  16  17
ATOM     17  C   UNL     1       9.891  10.692  19.195  0.00  0.00    +0.000 C 
BRANCH  17  22
ATOM     18  F   UNL     1       8.167  15.241  22.029  0.00  0.00    +0.000 F 
ATOM     19  C   UNL     1       8.573  14.157  21.355  0.00  0.00    +0.000 A 
ATOM     20  C   UNL     1       8.541  14.165  19.964  0.00  0.00    +0.000 A 
ATOM     21  C   UNL     1       8.964  13.037  19.263  0.00  0.00    +0.000 A 
ATOM     22  C   UNL     1       9.408  11.900  19.954  0.00  0.00    +0.000 A 
ATOM     23  C   UNL     1       9.440  11.915  21.356  0.00  0.00    +0.000 A 
ATOM     24  C   UNL     1       9.015  13.043  22.058  0.00  0.00    +0.000 A 
ENDBRANCH  17  22
ENDBRANCH  16  17
ENDBRANCH  15  16
ENDBRANCH  14  15
ENDBRANCH   1  14
TORSDOF 5
ENDMDL
MODEL 8
REMARK VINA RESULT:      -7.1      1.109      1.408
REMARK  Name = 
REMARK  5 active torsions:
REMARK  status: ('A' for Active; 'I' for Inactive)
REMARK    1  A    between atoms: C_5  and  C_6
REMARK    2  A    between atoms: C_6  and  C_7
REMARK    3  A    between atoms: C_7  and  C_8
REMARK    4  A    between atoms: C_8  and  C_9
REMARK    5  A    between atoms: C_9  and  N_10
REMARK                            x       y       z     vdW  Elec       q    Type
REMARK                         _______ _______ _______ _____ _____    ______ ____
ROOT
ATOM      1  N   UNL     1       7.663   6.740  17.234  0.00  0.00    +0.000 NA
ATOM      2  C   UNL     1       7.383   5.939  18.457  0.00  0.00    +0.000 C 
ATOM      3  C   UNL     1       5.909   5.966  18.936  0.00  0.00    +0.000 C 
ATOM      4  N   UNL     1       5.075   5.525  17.821  0.00  0.00    +0.000 N 
ATOM      5  C   UNL     1       4.009   4.692  18.053  0.00  0.00    +0.000 A 
ATOM      6  C   UNL     1       3.579   3.812  17.056  0.00  0.00    +0.000 A 
ATOM      7  C   UNL     1       2.546   2.912  17.308  0.00  0.00    +0.000 A 
ATOM      8  C   UNL     1       1.946   2.915  18.553  0.00  0.00    +0.000 A 
ATOM      9 CL   UNL     1       0.667   1.831  18.910  0.00  0.00    +0.000 Cl
ATOM     10  C   UNL     1       2.420   3.807  19.500  0.00  0.00    +0.000 A 
ATOM     11  N   UNL     1       3.438   4.676  19.276  0.00  0.00    +0.000 NA
ATOM     12  C   UNL     1       5.221   6.292  16.584  0.00  0.00    +0.000 C 
ATOM     13  C   UNL     1       6.714   6.307  16.170  0.00  0.00    +0.000 C 
ENDROOT
BRANCH   1  14
ATOM     14  C   UNL     1       7.547   8.189  17.456  0.00  0.00    +0.000 C 
BRANCH  14  15
ATOM     15  C   UNL     1       8.697   8.764  18.289  0.00  0.00    +0.000 C 
BRANCH  15  16
ATOM     16  C   UNL     1       8.622  10.288  18.328  0.00  0.00    +0.000 C 
BRANCH  16  17
ATOM     17  C   UNL     1       9.989  10.908  18.044  0.00  0.00    +0.000 C 
BRANCH  17  22
ATOM     18  F   UNL     1       9.650  16.521  17.774  0.00  0.00    +0.000 F 
ATOM     19  C   UNL     1       9.730  15.186  17.843  0.00  0.00    +0.000 A 
ATOM     20  C   UNL     1       8.570  14.438  18.013  0.00  0.00    +0.000 A 
ATOM     21  C   UNL     1       8.655  13.049  18.084  0.00  0.00    +0.000 A 
ATOM     22  C   UNL     1       9.902  12.411  17.995  0.00  0.00    +0.000 A 
ATOM     23  C   UNL     1      11.059  13.183  17.816  0.00  0.00    +0.000 A 
ATOM     24  C   UNL     1      10.974  14.573  17.747  0.00  0.00    +0.000 A 
ENDBRANCH  17  22
ENDBRANCH  16  17
ENDBRANCH  15  16
ENDBRANCH  14  15
ENDBRANCH   1  14
TORSDOF 5
ENDMDL
MODEL 9
REMARK VINA RESULT:      -7.1      6.974      9.735
REMARK  Name = 
REMARK  5 active torsions:
REMARK  status: ('A' for Active; 'I' for Inactive)
REMARK    1  A    between atoms: C_5  and  C_6
REMARK    2  A    between atoms: C_6  and  C_7
REMARK    3  A    between atoms: C_7  and  C_8
REMARK    4  A    between atoms: C_8  and  C_9
REMARK    5  A    between atoms: C_9  and  N_10
REMARK                            x       y       z     vdW  Elec       q    Type
REMARK                         _______ _______ _______ _____ _____    ______ ____
ROOT
ATOM      1  N   UNL     1       2.613   6.362  18.280  0.00  0.00    +0.000 NA
ATOM      2  C   UNL     1       1.907   6.362  19.592  0.00  0.00    +0.000 C 
ATOM      3  C   UNL     1       1.980   7.696  20.376  0.00  0.00    +0.000 C 
ATOM      4  N   UNL     1       1.463   8.749  19.505  0.00  0.00    +0.000 N 
ATOM      5  C   UNL     1       0.657   9.731  20.025  0.00  0.00    +0.000 A 
ATOM      6  C   UNL     1      -0.291  10.358  19.214  0.00  0.00    +0.000 A 
ATOM      7  C   UNL     1      -1.163  11.304  19.750  0.00  0.00    +0.000 A 
ATOM      8  C   UNL     1      -1.063  11.619  21.093  0.00  0.00    +0.000 A 
ATOM      9 CL   UNL     1      -2.108  12.779  21.798  0.00  0.00    +0.000 Cl
ATOM     10  C   UNL     1      -0.106  10.959  21.844  0.00  0.00    +0.000 A 
ATOM     11  N   UNL     1       0.737  10.022  21.341  0.00  0.00    +0.000 NA
ATOM     12  C   UNL     1       2.134   8.882  18.213  0.00  0.00    +0.000 C 
ATOM     13  C   UNL     1       2.108   7.514  17.483  0.00  0.00    +0.000 C 
ENDROOT
BRANCH   1  14
ATOM     14  C   UNL     1       4.075   6.440  18.414  0.00  0.00    +0.000 C 
BRANCH  14  15
ATOM     15  C   UNL     1       4.812   5.381  17.589  0.00  0.00    +0.000 C 
BRANCH  15  16
ATOM     16  C   UNL     1       3.820   4.416  16.945  0.00  0.00    +0.000 C 
BRANCH  16  17
ATOM     17  C   UNL     1       3.959   3.015  17.540  0.00  0.00    +0.000 C 
BRANCH  17  22
ATOM     18  F   UNL     1       0.789   2.549  22.170  0.00  0.00    +0.000 F 
ATOM     19  C   UNL     1       1.543   2.655  21.068  0.00  0.00    +0.000 A 
ATOM     20  C   UNL     1       0.928   2.736  19.823  0.00  0.00    +0.000 A 
ATOM     21  C   UNL     1       1.713   2.846  18.677  0.00  0.00    +0.000 A 
ATOM     22  C   UNL     1       3.113   2.867  18.777  0.00  0.00    +0.000 A 
ATOM     23  C   UNL     1       3.713   2.792  20.042  0.00  0.00    +0.000 A 
ATOM     24  C   UNL     1       2.928   2.680  21.189  0.00  0.00    +0.000 A 
ENDBRANCH  17  22
ENDBRANCH  16  17
ENDBRANCH  15  16
ENDBRANCH  14  15
ENDBRANCH   1  14
TORSDOF 5
ENDMDL
