MODEL 1
REMARK VINA RESULT:      -6.9      0.000      0.000
REMARK  Name = 
REMARK  12 active torsions:
REMARK  status: ('A' for Active; 'I' for Inactive)
REMARK    1  A    between atoms: C_1  and  C_2
REMARK    2  A    between atoms: C_2  and  C_3
REMARK    3  A    between atoms: C_2  and  N_4
REMARK    4  A    between atoms: C_6  and  C_7
REMARK    5  A    between atoms: C_15  and  C_16
REMARK    6  A    between atoms: N_18  and  C_19
REMARK    7  A    between atoms: C_19  and  C_20
REMARK    8  A    between atoms: C_20  and  C_21
REMARK    9  A    between atoms: C_21  and  C_22
REMARK   10  A    between atoms: C_22  and  C_23
REMARK   11  A    between atoms: C_23  and  C_24
REMARK   12  A    between atoms: C_24  and  S_25
REMARK                            x       y       z     vdW  Elec       q    Type
REMARK                         _______ _______ _______ _____ _____    ______ ____
ROOT
ATOM      1  N   UNL     1       3.226   4.806  18.912  0.00  0.00    +0.000 N 
ATOM      2  N   UNL     1       2.308   5.666  19.408  0.00  0.00    +0.000 NA
ATOM      3  C   UNL     1       2.637   6.864  18.911  0.00  0.00    +0.000 A 
ATOM      4  C   UNL     1       3.804   6.767  18.123  0.00  0.00    +0.000 A 
ATOM      5  C   UNL     1       4.223   5.447  18.192  0.00  0.00    +0.000 A 
ENDROOT
BRANCH   3   6
ATOM      6  C   UNL     1       1.863   8.063  19.213  0.00  0.00    +0.000 A 
ATOM      7  C   UNL     1       1.366   8.271  20.509  0.00  0.00    +0.000 A 
ATOM      8  C   UNL     1       0.607   9.407  20.802  0.00  0.00    +0.000 A 
ATOM      9  C   UNL     1       0.345  10.330  19.798  0.00  0.00    +0.000 A 
ATOM     10  F   UNL     1      -0.400  11.409  20.071  0.00  0.00    +0.000 F 
ATOM     11  C   UNL     1       0.842  10.151  18.510  0.00  0.00    +0.000 A 
ATOM     12  C   UNL     1       1.607   9.021  18.218  0.00  0.00    +0.000 A 
ENDBRANCH   3   6
BRANCH   5  13
ATOM     13  C   UNL     1       5.436   4.842  17.690  0.00  0.00    +0.000 C 
ATOM     14  O   UNL     1       6.183   4.160  18.387  0.00  0.00    +0.000 OA
ATOM     15  N   UNL     1       5.730   5.114  16.370  0.00  0.00    +0.000 N 
ATOM     16  H   UNL     1       5.023   5.523  15.778  0.00  0.00    +0.000 HD
BRANCH  15  17
ATOM     17  C   UNL     1       6.947   4.636  15.743  0.00  0.00    +0.000 C 
BRANCH  17  18
ATOM     18  C   UNL     1       6.909   4.756  14.220  0.00  0.00    +0.000 C 
BRANCH  18  19
ATOM     19  C   UNL     1       5.896   3.795  13.590  0.00  0.00    +0.000 C 
BRANCH  19  20
ATOM     20  C   UNL     1       6.413   3.222  12.270  0.00  0.00    +0.000 C 
BRANCH  20  21
ATOM     21  C   UNL     1       5.265   2.669  11.420  0.00  0.00    +0.000 C 
BRANCH  21  22
ATOM     22  C   UNL     1       4.011   3.522  11.587  0.00  0.00    +0.000 C 
BRANCH  22  23
ATOM     23  S   UNL     1       3.266   3.894   9.974  0.00  0.00    +0.000 S 
ATOM     24  H   UNL     1       4.387   3.759   9.250  0.00  0.00    +0.000 HD
ENDBRANCH  22  23
ENDBRANCH  21  22
ENDBRANCH  20  21
ENDBRANCH  19  20
ENDBRANCH  18  19
ENDBRANCH  17  18
ENDBRANCH  15  17
ENDBRANCH   5  13
BRANCH   1  26
ATOM     25  C   UNL     1       2.559   3.163  20.644  0.00  0.00    +0.000 C 
ATOM     26  C   UNL     1       3.097   3.380  19.229  0.00  0.00    +0.000 C 
ATOM     27  C   UNL     1       2.200   2.600  18.249  0.00  0.00    +0.000 C 
ENDBRANCH   1  26
TORSDOF 10
ENDMDL
MODEL 2
REMARK VINA RESULT:      -6.8      1.247      1.548
REMARK  Name = 
REMARK  12 active torsions:
REMARK  status: ('A' for Active; 'I' for Inactive)
REMARK    1  A    between atoms: C_1  and  C_2
REMARK    2  A    between atoms: C_2  and  C_3
REMARK    3  A    between atoms: C_2  and  N_4
REMARK    4  A    between atoms: C_6  and  C_7
REMARK    5  A    between atoms: C_15  and  C_16
REMARK    6  A    between atoms: N_18  and  C_19
REMARK    7  A    between atoms: C_19  and  C_20
REMARK    8  A    between atoms: C_20  and  C_21
REMARK    9  A    between atoms: C_21  and  C_22
REMARK   10  A    between atoms: C_22  and  C_23
REMARK   11  A    between atoms: C_23  and  C_24
REMARK   12  A    between atoms: C_24  and  S_25
REMARK                            x       y       z     vdW  Elec       q    Type
REMARK                         _______ _______ _______ _____ _____    ______ ____
ROOT
ATOM      1  N   UNL     1       2.804   4.587  19.913  0.00  0.00    +0.000 N 
ATOM      2  N   UNL     1       1.895   5.519  20.280  0.00  0.00    +0.000 NA
ATOM      3  C   UNL     1       2.355   6.677  19.794  0.00  0.00    +0.000 A 
ATOM      4  C   UNL     1       3.593   6.482  19.146  0.00  0.00    +0.000 A 
ATOM      5  C   UNL     1       3.915   5.142  19.295  0.00  0.00    +0.000 A 
ENDROOT
BRANCH   3   6
ATOM      6  C   UNL     1       1.632   7.931  19.976  0.00  0.00    +0.000 A 
ATOM      7  C   UNL     1       1.049   8.233  21.216  0.00  0.00    +0.000 A 
ATOM      8  C   UNL     1       0.338   9.422  21.393  0.00  0.00    +0.000 A 
ATOM      9  C   UNL     1       0.211  10.306  20.329  0.00  0.00    +0.000 A 
ATOM     10  F   UNL     1      -0.488  11.437  20.491  0.00  0.00    +0.000 F 
ATOM     11  C   UNL     1       0.794  10.034  19.096  0.00  0.00    +0.000 A 
ATOM     12  C   UNL     1       1.512   8.849  18.920  0.00  0.00    +0.000 A 
ENDBRANCH   3   6
BRANCH   5  13
ATOM     13  C   UNL     1       5.134   4.447  18.949  0.00  0.00    +0.000 C 
ATOM     14  O   UNL     1       5.482   3.396  19.484  0.00  0.00    +0.000 OA
ATOM     15  N   UNL     1       5.917   5.064  17.996  0.00  0.00    +0.000 N 
ATOM     16  H   UNL     1       5.532   5.822  17.452  0.00  0.00    +0.000 HD
BRANCH  15  17
ATOM     17  C   UNL     1       7.202   4.526  17.595  0.00  0.00    +0.000 C 
BRANCH  17  18
ATOM     18  C   UNL     1       7.366   4.467  16.077  0.00  0.00    +0.000 C 
BRANCH  18  19
ATOM     19  C   UNL     1       6.205   5.145  15.343  0.00  0.00    +0.000 C 
BRANCH  19  20
ATOM     20  C   UNL     1       5.436   4.152  14.472  0.00  0.00    +0.000 C 
BRANCH  20  21
ATOM     21  C   UNL     1       6.203   3.834  13.185  0.00  0.00    +0.000 C 
BRANCH  21  22
ATOM     22  C   UNL     1       5.275   3.217  12.143  0.00  0.00    +0.000 C 
BRANCH  22  23
ATOM     23  S   UNL     1       6.023   1.734  11.412  0.00  0.00    +0.000 S 
ATOM     24  H   UNL     1       7.288   2.179  11.417  0.00  0.00    +0.000 HD
ENDBRANCH  22  23
ENDBRANCH  21  22
ENDBRANCH  20  21
ENDBRANCH  19  20
ENDBRANCH  18  19
ENDBRANCH  17  18
ENDBRANCH  15  17
ENDBRANCH   5  13
BRANCH   1  26
ATOM     25  C   UNL     1       1.689   3.052  21.508  0.00  0.00    +0.000 C 
ATOM     26  C   UNL     1       2.547   3.183  20.248  0.00  0.00    +0.000 C 
ATOM     27  C   UNL     1       1.869   2.384  19.119  0.00  0.00    +0.000 C 
ENDBRANCH   1  26
TORSDOF 10
ENDMDL
MODEL 3
REMARK VINA RESULT:      -6.8      3.363      4.435
REMARK  Name = 
REMARK  12 active torsions:
REMARK  status: ('A' for Active; 'I' for Inactive)
REMARK    1  A    between atoms: C_1  and  C_2
REMARK    2  A    between atoms: C_2  and  C_3
REMARK    3  A    between atoms: C_2  and  N_4
REMARK    4  A    between atoms: C_6  and  C_7
REMARK    5  A    between atoms: C_15  and  C_16
REMARK    6  A    between atoms: N_18  and  C_19
REMARK    7  A    between atoms: C_19  and  C_20
REMARK    8  A    between atoms: C_20  and  C_21
REMARK    9  A    between atoms: C_21  and  C_22
REMARK   10  A    between atoms: C_22  and  C_23
REMARK   11  A    between atoms: C_23  and  C_24
REMARK   12  A    between atoms: C_24  and  S_25
REMARK                            x       y       z     vdW  Elec       q    Type
REMARK                         _______ _______ _______ _____ _____    ______ ____
ROOT
ATOM      1  N   UNL     1       2.313   4.678  19.817  0.00  0.00    +0.000 N 
ATOM      2  N   UNL     1       1.647   5.650  20.480  0.00  0.00    +0.000 NA
ATOM      3  C   UNL     1       2.048   6.799  19.925  0.00  0.00    +0.000 A 
ATOM      4  C   UNL     1       3.012   6.553  18.923  0.00  0.00    +0.000 A 
ATOM      5  C   UNL     1       3.236   5.185  18.913  0.00  0.00    +0.000 A 
ENDROOT
BRANCH   3   6
ATOM      6  C   UNL     1       1.534   8.090  20.368  0.00  0.00    +0.000 A 
ATOM      7  C   UNL     1       1.289   9.108  19.433  0.00  0.00    +0.000 A 
ATOM      8  C   UNL     1       0.816  10.354  19.851  0.00  0.00    +0.000 A 
ATOM      9  C   UNL     1       0.591  10.580  21.203  0.00  0.00    +0.000 A 
ATOM     10  F   UNL     1       0.157  11.781  21.607  0.00  0.00    +0.000 F 
ATOM     11  C   UNL     1       0.812   9.580  22.144  0.00  0.00    +0.000 A 
ATOM     12  C   UNL     1       1.277   8.332  21.727  0.00  0.00    +0.000 A 
ENDBRANCH   3   6
BRANCH   5  13
ATOM     13  C   UNL     1       4.225   4.422  18.186  0.00  0.00    +0.000 C 
ATOM     14  O   UNL     1       4.599   3.304  18.535  0.00  0.00    +0.000 OA
ATOM     15  N   UNL     1       4.762   5.050  17.082  0.00  0.00    +0.000 N 
ATOM     16  H   UNL     1       4.318   5.881  16.719  0.00  0.00    +0.000 HD
BRANCH  15  17
ATOM     17  C   UNL     1       5.814   4.442  16.291  0.00  0.00    +0.000 C 
BRANCH  17  18
ATOM     18  C   UNL     1       7.171   5.109  16.508  0.00  0.00    +0.000 C 
BRANCH  18  19
ATOM     19  C   UNL     1       7.175   6.029  17.733  0.00  0.00    +0.000 C 
BRANCH  19  20
ATOM     20  C   UNL     1       7.467   7.479  17.346  0.00  0.00    +0.000 C 
BRANCH  20  21
ATOM     21  C   UNL     1       8.371   8.157  18.379  0.00  0.00    +0.000 C 
BRANCH  21  22
ATOM     22  C   UNL     1       8.465   9.656  18.113  0.00  0.00    +0.000 C 
BRANCH  22  23
ATOM     23  S   UNL     1       9.367  10.492  19.447  0.00  0.00    +0.000 S 
ATOM     24  H   UNL     1       9.735  11.568  18.736  0.00  0.00    +0.000 HD
ENDBRANCH  22  23
ENDBRANCH  21  22
ENDBRANCH  20  21
ENDBRANCH  19  20
ENDBRANCH  18  19
ENDBRANCH  17  18
ENDBRANCH  15  17
ENDBRANCH   5  13
BRANCH   1  26
ATOM     25  C   UNL     1       1.668   3.119  21.633  0.00  0.00    +0.000 C 
ATOM     26  C   UNL     1       2.038   3.278  20.158  0.00  0.00    +0.000 C 
ATOM     27  C   UNL     1       0.923   2.636  19.311  0.00  0.00    +0.000 C 
ENDBRANCH   1  26
TORSDOF 10
ENDMDL
MODEL 4
REMARK VINA RESULT:      -6.7      1.021      1.446
REMARK  Name = 
REMARK  12 active torsions:
REMARK  status: ('A' for Active; 'I' for Inactive)
REMARK    1  A    between atoms: C_1  and  C_2
REMARK    2  A    between atoms: C_2  and  C_3
REMARK    3  A    between atoms: C_2  and  N_4
REMARK    4  A    between atoms: C_6  and  C_7
REMARK    5  A    between atoms: C_15  and  C_16
REMARK    6  A    between atoms: N_18  and  C_19
REMARK    7  A    between atoms: C_19  and  C_20
REMARK    8  A    between atoms: C_20  and  C_21
REMARK    9  A    between atoms: C_21  and  C_22
REMARK   10  A    between atoms: C_22  and  C_23
REMARK   11  A    between atoms: C_23  and  C_24
REMARK   12  A    between atoms: C_24  and  S_25
REMARK                            x       y       z     vdW  Elec       q    Type
REMARK                         _______ _______ _______ _____ _____    ______ ____
ROOT
ATOM      1  N   UNL     1       3.603   5.103  17.801  0.00  0.00    +0.000 N 
ATOM      2  N   UNL     1       2.599   5.760  18.424  0.00  0.00    +0.000 NA
ATOM      3  C   UNL     1       2.851   7.060  18.234  0.00  0.00    +0.000 A 
ATOM      4  C   UNL     1       4.055   7.228  17.516  0.00  0.00    +0.000 A 
ATOM      5  C   UNL     1       4.575   5.961  17.307  0.00  0.00    +0.000 A 
ENDROOT
BRANCH   3   6
ATOM      6  C   UNL     1       1.971   8.101  18.754  0.00  0.00    +0.000 A 
ATOM      7  C   UNL     1       1.444   9.072  17.890  0.00  0.00    +0.000 A 
ATOM      8  C   UNL     1       0.617  10.084  18.383  0.00  0.00    +0.000 A 
ATOM      9  C   UNL     1       0.320  10.123  19.739  0.00  0.00    +0.000 A 
ATOM     10  F   UNL     1      -0.455  11.105  20.217  0.00  0.00    +0.000 F 
ATOM     11  C   UNL     1       0.820   9.161  20.611  0.00  0.00    +0.000 A 
ATOM     12  C   UNL     1       1.640   8.144  20.119  0.00  0.00    +0.000 A 
ENDBRANCH   3   6
BRANCH   5  13
ATOM     13  C   UNL     1       5.853   5.573  16.755  0.00  0.00    +0.000 C 
ATOM     14  O   UNL     1       6.926   5.850  17.287  0.00  0.00    +0.000 OA
ATOM     15  N   UNL     1       5.797   4.896  15.555  0.00  0.00    +0.000 N 
ATOM     16  H   UNL     1       4.914   4.530  15.231  0.00  0.00    +0.000 HD
BRANCH  15  17
ATOM     17  C   UNL     1       6.997   4.502  14.842  0.00  0.00    +0.000 C 
BRANCH  17  18
ATOM     18  C   UNL     1       6.936   4.848  13.355  0.00  0.00    +0.000 C 
BRANCH  18  19
ATOM     19  C   UNL     1       6.563   3.637  12.494  0.00  0.00    +0.000 C 
BRANCH  19  20
ATOM     20  C   UNL     1       5.049   3.432  12.441  0.00  0.00    +0.000 C 
BRANCH  20  21
ATOM     21  C   UNL     1       4.611   2.891  11.076  0.00  0.00    +0.000 C 
BRANCH  21  22
ATOM     22  C   UNL     1       3.134   3.185  10.829  0.00  0.00    +0.000 C 
BRANCH  22  23
ATOM     23  S   UNL     1       2.930   4.322   9.429  0.00  0.00    +0.000 S 
ATOM     24  H   UNL     1       2.575   3.396   8.526  0.00  0.00    +0.000 HD
ENDBRANCH  22  23
ENDBRANCH  21  22
ENDBRANCH  20  21
ENDBRANCH  19  20
ENDBRANCH  18  19
ENDBRANCH  17  18
ENDBRANCH  15  17
ENDBRANCH   5  13
BRANCH   1  26
ATOM     25  C   UNL     1       4.296   3.039  18.985  0.00  0.00    +0.000 C 
ATOM     26  C   UNL     1       3.575   3.637  17.776  0.00  0.00    +0.000 C 
ATOM     27  C   UNL     1       2.157   3.039  17.718  0.00  0.00    +0.000 C 
ENDBRANCH   1  26
TORSDOF 10
ENDMDL
MODEL 5
REMARK VINA RESULT:      -6.7      3.563      4.738
REMARK  Name = 
REMARK  12 active torsions:
REMARK  status: ('A' for Active; 'I' for Inactive)
REMARK    1  A    between atoms: C_1  and  C_2
REMARK    2  A    between atoms: C_2  and  C_3
REMARK    3  A    between atoms: C_2  and  N_4
REMARK    4  A    between atoms: C_6  and  C_7
REMARK    5  A    between atoms: C_15  and  C_16
REMARK    6  A    between atoms: N_18  and  C_19
REMARK    7  A    between atoms: C_19  and  C_20
REMARK    8  A    between atoms: C_20  and  C_21
REMARK    9  A    between atoms: C_21  and  C_22
REMARK   10  A    between atoms: C_22  and  C_23
REMARK   11  A    between atoms: C_23  and  C_24
REMARK   12  A    between atoms: C_24  and  S_25
REMARK                            x       y       z     vdW  Elec       q    Type
REMARK                         _______ _______ _______ _____ _____    ______ ____
ROOT
ATOM      1  N   UNL     1       6.142   5.310  17.802  0.00  0.00    +0.000 N 
ATOM      2  N   UNL     1       5.477   4.989  18.935  0.00  0.00    +0.000 NA
ATOM      3  C   UNL     1       4.374   4.349  18.532  0.00  0.00    +0.000 A 
ATOM      4  C   UNL     1       4.320   4.300  17.122  0.00  0.00    +0.000 A 
ATOM      5  C   UNL     1       5.427   4.992  16.657  0.00  0.00    +0.000 A 
ENDROOT
BRANCH   3   6
ATOM      6  C   UNL     1       3.395   3.828  19.479  0.00  0.00    +0.000 A 
ATOM      7  C   UNL     1       2.924   4.640  20.522  0.00  0.00    +0.000 A 
ATOM      8  C   UNL     1       2.002   4.143  21.446  0.00  0.00    +0.000 A 
ATOM      9  C   UNL     1       1.554   2.834  21.326  0.00  0.00    +0.000 A 
ATOM     10  F   UNL     1       0.686   2.348  22.222  0.00  0.00    +0.000 F 
ATOM     11  C   UNL     1       1.995   2.016  20.290  0.00  0.00    +0.000 A 
ATOM     12  C   UNL     1       2.911   2.514  19.361  0.00  0.00    +0.000 A 
ENDBRANCH   3   6
BRANCH   5  13
ATOM     13  C   UNL     1       5.774   5.366  15.304  0.00  0.00    +0.000 C 
ATOM     14  O   UNL     1       5.506   6.464  14.823  0.00  0.00    +0.000 OA
ATOM     15  N   UNL     1       6.398   4.385  14.562  0.00  0.00    +0.000 N 
ATOM     16  H   UNL     1       6.761   3.566  15.026  0.00  0.00    +0.000 HD
BRANCH  15  17
ATOM     17  C   UNL     1       6.745   4.585  13.168  0.00  0.00    +0.000 C 
BRANCH  17  18
ATOM     18  C   UNL     1       6.849   3.272  12.394  0.00  0.00    +0.000 C 
BRANCH  18  19
ATOM     19  C   UNL     1       5.957   3.262  11.149  0.00  0.00    +0.000 C 
BRANCH  19  20
ATOM     20  C   UNL     1       4.522   2.861  11.490  0.00  0.00    +0.000 C 
BRANCH  20  21
ATOM     21  C   UNL     1       3.523   3.923  11.019  0.00  0.00    +0.000 C 
BRANCH  21  22
ATOM     22  C   UNL     1       2.990   3.583   9.630  0.00  0.00    +0.000 C 
BRANCH  22  23
ATOM     23  S   UNL     1       2.327   5.063   8.815  0.00  0.00    +0.000 S 
ATOM     24  H   UNL     1       2.671   4.720   7.565  0.00  0.00    +0.000 HD
ENDBRANCH  22  23
ENDBRANCH  21  22
ENDBRANCH  20  21
ENDBRANCH  19  20
ENDBRANCH  18  19
ENDBRANCH  17  18
ENDBRANCH  15  17
ENDBRANCH   5  13
BRANCH   1  26
ATOM     25  C   UNL     1       7.355   7.456  17.547  0.00  0.00    +0.000 C 
ATOM     26  C   UNL     1       7.444   5.975  17.916  0.00  0.00    +0.000 C 
ATOM     27  C   UNL     1       8.084   5.864  19.312  0.00  0.00    +0.000 C 
ENDBRANCH   1  26
TORSDOF 10
ENDMDL
MODEL 6
REMARK VINA RESULT:      -6.7      4.033      5.236
REMARK  Name = 
REMARK  12 active torsions:
REMARK  status: ('A' for Active; 'I' for Inactive)
REMARK    1  A    between atoms: C_1  and  C_2
REMARK    2  A    between atoms: C_2  and  C_3
REMARK    3  A    between atoms: C_2  and  N_4
REMARK    4  A    between atoms: C_6  and  C_7
REMARK    5  A    between atoms: C_15  and  C_16
REMARK    6  A    between atoms: N_18  and  C_19
REMARK    7  A    between atoms: C_19  and  C_20
REMARK    8  A    between atoms: C_20  and  C_21
REMARK    9  A    between atoms: C_21  and  C_22
REMARK   10  A    between atoms: C_22  and  C_23
REMARK   11  A    between atoms: C_23  and  C_24
REMARK   12  A    between atoms: C_24  and  S_25
REMARK                            x       y       z     vdW  Elec       q    Type
REMARK                         _______ _______ _______ _____ _____    ______ ____
ROOT
ATOM      1  N   UNL     1       2.422   5.638  19.841  0.00  0.00    +0.000 N 
ATOM      2  N   UNL     1       1.667   6.367  20.695  0.00  0.00    +0.000 NA
ATOM      3  C   UNL     1       1.661   7.607  20.194  0.00  0.00    +0.000 A 
ATOM      4  C   UNL     1       2.457   7.673  19.030  0.00  0.00    +0.000 A 
ATOM      5  C   UNL     1       3.008   6.414  18.852  0.00  0.00    +0.000 A 
ENDROOT
BRANCH   3   6
ATOM      6  C   UNL     1       0.931   8.694  20.837  0.00  0.00    +0.000 A 
ATOM      7  C   UNL     1       0.871   8.769  22.237  0.00  0.00    +0.000 A 
ATOM      8  C   UNL     1       0.159   9.796  22.862  0.00  0.00    +0.000 A 
ATOM      9  C   UNL     1      -0.495  10.744  22.084  0.00  0.00    +0.000 A 
ATOM     10  F   UNL     1      -1.196  11.716  22.680  0.00  0.00    +0.000 F 
ATOM     11  C   UNL     1      -0.435  10.697  20.695  0.00  0.00    +0.000 A 
ATOM     12  C   UNL     1       0.284   9.677  20.070  0.00  0.00    +0.000 A 
ENDBRANCH   3   6
BRANCH   5  13
ATOM     13  C   UNL     1       4.007   5.975  17.904  0.00  0.00    +0.000 C 
ATOM     14  O   UNL     1       3.772   5.165  17.010  0.00  0.00    +0.000 OA
ATOM     15  N   UNL     1       5.269   6.498  18.089  0.00  0.00    +0.000 N 
ATOM     16  H   UNL     1       5.395   7.284  18.710  0.00  0.00    +0.000 HD
BRANCH  15  17
ATOM     17  C   UNL     1       6.391   6.101  17.262  0.00  0.00    +0.000 C 
BRANCH  17  18
ATOM     18  C   UNL     1       7.697   6.775  17.681  0.00  0.00    +0.000 C 
BRANCH  18  19
ATOM     19  C   UNL     1       7.599   8.303  17.636  0.00  0.00    +0.000 C 
BRANCH  19  20
ATOM     20  C   UNL     1       8.613   8.958  18.574  0.00  0.00    +0.000 C 
BRANCH  20  21
ATOM     21  C   UNL     1       8.892  10.407  18.162  0.00  0.00    +0.000 C 
BRANCH  21  22
ATOM     22  C   UNL     1       9.424  11.210  19.346  0.00  0.00    +0.000 C 
BRANCH  22  23
ATOM     23  S   UNL     1      11.200  11.535  19.156  0.00  0.00    +0.000 S 
ATOM     24  H   UNL     1      11.483  11.623  20.464  0.00  0.00    +0.000 HD
ENDBRANCH  22  23
ENDBRANCH  21  22
ENDBRANCH  20  21
ENDBRANCH  19  20
ENDBRANCH  18  19
ENDBRANCH  17  18
ENDBRANCH  15  17
ENDBRANCH   5  13
BRANCH   1  26
ATOM     25  C   UNL     1       2.321   3.849  21.554  0.00  0.00    +0.000 C 
ATOM     26  C   UNL     1       2.570   4.200  20.086  0.00  0.00    +0.000 C 
ATOM     27  C   UNL     1       1.651   3.319  19.219  0.00  0.00    +0.000 C 
ENDBRANCH   1  26
TORSDOF 10
ENDMDL
MODEL 7
REMARK VINA RESULT:      -6.6      1.488      1.692
REMARK  Name = 
REMARK  12 active torsions:
REMARK  status: ('A' for Active; 'I' for Inactive)
REMARK    1  A    between atoms: C_1  and  C_2
REMARK    2  A    between atoms: C_2  and  C_3
REMARK    3  A    between atoms: C_2  and  N_4
REMARK    4  A    between atoms: C_6  and  C_7
REMARK    5  A    between atoms: C_15  and  C_16
REMARK    6  A    between atoms: N_18  and  C_19
REMARK    7  A    between atoms: C_19  and  C_20
REMARK    8  A    between atoms: C_20  and  C_21
REMARK    9  A    between atoms: C_21  and  C_22
REMARK   10  A    between atoms: C_22  and  C_23
REMARK   11  A    between atoms: C_23  and  C_24
REMARK   12  A    between atoms: C_24  and  S_25
REMARK                            x       y       z     vdW  Elec       q    Type
REMARK                         _______ _______ _______ _____ _____    ______ ____
ROOT
ATOM      1  N   UNL     1       2.413   4.856  19.665  0.00  0.00    +0.000 N 
ATOM      2  N   UNL     1       1.829   5.808  20.426  0.00  0.00    +0.000 NA
ATOM      3  C   UNL     1       2.008   6.955  19.761  0.00  0.00    +0.000 A 
ATOM      4  C   UNL     1       2.753   6.731  18.583  0.00  0.00    +0.000 A 
ATOM      5  C   UNL     1       3.079   5.384  18.568  0.00  0.00    +0.000 A 
ENDROOT
BRANCH   3   6
ATOM      6  C   UNL     1       1.499   8.226  20.264  0.00  0.00    +0.000 A 
ATOM      7  C   UNL     1       1.234   8.385  21.633  0.00  0.00    +0.000 A 
ATOM      8  C   UNL     1       0.728   9.592  22.121  0.00  0.00    +0.000 A 
ATOM      9  C   UNL     1       0.484  10.636  21.239  0.00  0.00    +0.000 A 
ATOM     10  F   UNL     1      -0.021  11.787  21.701  0.00  0.00    +0.000 F 
ATOM     11  C   UNL     1       0.754  10.505  19.880  0.00  0.00    +0.000 A 
ATOM     12  C   UNL     1       1.268   9.303  19.392  0.00  0.00    +0.000 A 
ENDBRANCH   3   6
BRANCH   5  13
ATOM     13  C   UNL     1       3.948   4.660  17.668  0.00  0.00    +0.000 C 
ATOM     14  O   UNL     1       3.596   3.649  17.065  0.00  0.00    +0.000 OA
ATOM     15  N   UNL     1       5.229   5.158  17.555  0.00  0.00    +0.000 N 
ATOM     16  H   UNL     1       5.439   6.077  17.917  0.00  0.00    +0.000 HD
BRANCH  15  17
ATOM     17  C   UNL     1       6.237   4.502  16.746  0.00  0.00    +0.000 C 
BRANCH  17  18
ATOM     18  C   UNL     1       6.634   5.325  15.521  0.00  0.00    +0.000 C 
BRANCH  18  19
ATOM     19  C   UNL     1       7.022   4.442  14.332  0.00  0.00    +0.000 C 
BRANCH  19  20
ATOM     20  C   UNL     1       5.792   3.823  13.667  0.00  0.00    +0.000 C 
BRANCH  20  21
ATOM     21  C   UNL     1       5.981   3.708  12.151  0.00  0.00    +0.000 C 
BRANCH  21  22
ATOM     22  C   UNL     1       5.411   2.390  11.636  0.00  0.00    +0.000 C 
BRANCH  22  23
ATOM     23  S   UNL     1       6.744   1.251  11.168  0.00  0.00    +0.000 S 
ATOM     24  H   UNL     1       5.981   0.154  11.057  0.00  0.00    +0.000 HD
ENDBRANCH  22  23
ENDBRANCH  21  22
ENDBRANCH  20  21
ENDBRANCH  19  20
ENDBRANCH  18  19
ENDBRANCH  17  18
ENDBRANCH  15  17
ENDBRANCH   5  13
BRANCH   1  26
ATOM     25  C   UNL     1       2.220   3.347  21.622  0.00  0.00    +0.000 C 
ATOM     26  C   UNL     1       2.330   3.458  20.100  0.00  0.00    +0.000 C 
ATOM     27  C   UNL     1       1.159   2.677  19.476  0.00  0.00    +0.000 C 
ENDBRANCH   1  26
TORSDOF 10
ENDMDL
MODEL 8
REMARK VINA RESULT:      -6.6      1.699      2.372
REMARK  Name = 
REMARK  12 active torsions:
REMARK  status: ('A' for Active; 'I' for Inactive)
REMARK    1  A    between atoms: C_1  and  C_2
REMARK    2  A    between atoms: C_2  and  C_3
REMARK    3  A    between atoms: C_2  and  N_4
REMARK    4  A    between atoms: C_6  and  C_7
REMARK    5  A    between atoms: C_15  and  C_16
REMARK    6  A    between atoms: N_18  and  C_19
REMARK    7  A    between atoms: C_19  and  C_20
REMARK    8  A    between atoms: C_20  and  C_21
REMARK    9  A    between atoms: C_21  and  C_22
REMARK   10  A    between atoms: C_22  and  C_23
REMARK   11  A    between atoms: C_23  and  C_24
REMARK   12  A    between atoms: C_24  and  S_25
REMARK                            x       y       z     vdW  Elec       q    Type
REMARK                         _______ _______ _______ _____ _____    ______ ____
ROOT
ATOM      1  N   UNL     1       2.195   5.371  20.077  0.00  0.00    +0.000 N 
ATOM      2  N   UNL     1       1.439   6.199  20.832  0.00  0.00    +0.000 NA
ATOM      3  C   UNL     1       1.668   7.427  20.353  0.00  0.00    +0.000 A 
ATOM      4  C   UNL     1       2.615   7.379  19.306  0.00  0.00    +0.000 A 
ATOM      5  C   UNL     1       3.010   6.055  19.186  0.00  0.00    +0.000 A 
ENDROOT
BRANCH   3   6
ATOM      6  C   UNL     1       1.014   8.606  20.907  0.00  0.00    +0.000 A 
ATOM      7  C   UNL     1       0.703   8.660  22.275  0.00  0.00    +0.000 A 
ATOM      8  C   UNL     1       0.058   9.777  22.811  0.00  0.00    +0.000 A 
ATOM      9  C   UNL     1      -0.276  10.837  21.978  0.00  0.00    +0.000 A 
ATOM     10  F   UNL     1      -0.913  11.900  22.486  0.00  0.00    +0.000 F 
ATOM     11  C   UNL     1       0.037  10.811  20.623  0.00  0.00    +0.000 A 
ATOM     12  C   UNL     1       0.689   9.699  20.087  0.00  0.00    +0.000 A 
ENDBRANCH   3   6
BRANCH   5  13
ATOM     13  C   UNL     1       4.057   5.480  18.373  0.00  0.00    +0.000 C 
ATOM     14  O   UNL     1       3.834   4.797  17.376  0.00  0.00    +0.000 OA
ATOM     15  N   UNL     1       5.343   5.714  18.814  0.00  0.00    +0.000 N 
ATOM     16  H   UNL     1       5.506   6.414  19.522  0.00  0.00    +0.000 HD
BRANCH  15  17
ATOM     17  C   UNL     1       6.496   5.145  18.145  0.00  0.00    +0.000 C 
BRANCH  17  18
ATOM     18  C   UNL     1       7.107   6.097  17.117  0.00  0.00    +0.000 C 
BRANCH  18  19
ATOM     19  C   UNL     1       7.124   5.494  15.709  0.00  0.00    +0.000 C 
BRANCH  19  20
ATOM     20  C   UNL     1       6.659   4.037  15.716  0.00  0.00    +0.000 C 
BRANCH  20  21
ATOM     21  C   UNL     1       5.680   3.763  14.570  0.00  0.00    +0.000 C 
BRANCH  21  22
ATOM     22  C   UNL     1       6.382   3.884  13.221  0.00  0.00    +0.000 C 
BRANCH  22  23
ATOM     23  S   UNL     1       5.374   3.149  11.903  0.00  0.00    +0.000 S 
ATOM     24  H   UNL     1       4.380   2.714  12.691  0.00  0.00    +0.000 HD
ENDBRANCH  22  23
ENDBRANCH  21  22
ENDBRANCH  20  21
ENDBRANCH  19  20
ENDBRANCH  18  19
ENDBRANCH  17  18
ENDBRANCH  15  17
ENDBRANCH   5  13
BRANCH   1  26
ATOM     25  C   UNL     1       2.207   3.599  21.811  0.00  0.00    +0.000 C 
ATOM     26  C   UNL     1       2.113   3.927  20.320  0.00  0.00    +0.000 C 
ATOM     27  C   UNL     1       0.836   3.271  19.763  0.00  0.00    +0.000 C 
ENDBRANCH   1  26
TORSDOF 10
ENDMDL
MODEL 9
REMARK VINA RESULT:      -6.5      4.174      7.795
REMARK  Name = 
REMARK  12 active torsions:
REMARK  status: ('A' for Active; 'I' for Inactive)
REMARK    1  A    between atoms: C_1  and  C_2
REMARK    2  A    between atoms: C_2  and  C_3
REMARK    3  A    between atoms: C_2  and  N_4
REMARK    4  A    between atoms: C_6  and  C_7
REMARK    5  A    between atoms: C_15  and  C_16
REMARK    6  A    between atoms: N_18  and  C_19
REMARK    7  A    between atoms: C_19  and  C_20
REMARK    8  A    between atoms: C_20  and  C_21
REMARK    9  A    between atoms: C_21  and  C_22
REMARK   10  A    between atoms: C_22  and  C_23
REMARK   11  A    between atoms: C_23  and  C_24
REMARK   12  A    between atoms: C_24  and  S_25
REMARK                            x       y       z     vdW  Elec       q    Type
REMARK                         _______ _______ _______ _____ _____    ______ ____
ROOT
ATOM      1  N   UNL     1       2.145   5.013  19.352  0.00  0.00    +0.000 N 
ATOM      2  N   UNL     1       2.832   4.427  18.346  0.00  0.00    +0.000 NA
ATOM      3  C   UNL     1       3.633   5.380  17.858  0.00  0.00    +0.000 A 
ATOM      4  C   UNL     1       3.420   6.598  18.539  0.00  0.00    +0.000 A 
ATOM      5  C   UNL     1       2.401   6.373  19.451  0.00  0.00    +0.000 A 
ENDROOT
BRANCH   3   6
ATOM      6  C   UNL     1       4.552   5.126  16.755  0.00  0.00    +0.000 A 
ATOM      7  C   UNL     1       5.062   6.195  16.003  0.00  0.00    +0.000 A 
ATOM      8  C   UNL     1       5.926   5.960  14.931  0.00  0.00    +0.000 A 
ATOM      9  C   UNL     1       6.278   4.654  14.613  0.00  0.00    +0.000 A 
ATOM     10  F   UNL     1       7.090   4.424  13.574  0.00  0.00    +0.000 F 
ATOM     11  C   UNL     1       5.798   3.580  15.355  0.00  0.00    +0.000 A 
ATOM     12  C   UNL     1       4.940   3.815  16.432  0.00  0.00    +0.000 A 
ENDBRANCH   3   6
BRANCH   5  13
ATOM     13  C   UNL     1       1.699   7.314  20.294  0.00  0.00    +0.000 C 
ATOM     14  O   UNL     1       1.171   6.996  21.357  0.00  0.00    +0.000 OA
ATOM     15  N   UNL     1       1.622   8.602  19.807  0.00  0.00    +0.000 N 
ATOM     16  H   UNL     1       2.206   8.874  19.030  0.00  0.00    +0.000 HD
BRANCH  15  17
ATOM     17  C   UNL     1       0.892   9.641  20.504  0.00  0.00    +0.000 C 
BRANCH  17  18
ATOM     18  C   UNL     1      -0.495   9.884  19.910  0.00  0.00    +0.000 C 
BRANCH  18  19
ATOM     19  C   UNL     1      -0.425  10.417  18.476  0.00  0.00    +0.000 C 
BRANCH  19  20
ATOM     20  C   UNL     1      -1.817  10.714  17.919  0.00  0.00    +0.000 C 
BRANCH  20  21
ATOM     21  C   UNL     1      -2.166   9.766  16.768  0.00  0.00    +0.000 C 
BRANCH  21  22
ATOM     22  C   UNL     1      -3.309  10.333  15.931  0.00  0.00    +0.000 C 
BRANCH  22  23
ATOM     23  S   UNL     1      -4.324  11.472  16.914  0.00  0.00    +0.000 S 
ATOM     24  H   UNL     1      -4.044  12.578  16.210  0.00  0.00    +0.000 HD
ENDBRANCH  22  23
ENDBRANCH  21  22
ENDBRANCH  20  21
ENDBRANCH  19  20
ENDBRANCH  18  19
ENDBRANCH  17  18
ENDBRANCH  15  17
ENDBRANCH   5  13
BRANCH   1  26
ATOM     25  C   UNL     1       0.660   3.028  19.320  0.00  0.00    +0.000 C 
ATOM     26  C   UNL     1       1.215   4.196  20.138  0.00  0.00    +0.000 C 
ATOM     27  C   UNL     1       1.822   3.629  21.435  0.00  0.00    +0.000 C 
ENDBRANCH   1  26
TORSDOF 10
ENDMDL
