MODEL 1
REMARK VINA RESULT:      -7.2      0.000      0.000
REMARK  Name = 
REMARK  7 active torsions:
REMARK  status: ('A' for Active; 'I' for Inactive)
REMARK    1  A    between atoms: C_1  and  C_2
REMARK    2  A    between atoms: C_5  and  C_6
REMARK    3  A    between atoms: C_6  and  N_7
REMARK    4  A    between atoms: N_10  and  C_11
REMARK    5  A    between atoms: C_11  and  C_12
REMARK    6  A    between atoms: C_18  and  O_19
REMARK    7  A    between atoms: O_19  and  C_20
REMARK                            x       y       z     vdW  Elec       q    Type
REMARK                         _______ _______ _______ _____ _____    ______ ____
ROOT
ATOM      1  N   UNL     1       6.724   4.305  17.133  0.00  0.00    +0.000 N 
ATOM      2  C   UNL     1       5.798   4.495  18.121  0.00  0.00    +0.000 C 
ATOM      3  O   UNL     1       5.233   5.560  18.324  0.00  0.00    +0.000 OA
ATOM      4  N   UNL     1       5.616   3.387  18.899  0.00  0.00    +0.000 N 
ATOM      5  H   UNL     1       6.954   3.356  16.871  0.00  0.00    +0.000 HD
ATOM      6  H   UNL     1       5.987   2.498  18.593  0.00  0.00    +0.000 HD
ENDROOT
BRANCH   1   7
ATOM      7  C   UNL     1       6.992   5.354  16.179  0.00  0.00    +0.000 C 
BRANCH   7  12
ATOM      8  C   UNL     1       5.395   2.890  11.753  0.00  0.00    +0.000 C 
ATOM      9  C   UNL     1       6.113   3.704  12.770  0.00  0.00    +0.000 A 
ATOM     10  N   UNL     1       7.176   4.437  12.521  0.00  0.00    +0.000 NA
ATOM     11  C   UNL     1       7.586   5.070  13.677  0.00  0.00    +0.000 A 
ATOM     12  C   UNL     1       6.829   4.812  14.803  0.00  0.00    +0.000 A 
ATOM     13  S   UNL     1       5.561   3.732  14.399  0.00  0.00    +0.000 S 
ENDBRANCH   7  12
ENDBRANCH   1   7
BRANCH   4  14
ATOM     14  C   UNL     1       4.713   3.430  20.025  0.00  0.00    +0.000 C 
BRANCH  14  15
ATOM     15  C   UNL     1       3.248   3.172  19.755  0.00  0.00    +0.000 A 
ATOM     16  C   UNL     1       2.841   2.059  18.988  0.00  0.00    +0.000 A 
ATOM     17  F   UNL     1       3.748   1.195  18.506  0.00  0.00    +0.000 F 
ATOM     18  C   UNL     1       1.508   1.813  18.660  0.00  0.00    +0.000 A 
ATOM     19  C   UNL     1       0.522   2.684  19.092  0.00  0.00    +0.000 A 
ATOM     20  C   UNL     1       0.887   3.794  19.847  0.00  0.00    +0.000 A 
ATOM     21  C   UNL     1       2.230   4.046  20.192  0.00  0.00    +0.000 A 
BRANCH  21  22
ATOM     22  O   UNL     1       2.354   5.244  20.840  0.00  0.00    +0.000 OA
BRANCH  22  23
ATOM     23  C   UNL     1       1.835   6.422  20.253  0.00  0.00    +0.000 C 
ATOM     24  F   UNL     1       1.418   7.234  21.253  0.00  0.00    +0.000 F 
ATOM     25  F   UNL     1       2.873   7.057  19.651  0.00  0.00    +0.000 F 
ENDBRANCH  22  23
ENDBRANCH  21  22
ENDBRANCH  14  15
ENDBRANCH   4  14
TORSDOF 6
ENDMDL
MODEL 2
REMARK VINA RESULT:      -7.2      1.386      1.525
REMARK  Name = 
REMARK  7 active torsions:
REMARK  status: ('A' for Active; 'I' for Inactive)
REMARK    1  A    between atoms: C_1  and  C_2
REMARK    2  A    between atoms: C_5  and  C_6
REMARK    3  A    between atoms: C_6  and  N_7
REMARK    4  A    between atoms: N_10  and  C_11
REMARK    5  A    between atoms: C_11  and  C_12
REMARK    6  A    between atoms: C_18  and  O_19
REMARK    7  A    between atoms: O_19  and  C_20
REMARK                            x       y       z     vdW  Elec       q    Type
REMARK                         _______ _______ _______ _____ _____    ______ ____
ROOT
ATOM      1  N   UNL     1       6.881   4.216  16.586  0.00  0.00    +0.000 N 
ATOM      2  C   UNL     1       6.193   4.734  17.649  0.00  0.00    +0.000 C 
ATOM      3  O   UNL     1       6.069   5.931  17.857  0.00  0.00    +0.000 OA
ATOM      4  N   UNL     1       5.712   3.769  18.489  0.00  0.00    +0.000 N 
ATOM      5  H   UNL     1       6.730   3.246  16.345  0.00  0.00    +0.000 HD
ATOM      6  H   UNL     1       5.708   2.805  18.189  0.00  0.00    +0.000 HD
ENDROOT
BRANCH   1   7
ATOM      7  C   UNL     1       7.403   5.093  15.565  0.00  0.00    +0.000 C 
BRANCH   7  12
ATOM      8  C   UNL     1       4.827   2.974  11.431  0.00  0.00    +0.000 C 
ATOM      9  C   UNL     1       5.803   3.646  12.330  0.00  0.00    +0.000 A 
ATOM     10  N   UNL     1       6.931   4.192  11.929  0.00  0.00    +0.000 NA
ATOM     11  C   UNL     1       7.595   4.737  13.010  0.00  0.00    +0.000 A 
ATOM     12  C   UNL     1       6.966   4.599  14.231  0.00  0.00    +0.000 A 
ATOM     13  S   UNL     1       5.492   3.751  14.018  0.00  0.00    +0.000 S 
ENDBRANCH   7  12
ENDBRANCH   1   7
BRANCH   4  14
ATOM     14  C   UNL     1       5.007   4.142  19.693  0.00  0.00    +0.000 C 
BRANCH  14  15
ATOM     15  C   UNL     1       3.523   3.860  19.748  0.00  0.00    +0.000 A 
ATOM     16  C   UNL     1       3.010   2.857  20.598  0.00  0.00    +0.000 A 
ATOM     17  F   UNL     1       3.830   2.150  21.392  0.00  0.00    +0.000 F 
ATOM     18  C   UNL     1       1.657   2.518  20.638  0.00  0.00    +0.000 A 
ATOM     19  C   UNL     1       0.759   3.179  19.819  0.00  0.00    +0.000 A 
ATOM     20  C   UNL     1       1.229   4.172  18.966  0.00  0.00    +0.000 A 
ATOM     21  C   UNL     1       2.592   4.529  18.924  0.00  0.00    +0.000 A 
BRANCH  21  22
ATOM     22  O   UNL     1       2.830   5.446  17.939  0.00  0.00    +0.000 OA
BRANCH  22  23
ATOM     23  C   UNL     1       2.832   6.827  18.243  0.00  0.00    +0.000 C 
ATOM     24  F   UNL     1       1.698   7.365  17.735  0.00  0.00    +0.000 F 
ATOM     25  F   UNL     1       2.736   6.938  19.593  0.00  0.00    +0.000 F 
ENDBRANCH  22  23
ENDBRANCH  21  22
ENDBRANCH  14  15
ENDBRANCH   4  14
TORSDOF 6
ENDMDL
MODEL 3
REMARK VINA RESULT:      -7.2      4.839      7.776
REMARK  Name = 
REMARK  7 active torsions:
REMARK  status: ('A' for Active; 'I' for Inactive)
REMARK    1  A    between atoms: C_1  and  C_2
REMARK    2  A    between atoms: C_5  and  C_6
REMARK    3  A    between atoms: C_6  and  N_7
REMARK    4  A    between atoms: N_10  and  C_11
REMARK    5  A    between atoms: C_11  and  C_12
REMARK    6  A    between atoms: C_18  and  O_19
REMARK    7  A    between atoms: O_19  and  C_20
REMARK                            x       y       z     vdW  Elec       q    Type
REMARK                         _______ _______ _______ _____ _____    ______ ____
ROOT
ATOM      1  N   UNL     1       1.430   8.094  20.414  0.00  0.00    +0.000 N 
ATOM      2  C   UNL     1       2.377   7.485  19.637  0.00  0.00    +0.000 C 
ATOM      3  O   UNL     1       2.644   7.834  18.497  0.00  0.00    +0.000 OA
ATOM      4  N   UNL     1       2.949   6.404  20.247  0.00  0.00    +0.000 N 
ATOM      5  H   UNL     1       1.442   7.917  21.409  0.00  0.00    +0.000 HD
ATOM      6  H   UNL     1       2.805   6.258  21.236  0.00  0.00    +0.000 HD
ENDROOT
BRANCH   1   7
ATOM      7  C   UNL     1       0.771   9.290  19.949  0.00  0.00    +0.000 C 
BRANCH   7  12
ATOM      8  C   UNL     1      -1.745  12.621  23.233  0.00  0.00    +0.000 C 
ATOM      9  C   UNL     1      -0.953  11.516  22.631  0.00  0.00    +0.000 A 
ATOM     10  N   UNL     1      -0.410  10.532  23.314  0.00  0.00    +0.000 NA
ATOM     11  C   UNL     1       0.245   9.673  22.452  0.00  0.00    +0.000 A 
ATOM     12  C   UNL     1       0.195  10.013  21.115  0.00  0.00    +0.000 A 
ATOM     13  S   UNL     1      -0.698  11.464  20.931  0.00  0.00    +0.000 S 
ENDBRANCH   7  12
ENDBRANCH   1   7
BRANCH   4  14
ATOM     14  C   UNL     1       3.931   5.611  19.546  0.00  0.00    +0.000 C 
BRANCH  14  15
ATOM     15  C   UNL     1       3.466   4.311  18.929  0.00  0.00    +0.000 A 
ATOM     16  C   UNL     1       3.361   4.175  17.528  0.00  0.00    +0.000 A 
ATOM     17  F   UNL     1       3.695   5.190  16.717  0.00  0.00    +0.000 F 
ATOM     18  C   UNL     1       2.879   3.018  16.915  0.00  0.00    +0.000 A 
ATOM     19  C   UNL     1       2.479   1.944  17.692  0.00  0.00    +0.000 A 
ATOM     20  C   UNL     1       2.566   2.044  19.076  0.00  0.00    +0.000 A 
ATOM     21  C   UNL     1       3.061   3.204  19.705  0.00  0.00    +0.000 A 
BRANCH  21  22
ATOM     22  O   UNL     1       2.950   3.111  21.065  0.00  0.00    +0.000 OA
BRANCH  22  23
ATOM     23  C   UNL     1       1.712   3.382  21.694  0.00  0.00    +0.000 C 
ATOM     24  F   UNL     1       0.884   3.916  20.766  0.00  0.00    +0.000 F 
ATOM     25  F   UNL     1       1.174   2.187  22.046  0.00  0.00    +0.000 F 
ENDBRANCH  22  23
ENDBRANCH  21  22
ENDBRANCH  14  15
ENDBRANCH   4  14
TORSDOF 6
ENDMDL
MODEL 4
REMARK VINA RESULT:      -7.1      4.305      7.765
REMARK  Name = 
REMARK  7 active torsions:
REMARK  status: ('A' for Active; 'I' for Inactive)
REMARK    1  A    between atoms: C_1  and  C_2
REMARK    2  A    between atoms: C_5  and  C_6
REMARK    3  A    between atoms: C_6  and  N_7
REMARK    4  A    between atoms: N_10  and  C_11
REMARK    5  A    between atoms: C_11  and  C_12
REMARK    6  A    between atoms: C_18  and  O_19
REMARK    7  A    between atoms: O_19  and  C_20
REMARK                            x       y       z     vdW  Elec       q    Type
REMARK                         _______ _______ _______ _____ _____    ______ ____
ROOT
ATOM      1  N   UNL     1       2.485   7.462  20.096  0.00  0.00    +0.000 N 
ATOM      2  C   UNL     1       2.850   6.396  19.321  0.00  0.00    +0.000 C 
ATOM      3  O   UNL     1       2.268   6.073  18.297  0.00  0.00    +0.000 OA
ATOM      4  N   UNL     1       3.897   5.692  19.847  0.00  0.00    +0.000 N 
ATOM      5  H   UNL     1       3.150   7.812  20.772  0.00  0.00    +0.000 HD
ATOM      6  H   UNL     1       4.434   6.090  20.605  0.00  0.00    +0.000 HD
ENDROOT
BRANCH   1   7
ATOM      7  C   UNL     1       1.438   8.352  19.656  0.00  0.00    +0.000 C 
BRANCH   7  12
ATOM      8  C   UNL     1      -1.221  11.506  23.003  0.00  0.00    +0.000 C 
ATOM      9  C   UNL     1      -0.296  10.525  22.375  0.00  0.00    +0.000 A 
ATOM     10  N   UNL     1       0.581   9.801  23.037  0.00  0.00    +0.000 NA
ATOM     11  C   UNL     1       1.269   8.987  22.158  0.00  0.00    +0.000 A 
ATOM     12  C   UNL     1       0.910   9.099  20.830  0.00  0.00    +0.000 A 
ATOM     13  S   UNL     1      -0.330  10.272  20.675  0.00  0.00    +0.000 S 
ENDBRANCH   7  12
ENDBRANCH   1   7
BRANCH   4  14
ATOM     14  C   UNL     1       4.376   4.501  19.185  0.00  0.00    +0.000 C 
BRANCH  14  15
ATOM     15  C   UNL     1       4.967   4.662  17.803  0.00  0.00    +0.000 A 
ATOM     16  C   UNL     1       4.567   3.819  16.744  0.00  0.00    +0.000 A 
ATOM     17  F   UNL     1       3.635   2.874  16.940  0.00  0.00    +0.000 F 
ATOM     18  C   UNL     1       5.128   3.888  15.469  0.00  0.00    +0.000 A 
ATOM     19  C   UNL     1       6.122   4.814  15.205  0.00  0.00    +0.000 A 
ATOM     20  C   UNL     1       6.544   5.660  16.225  0.00  0.00    +0.000 A 
ATOM     21  C   UNL     1       5.978   5.605  17.515  0.00  0.00    +0.000 A 
BRANCH  21  22
ATOM     22  O   UNL     1       6.624   6.451  18.372  0.00  0.00    +0.000 OA
BRANCH  22  23
ATOM     23  C   UNL     1       7.893   6.100  18.890  0.00  0.00    +0.000 C 
ATOM     24  F   UNL     1       8.623   7.234  19.002  0.00  0.00    +0.000 F 
ATOM     25  F   UNL     1       7.695   5.645  20.154  0.00  0.00    +0.000 F 
ENDBRANCH  22  23
ENDBRANCH  21  22
ENDBRANCH  14  15
ENDBRANCH   4  14
TORSDOF 6
ENDMDL
MODEL 5
REMARK VINA RESULT:      -7.0      5.202      7.052
REMARK  Name = 
REMARK  7 active torsions:
REMARK  status: ('A' for Active; 'I' for Inactive)
REMARK    1  A    between atoms: C_1  and  C_2
REMARK    2  A    between atoms: C_5  and  C_6
REMARK    3  A    between atoms: C_6  and  N_7
REMARK    4  A    between atoms: N_10  and  C_11
REMARK    5  A    between atoms: C_11  and  C_12
REMARK    6  A    between atoms: C_18  and  O_19
REMARK    7  A    between atoms: O_19  and  C_20
REMARK                            x       y       z     vdW  Elec       q    Type
REMARK                         _______ _______ _______ _____ _____    ______ ____
ROOT
ATOM      1  N   UNL     1       8.242   8.344  18.483  0.00  0.00    +0.000 N 
ATOM      2  C   UNL     1       7.875   7.232  17.775  0.00  0.00    +0.000 C 
ATOM      3  O   UNL     1       7.595   7.249  16.586  0.00  0.00    +0.000 OA
ATOM      4  N   UNL     1       7.794   6.111  18.553  0.00  0.00    +0.000 N 
ATOM      5  H   UNL     1       8.693   8.213  19.378  0.00  0.00    +0.000 HD
ATOM      6  H   UNL     1       8.185   6.123  19.485  0.00  0.00    +0.000 HD
ENDROOT
BRANCH   1   7
ATOM      7  C   UNL     1       8.437   9.602  17.805  0.00  0.00    +0.000 C 
BRANCH   7  12
ATOM      8  C   UNL     1      11.807  13.223  19.741  0.00  0.00    +0.000 C 
ATOM      9  C   UNL     1      10.807  12.138  19.560  0.00  0.00    +0.000 A 
ATOM     10  N   UNL     1      10.197  11.515  20.545  0.00  0.00    +0.000 NA
ATOM     11  C   UNL     1       9.326  10.574  20.032  0.00  0.00    +0.000 A 
ATOM     12  C   UNL     1       9.281  10.486  18.655  0.00  0.00    +0.000 A 
ATOM     13  S   UNL     1      10.373  11.620  17.978  0.00  0.00    +0.000 S 
ENDBRANCH   7  12
ENDBRANCH   1   7
BRANCH   4  14
ATOM     14  C   UNL     1       7.366   4.858  17.976  0.00  0.00    +0.000 C 
BRANCH  14  15
ATOM     15  C   UNL     1       5.880   4.637  17.812  0.00  0.00    +0.000 A 
ATOM     16  C   UNL     1       4.983   4.960  18.852  0.00  0.00    +0.000 A 
ATOM     17  F   UNL     1       5.432   5.492  20.000  0.00  0.00    +0.000 F 
ATOM     18  C   UNL     1       3.611   4.717  18.771  0.00  0.00    +0.000 A 
ATOM     19  C   UNL     1       3.083   4.135  17.632  0.00  0.00    +0.000 A 
ATOM     20  C   UNL     1       3.938   3.801  16.587  0.00  0.00    +0.000 A 
ATOM     21  C   UNL     1       5.324   4.050  16.654  0.00  0.00    +0.000 A 
BRANCH  21  22
ATOM     22  O   UNL     1       5.969   3.540  15.562  0.00  0.00    +0.000 OA
BRANCH  22  23
ATOM     23  C   UNL     1       5.807   4.151  14.296  0.00  0.00    +0.000 C 
ATOM     24  F   UNL     1       6.110   5.463  14.428  0.00  0.00    +0.000 F 
ATOM     25  F   UNL     1       6.749   3.620  13.475  0.00  0.00    +0.000 F 
ENDBRANCH  22  23
ENDBRANCH  21  22
ENDBRANCH  14  15
ENDBRANCH   4  14
TORSDOF 6
ENDMDL
MODEL 6
REMARK VINA RESULT:      -7.0      5.105      8.056
REMARK  Name = 
REMARK  7 active torsions:
REMARK  status: ('A' for Active; 'I' for Inactive)
REMARK    1  A    between atoms: C_1  and  C_2
REMARK    2  A    between atoms: C_5  and  C_6
REMARK    3  A    between atoms: C_6  and  N_7
REMARK    4  A    between atoms: N_10  and  C_11
REMARK    5  A    between atoms: C_11  and  C_12
REMARK    6  A    between atoms: C_18  and  O_19
REMARK    7  A    between atoms: O_19  and  C_20
REMARK                            x       y       z     vdW  Elec       q    Type
REMARK                         _______ _______ _______ _____ _____    ______ ____
ROOT
ATOM      1  N   UNL     1       1.366   8.878  19.630  0.00  0.00    +0.000 N 
ATOM      2  C   UNL     1       2.060   8.277  18.616  0.00  0.00    +0.000 C 
ATOM      3  O   UNL     1       2.112   8.717  17.478  0.00  0.00    +0.000 OA
ATOM      4  N   UNL     1       2.638   7.098  18.995  0.00  0.00    +0.000 N 
ATOM      5  H   UNL     1       1.573   8.600  20.580  0.00  0.00    +0.000 HD
ATOM      6  H   UNL     1       2.695   6.864  19.976  0.00  0.00    +0.000 HD
ENDROOT
BRANCH   1   7
ATOM      7  C   UNL     1       0.747  10.164  19.421  0.00  0.00    +0.000 C 
BRANCH   7  12
ATOM      8  C   UNL     1      -2.085  12.551  23.229  0.00  0.00    +0.000 C 
ATOM      9  C   UNL     1      -1.153  11.692  22.450  0.00  0.00    +0.000 A 
ATOM     10  N   UNL     1      -0.398  10.750  22.972  0.00  0.00    +0.000 NA
ATOM     11  C   UNL     1       0.337  10.138  21.976  0.00  0.00    +0.000 A 
ATOM     12  C   UNL     1       0.135  10.622  20.698  0.00  0.00    +0.000 A 
ATOM     13  S   UNL     1      -1.012  11.894  20.748  0.00  0.00    +0.000 S 
ENDBRANCH   7  12
ENDBRANCH   1   7
BRANCH   4  14
ATOM     14  C   UNL     1       3.364   6.303  18.031  0.00  0.00    +0.000 C 
BRANCH  14  15
ATOM     15  C   UNL     1       3.327   4.801  18.196  0.00  0.00    +0.000 A 
ATOM     16  C   UNL     1       2.200   4.057  17.785  0.00  0.00    +0.000 A 
ATOM     17  F   UNL     1       1.149   4.669  17.216  0.00  0.00    +0.000 F 
ATOM     18  C   UNL     1       2.094   2.679  17.973  0.00  0.00    +0.000 A 
ATOM     19  C   UNL     1       3.124   1.988  18.587  0.00  0.00    +0.000 A 
ATOM     20  C   UNL     1       4.249   2.689  19.009  0.00  0.00    +0.000 A 
ATOM     21  C   UNL     1       4.370   4.080  18.815  0.00  0.00    +0.000 A 
BRANCH  21  22
ATOM     22  O   UNL     1       5.506   4.560  19.405  0.00  0.00    +0.000 OA
BRANCH  22  23
ATOM     23  C   UNL     1       6.510   5.170  18.617  0.00  0.00    +0.000 C 
ATOM     24  F   UNL     1       7.445   5.676  19.454  0.00  0.00    +0.000 F 
ATOM     25  F   UNL     1       7.119   4.181  17.913  0.00  0.00    +0.000 F 
ENDBRANCH  22  23
ENDBRANCH  21  22
ENDBRANCH  14  15
ENDBRANCH   4  14
TORSDOF 6
ENDMDL
MODEL 7
REMARK VINA RESULT:      -6.9      5.538      7.900
REMARK  Name = 
REMARK  7 active torsions:
REMARK  status: ('A' for Active; 'I' for Inactive)
REMARK    1  A    between atoms: C_1  and  C_2
REMARK    2  A    between atoms: C_5  and  C_6
REMARK    3  A    between atoms: C_6  and  N_7
REMARK    4  A    between atoms: N_10  and  C_11
REMARK    5  A    between atoms: C_11  and  C_12
REMARK    6  A    between atoms: C_18  and  O_19
REMARK    7  A    between atoms: O_19  and  C_20
REMARK                            x       y       z     vdW  Elec       q    Type
REMARK                         _______ _______ _______ _____ _____    ______ ____
ROOT
ATOM      1  N   UNL     1       0.934  10.001  17.997  0.00  0.00    +0.000 N 
ATOM      2  C   UNL     1       1.377   8.990  18.805  0.00  0.00    +0.000 C 
ATOM      3  O   UNL     1       1.190   8.957  20.012  0.00  0.00    +0.000 OA
ATOM      4  N   UNL     1       2.105   8.051  18.130  0.00  0.00    +0.000 N 
ATOM      5  H   UNL     1       0.906   9.837  17.000  0.00  0.00    +0.000 HD
ATOM      6  H   UNL     1       2.095   8.045  17.120  0.00  0.00    +0.000 HD
ENDROOT
BRANCH   1   7
ATOM      7  C   UNL     1       0.095  11.044  18.535  0.00  0.00    +0.000 C 
BRANCH   7  12
ATOM      8  C   UNL     1      -5.152  11.184  17.723  0.00  0.00    +0.000 C 
ATOM      9  C   UNL     1      -3.699  10.865  17.706  0.00  0.00    +0.000 A 
ATOM     10  N   UNL     1      -3.148   9.944  16.945  0.00  0.00    +0.000 NA
ATOM     11  C   UNL     1      -1.786   9.913  17.165  0.00  0.00    +0.000 A 
ATOM     12  C   UNL     1      -1.308  10.813  18.097  0.00  0.00    +0.000 A 
ATOM     13  S   UNL     1      -2.615  11.727  18.724  0.00  0.00    +0.000 S 
ENDBRANCH   7  12
ENDBRANCH   1   7
BRANCH   4  14
ATOM     14  C   UNL     1       2.696   6.941  18.841  0.00  0.00    +0.000 C 
BRANCH  14  15
ATOM     15  C   UNL     1       3.393   5.879  18.022  0.00  0.00    +0.000 A 
ATOM     16  C   UNL     1       4.589   6.170  17.332  0.00  0.00    +0.000 A 
ATOM     17  F   UNL     1       5.142   7.391  17.410  0.00  0.00    +0.000 F 
ATOM     18  C   UNL     1       5.236   5.243  16.514  0.00  0.00    +0.000 A 
ATOM     19  C   UNL     1       4.701   3.976  16.356  0.00  0.00    +0.000 A 
ATOM     20  C   UNL     1       3.521   3.655  17.019  0.00  0.00    +0.000 A 
ATOM     21  C   UNL     1       2.865   4.581  17.855  0.00  0.00    +0.000 A 
BRANCH  21  22
ATOM     22  O   UNL     1       1.677   4.079  18.308  0.00  0.00    +0.000 OA
BRANCH  22  23
ATOM     23  C   UNL     1       1.581   2.718  18.684  0.00  0.00    +0.000 C 
ATOM     24  F   UNL     1       2.178   2.579  19.891  0.00  0.00    +0.000 F 
ATOM     25  F   UNL     1       0.264   2.449  18.874  0.00  0.00    +0.000 F 
ENDBRANCH  22  23
ENDBRANCH  21  22
ENDBRANCH  14  15
ENDBRANCH   4  14
TORSDOF 6
ENDMDL
MODEL 8
REMARK VINA RESULT:      -6.9      3.275      5.507
REMARK  Name = 
REMARK  7 active torsions:
REMARK  status: ('A' for Active; 'I' for Inactive)
REMARK    1  A    between atoms: C_1  and  C_2
REMARK    2  A    between atoms: C_5  and  C_6
REMARK    3  A    between atoms: C_6  and  N_7
REMARK    4  A    between atoms: N_10  and  C_11
REMARK    5  A    between atoms: C_11  and  C_12
REMARK    6  A    between atoms: C_18  and  O_19
REMARK    7  A    between atoms: O_19  and  C_20
REMARK                            x       y       z     vdW  Elec       q    Type
REMARK                         _______ _______ _______ _____ _____    ______ ____
ROOT
ATOM      1  N   UNL     1       4.183   5.479  19.695  0.00  0.00    +0.000 N 
ATOM      2  C   UNL     1       2.861   5.822  19.752  0.00  0.00    +0.000 C 
ATOM      3  O   UNL     1       1.973   5.192  19.198  0.00  0.00    +0.000 OA
ATOM      4  N   UNL     1       2.643   6.983  20.441  0.00  0.00    +0.000 N 
ATOM      5  H   UNL     1       4.813   5.891  20.370  0.00  0.00    +0.000 HD
ATOM      6  H   UNL     1       3.385   7.373  21.005  0.00  0.00    +0.000 HD
ENDROOT
BRANCH   1   7
ATOM      7  C   UNL     1       4.585   4.247  19.060  0.00  0.00    +0.000 C 
BRANCH   7  12
ATOM      8  C   UNL     1       6.950   4.829  14.340  0.00  0.00    +0.000 C 
ATOM      9  C   UNL     1       6.591   4.844  15.783  0.00  0.00    +0.000 A 
ATOM     10  N   UNL     1       7.314   5.410  16.724  0.00  0.00    +0.000 NA
ATOM     11  C   UNL     1       6.693   5.251  17.947  0.00  0.00    +0.000 A 
ATOM     12  C   UNL     1       5.499   4.560  17.928  0.00  0.00    +0.000 A 
ATOM     13  S   UNL     1       5.143   4.087  16.319  0.00  0.00    +0.000 S 
ENDBRANCH   7  12
ENDBRANCH   1   7
BRANCH   4  14
ATOM     14  C   UNL     1       1.308   7.521  20.551  0.00  0.00    +0.000 C 
BRANCH  14  15
ATOM     15  C   UNL     1       1.119   8.987  20.234  0.00  0.00    +0.000 A 
ATOM     16  C   UNL     1       1.158   9.448  18.900  0.00  0.00    +0.000 A 
ATOM     17  F   UNL     1       1.342   8.588  17.886  0.00  0.00    +0.000 F 
ATOM     18  C   UNL     1       1.052  10.798  18.563  0.00  0.00    +0.000 A 
ATOM     19  C   UNL     1       0.899  11.745  19.560  0.00  0.00    +0.000 A 
ATOM     20  C   UNL     1       0.859  11.328  20.886  0.00  0.00    +0.000 A 
ATOM     21  C   UNL     1       0.957   9.966  21.238  0.00  0.00    +0.000 A 
BRANCH  21  22
ATOM     22  O   UNL     1       1.001   9.811  22.595  0.00  0.00    +0.000 OA
BRANCH  22  23
ATOM     23  C   UNL     1      -0.194   9.606  23.324  0.00  0.00    +0.000 C 
ATOM     24  F   UNL     1      -0.877  10.774  23.338  0.00  0.00    +0.000 F 
ATOM     25  F   UNL     1      -0.948   8.729  22.612  0.00  0.00    +0.000 F 
ENDBRANCH  22  23
ENDBRANCH  21  22
ENDBRANCH  14  15
ENDBRANCH   4  14
TORSDOF 6
ENDMDL
MODEL 9
REMARK VINA RESULT:      -6.8      4.074      6.360
REMARK  Name = 
REMARK  7 active torsions:
REMARK  status: ('A' for Active; 'I' for Inactive)
REMARK    1  A    between atoms: C_1  and  C_2
REMARK    2  A    between atoms: C_5  and  C_6
REMARK    3  A    between atoms: C_6  and  N_7
REMARK    4  A    between atoms: N_10  and  C_11
REMARK    5  A    between atoms: C_11  and  C_12
REMARK    6  A    between atoms: C_18  and  O_19
REMARK    7  A    between atoms: O_19  and  C_20
REMARK                            x       y       z     vdW  Elec       q    Type
REMARK                         _______ _______ _______ _____ _____    ______ ____
ROOT
ATOM      1  N   UNL     1       2.421   6.673  18.606  0.00  0.00    +0.000 N 
ATOM      2  C   UNL     1       2.047   6.835  19.912  0.00  0.00    +0.000 C 
ATOM      3  O   UNL     1       1.954   5.914  20.709  0.00  0.00    +0.000 OA
ATOM      4  N   UNL     1       1.727   8.128  20.215  0.00  0.00    +0.000 N 
ATOM      5  H   UNL     1       2.713   7.490  18.088  0.00  0.00    +0.000 HD
ATOM      6  H   UNL     1       1.970   8.866  19.569  0.00  0.00    +0.000 HD
ENDROOT
BRANCH   1   7
ATOM      7  C   UNL     1       2.853   5.381  18.131  0.00  0.00    +0.000 C 
BRANCH   7  12
ATOM      8  C   UNL     1       6.994   4.786  14.858  0.00  0.00    +0.000 C 
ATOM      9  C   UNL     1       5.939   5.310  15.766  0.00  0.00    +0.000 A 
ATOM     10  N   UNL     1       5.786   6.579  16.076  0.00  0.00    +0.000 NA
ATOM     11  C   UNL     1       4.710   6.723  16.929  0.00  0.00    +0.000 A 
ATOM     12  C   UNL     1       4.050   5.558  17.265  0.00  0.00    +0.000 A 
ATOM     13  S   UNL     1       4.810   4.232  16.488  0.00  0.00    +0.000 S 
ENDBRANCH   7  12
ENDBRANCH   1   7
BRANCH   4  14
ATOM     14  C   UNL     1       1.258   8.468  21.538  0.00  0.00    +0.000 C 
BRANCH  14  15
ATOM     15  C   UNL     1       0.431   9.726  21.684  0.00  0.00    +0.000 A 
ATOM     16  C   UNL     1      -0.254  10.004  22.886  0.00  0.00    +0.000 A 
ATOM     17  F   UNL     1      -0.165   9.167  23.931  0.00  0.00    +0.000 F 
ATOM     18  C   UNL     1      -1.078  11.118  23.046  0.00  0.00    +0.000 A 
ATOM     19  C   UNL     1      -1.247  12.004  21.997  0.00  0.00    +0.000 A 
ATOM     20  C   UNL     1      -0.589  11.760  20.796  0.00  0.00    +0.000 A 
ATOM     21  C   UNL     1       0.252  10.643  20.626  0.00  0.00    +0.000 A 
BRANCH  21  22
ATOM     22  O   UNL     1       0.698  10.555  19.336  0.00  0.00    +0.000 OA
BRANCH  22  23
ATOM     23  C   UNL     1      -0.214  10.285  18.289  0.00  0.00    +0.000 C 
ATOM     24  F   UNL     1       0.334   9.333  17.498  0.00  0.00    +0.000 F 
ATOM     25  F   UNL     1      -1.315   9.727  18.854  0.00  0.00    +0.000 F 
ENDBRANCH  22  23
ENDBRANCH  21  22
ENDBRANCH  14  15
ENDBRANCH   4  14
TORSDOF 6
ENDMDL
