MODEL 1
REMARK VINA RESULT:      -8.0      0.000      0.000
REMARK  Name = 
REMARK  10 active torsions:
REMARK  status: ('A' for Active; 'I' for Inactive)
REMARK    1  A    between atoms: C_1  and  O_2
REMARK    2  A    between atoms: O_2  and  C_3
REMARK    3  A    between atoms: C_7  and  C_8
REMARK    4  A    between atoms: C_12  and  N_13
REMARK    5  A    between atoms: C_14  and  C_16
REMARK    6  A    between atoms: C_19  and  N_20
REMARK    7  A    between atoms: C_30  and  O_31
REMARK    8  A    between atoms: O_31  and  C_32
REMARK    9  A    between atoms: C_33  and  O_34
REMARK   10  A    between atoms: O_34  and  C_35
REMARK                            x       y       z     vdW  Elec       q    Type
REMARK                         _______ _______ _______ _____ _____    ______ ____
ROOT
ATOM      1  C   UNL     1       1.058   8.402  20.725  0.00  0.00    +0.000 A 
ATOM      2  C   UNL     1       0.438   8.218  21.966  0.00  0.00    +0.000 A 
ATOM      3  C   UNL     1      -0.226   9.278  22.575  0.00  0.00    +0.000 A 
ATOM      4  C   UNL     1      -0.254  10.528  21.955  0.00  0.00    +0.000 A 
ATOM      5  C   UNL     1       0.377  10.736  20.725  0.00  0.00    +0.000 A 
ATOM      6  C   UNL     1       1.015   9.657  20.102  0.00  0.00    +0.000 A 
ENDROOT
BRANCH   1  11
ATOM      7  C   UNL     1       5.375   6.233  17.229  0.00  0.00    +0.000 A 
ATOM      8  C   UNL     1       4.448   7.097  17.787  0.00  0.00    +0.000 A 
ATOM      9  C   UNL     1       3.448   6.603  18.621  0.00  0.00    +0.000 A 
ATOM     10  O   UNL     1       2.656   7.603  19.142  0.00  0.00    +0.000 OA
ATOM     11  C   UNL     1       1.726   7.268  20.087  0.00  0.00    +0.000 A 
ATOM     12  C   UNL     1       1.435   6.017  20.440  0.00  0.00    +0.000 A 
ATOM     13  C   UNL     1       2.145   4.904  19.793  0.00  0.00    +0.000 A 
ATOM     14  O   UNL     1       1.711   3.790  20.039  0.00  0.00    +0.000 OA
ATOM     15  C   UNL     1       3.302   5.226  18.896  0.00  0.00    +0.000 A 
ATOM     16  C   UNL     1       4.228   4.321  18.312  0.00  0.00    +0.000 A 
ATOM     17  C   UNL     1       5.264   4.848  17.473  0.00  0.00    +0.000 A 
BRANCH   7  19
ATOM     18  C   UNL     1       7.375   7.481  17.007  0.00  0.00    +0.000 C 
ATOM     19  O   UNL     1       6.380   6.663  16.398  0.00  0.00    +0.000 OA
ENDBRANCH   7  19
BRANCH  16  20
ATOM     20  O   UNL     1       4.330   2.970  18.449  0.00  0.00    +0.000 OA
ATOM     21  C   UNL     1       3.456   2.009  17.903  0.00  0.00    +0.000 C 
ENDBRANCH  16  20
BRANCH  17  22
ATOM     22  O   UNL     1       6.302   4.126  16.916  0.00  0.00    +0.000 OA
ATOM     23  C   UNL     1       6.197   3.648  15.581  0.00  0.00    +0.000 C 
ENDBRANCH  17  22
ENDBRANCH   1  11
BRANCH   5  24
ATOM     24  N   UNL     1       0.382  11.986  20.060  0.00  0.00    +0.000 N 
ATOM     25  C   UNL     1       1.316  12.990  20.250  0.00  0.00    +0.000 C 
ATOM     26  O   UNL     1       2.324  12.910  20.946  0.00  0.00    +0.000 OA
ATOM     27  H   UNL     1      -0.351  12.124  19.380  0.00  0.00    +0.000 HD
BRANCH  25  28
ATOM     28  C   UNL     1       1.076  14.288  19.556  0.00  0.00    +0.000 A 
ATOM     29  C   UNL     1       2.207  15.079  19.282  0.00  0.00    +0.000 A 
ATOM     30  C   UNL     1       2.086  16.310  18.638  0.00  0.00    +0.000 A 
ATOM     31  C   UNL     1       0.818  16.757  18.255  0.00  0.00    +0.000 A 
ATOM     32  C   UNL     1      -0.319  15.972  18.503  0.00  0.00    +0.000 A 
ATOM     33  C   UNL     1      -0.188  14.736  19.150  0.00  0.00    +0.000 A 
BRANCH  31  34
ATOM     34  N   UNL     1       0.682  18.057  17.588  0.00  0.00    +0.000 N 
ATOM     35  O   UNL     1      -0.413  18.631  17.657  0.00  0.00    +0.000 OA
ATOM     36  O   UNL     1       1.672  18.502  16.990  0.00  0.00    +0.000 OA
ENDBRANCH  31  34
ENDBRANCH  25  28
ENDBRANCH   5  24
TORSDOF 7
ENDMDL
MODEL 2
REMARK VINA RESULT:      -8.0      4.008      9.992
REMARK  Name = 
REMARK  10 active torsions:
REMARK  status: ('A' for Active; 'I' for Inactive)
REMARK    1  A    between atoms: C_1  and  O_2
REMARK    2  A    between atoms: O_2  and  C_3
REMARK    3  A    between atoms: C_7  and  C_8
REMARK    4  A    between atoms: C_12  and  N_13
REMARK    5  A    between atoms: C_14  and  C_16
REMARK    6  A    between atoms: C_19  and  N_20
REMARK    7  A    between atoms: C_30  and  O_31
REMARK    8  A    between atoms: O_31  and  C_32
REMARK    9  A    between atoms: C_33  and  O_34
REMARK   10  A    between atoms: O_34  and  C_35
REMARK                            x       y       z     vdW  Elec       q    Type
REMARK                         _______ _______ _______ _____ _____    ______ ____
ROOT
ATOM      1  C   UNL     1       1.738   6.599  20.456  0.00  0.00    +0.000 A 
ATOM      2  C   UNL     1       1.541   5.518  21.323  0.00  0.00    +0.000 A 
ATOM      3  C   UNL     1       2.107   4.281  21.030  0.00  0.00    +0.000 A 
ATOM      4  C   UNL     1       2.853   4.116  19.862  0.00  0.00    +0.000 A 
ATOM      5  C   UNL     1       3.043   5.179  18.974  0.00  0.00    +0.000 A 
ATOM      6  C   UNL     1       2.500   6.430  19.291  0.00  0.00    +0.000 A 
ENDROOT
BRANCH   1  11
ATOM      7  C   UNL     1      -1.255  11.508  18.871  0.00  0.00    +0.000 A 
ATOM      8  C   UNL     1      -0.464  10.373  18.803  0.00  0.00    +0.000 A 
ATOM      9  C   UNL     1       0.032   9.796  19.970  0.00  0.00    +0.000 A 
ATOM     10  O   UNL     1       0.741   8.641  19.725  0.00  0.00    +0.000 OA
ATOM     11  C   UNL     1       1.161   7.899  20.794  0.00  0.00    +0.000 A 
ATOM     12  C   UNL     1       1.052   8.288  22.064  0.00  0.00    +0.000 A 
ATOM     13  C   UNL     1       0.444   9.592  22.367  0.00  0.00    +0.000 A 
ATOM     14  O   UNL     1       0.532   9.955  23.529  0.00  0.00    +0.000 OA
ATOM     15  C   UNL     1      -0.201  10.351  21.247  0.00  0.00    +0.000 A 
ATOM     16  C   UNL     1      -0.990  11.529  21.336  0.00  0.00    +0.000 A 
ATOM     17  C   UNL     1      -1.510  12.097  20.127  0.00  0.00    +0.000 A 
BRANCH   7  19
ATOM     18  C   UNL     1      -2.472  11.269  16.854  0.00  0.00    +0.000 C 
ATOM     19  O   UNL     1      -1.768  12.119  17.755  0.00  0.00    +0.000 OA
ENDBRANCH   7  19
BRANCH  16  20
ATOM     20  O   UNL     1      -1.391  12.228  22.434  0.00  0.00    +0.000 OA
ATOM     21  C   UNL     1      -2.414  11.860  23.329  0.00  0.00    +0.000 C 
ENDBRANCH  16  20
BRANCH  17  22
ATOM     22  O   UNL     1      -2.375  13.171  20.043  0.00  0.00    +0.000 OA
ATOM     23  C   UNL     1      -3.775  12.969  20.189  0.00  0.00    +0.000 C 
ENDBRANCH  17  22
ENDBRANCH   1  11
BRANCH   5  24
ATOM     24  N   UNL     1       3.786   5.061  17.775  0.00  0.00    +0.000 N 
ATOM     25  C   UNL     1       5.083   4.586  17.680  0.00  0.00    +0.000 C 
ATOM     26  O   UNL     1       5.742   4.112  18.600  0.00  0.00    +0.000 OA
ATOM     27  H   UNL     1       3.302   5.329  16.930  0.00  0.00    +0.000 HD
BRANCH  25  28
ATOM     28  C   UNL     1       5.745   4.663  16.345  0.00  0.00    +0.000 A 
ATOM     29  C   UNL     1       6.812   5.571  16.220  0.00  0.00    +0.000 A 
ATOM     30  C   UNL     1       7.494   5.716  15.012  0.00  0.00    +0.000 A 
ATOM     31  C   UNL     1       7.110   4.941  13.915  0.00  0.00    +0.000 A 
ATOM     32  C   UNL     1       6.060   4.016  14.028  0.00  0.00    +0.000 A 
ATOM     33  C   UNL     1       5.381   3.875  15.245  0.00  0.00    +0.000 A 
BRANCH  31  34
ATOM     34  N   UNL     1       7.816   5.098  12.637  0.00  0.00    +0.000 N 
ATOM     35  O   UNL     1       8.685   5.978  12.560  0.00  0.00    +0.000 OA
ATOM     36  O   UNL     1       7.496   4.344  11.708  0.00  0.00    +0.000 OA
ENDBRANCH  31  34
ENDBRANCH  25  28
ENDBRANCH   5  24
TORSDOF 7
ENDMDL
MODEL 3
REMARK VINA RESULT:      -8.0      3.866      5.194
REMARK  Name = 
REMARK  10 active torsions:
REMARK  status: ('A' for Active; 'I' for Inactive)
REMARK    1  A    between atoms: C_1  and  O_2
REMARK    2  A    between atoms: O_2  and  C_3
REMARK    3  A    between atoms: C_7  and  C_8
REMARK    4  A    between atoms: C_12  and  N_13
REMARK    5  A    between atoms: C_14  and  C_16
REMARK    6  A    between atoms: C_19  and  N_20
REMARK    7  A    between atoms: C_30  and  O_31
REMARK    8  A    between atoms: O_31  and  C_32
REMARK    9  A    between atoms: C_33  and  O_34
REMARK   10  A    between atoms: O_34  and  C_35
REMARK                            x       y       z     vdW  Elec       q    Type
REMARK                         _______ _______ _______ _____ _____    ______ ____
ROOT
ATOM      1  C   UNL     1       1.237  10.336  18.943  0.00  0.00    +0.000 A 
ATOM      2  C   UNL     1       1.923  11.363  18.284  0.00  0.00    +0.000 A 
ATOM      3  C   UNL     1       1.407  12.654  18.285  0.00  0.00    +0.000 A 
ATOM      4  C   UNL     1       0.197  12.920  18.927  0.00  0.00    +0.000 A 
ATOM      5  C   UNL     1      -0.513  11.903  19.574  0.00  0.00    +0.000 A 
ATOM      6  C   UNL     1       0.028  10.612  19.597  0.00  0.00    +0.000 A 
ENDROOT
BRANCH   1  11
ATOM      7  C   UNL     1       5.082   6.321  16.784  0.00  0.00    +0.000 A 
ATOM      8  C   UNL     1       4.239   7.416  16.873  0.00  0.00    +0.000 A 
ATOM      9  C   UNL     1       3.336   7.520  17.929  0.00  0.00    +0.000 A 
ATOM     10  O   UNL     1       2.626   8.700  17.900  0.00  0.00    +0.000 OA
ATOM     11  C   UNL     1       1.809   8.990  18.956  0.00  0.00    +0.000 A 
ATOM     12  C   UNL     1       1.543   8.145  19.952  0.00  0.00    +0.000 A 
ATOM     13  C   UNL     1       2.156   6.809  19.944  0.00  0.00    +0.000 A 
ATOM     14  O   UNL     1       1.738   6.034  20.789  0.00  0.00    +0.000 OA
ATOM     15  C   UNL     1       3.204   6.516  18.912  0.00  0.00    +0.000 A 
ATOM     16  C   UNL     1       4.042   5.373  18.825  0.00  0.00    +0.000 A 
ATOM     17  C   UNL     1       4.980   5.292  17.744  0.00  0.00    +0.000 A 
BRANCH   7  19
ATOM     18  C   UNL     1       5.579   5.310  14.702  0.00  0.00    +0.000 C 
ATOM     19  O   UNL     1       5.988   6.166  15.765  0.00  0.00    +0.000 OA
ENDBRANCH   7  19
BRANCH  16  20
ATOM     20  O   UNL     1       4.139   4.299  19.657  0.00  0.00    +0.000 OA
ATOM     21  C   UNL     1       3.352   3.132  19.608  0.00  0.00    +0.000 C 
ENDBRANCH  16  20
BRANCH  17  22
ATOM     22  O   UNL     1       5.935   4.308  17.570  0.00  0.00    +0.000 OA
ATOM     23  C   UNL     1       7.282   4.551  17.956  0.00  0.00    +0.000 C 
ENDBRANCH  17  22
ENDBRANCH   1  11
BRANCH   5  24
ATOM     24  N   UNL     1      -1.746  12.120  20.232  0.00  0.00    +0.000 N 
ATOM     25  C   UNL     1      -1.891  12.585  21.529  0.00  0.00    +0.000 C 
ATOM     26  O   UNL     1      -0.981  12.964  22.260  0.00  0.00    +0.000 OA
ATOM     27  H   UNL     1      -2.575  11.937  19.686  0.00  0.00    +0.000 HD
BRANCH  25  28
ATOM     28  C   UNL     1      -3.270  12.620  22.094  0.00  0.00    +0.000 A 
ATOM     29  C   UNL     1      -3.386  12.498  23.491  0.00  0.00    +0.000 A 
ATOM     30  C   UNL     1      -4.633  12.518  24.114  0.00  0.00    +0.000 A 
ATOM     31  C   UNL     1      -5.783  12.670  23.334  0.00  0.00    +0.000 A 
ATOM     32  C   UNL     1      -5.685  12.814  21.941  0.00  0.00    +0.000 A 
ATOM     33  C   UNL     1      -4.428  12.792  21.323  0.00  0.00    +0.000 A 
BRANCH  31  34
ATOM     34  N   UNL     1      -7.100  12.680  23.983  0.00  0.00    +0.000 N 
ATOM     35  O   UNL     1      -7.493  13.746  24.476  0.00  0.00    +0.000 OA
ATOM     36  O   UNL     1      -7.737  11.618  24.003  0.00  0.00    +0.000 OA
ENDBRANCH  31  34
ENDBRANCH  25  28
ENDBRANCH   5  24
TORSDOF 7
ENDMDL
MODEL 4
REMARK VINA RESULT:      -7.9      4.687     11.437
REMARK  Name = 
REMARK  10 active torsions:
REMARK  status: ('A' for Active; 'I' for Inactive)
REMARK    1  A    between atoms: C_1  and  O_2
REMARK    2  A    between atoms: O_2  and  C_3
REMARK    3  A    between atoms: C_7  and  C_8
REMARK    4  A    between atoms: C_12  and  N_13
REMARK    5  A    between atoms: C_14  and  C_16
REMARK    6  A    between atoms: C_19  and  N_20
REMARK    7  A    between atoms: C_30  and  O_31
REMARK    8  A    between atoms: O_31  and  C_32
REMARK    9  A    between atoms: C_33  and  O_34
REMARK   10  A    between atoms: O_34  and  C_35
REMARK                            x       y       z     vdW  Elec       q    Type
REMARK                         _______ _______ _______ _____ _____    ______ ____
ROOT
ATOM      1  C   UNL     1      -0.304  11.545  19.285  0.00  0.00    +0.000 A 
ATOM      2  C   UNL     1       0.512  12.573  18.799  0.00  0.00    +0.000 A 
ATOM      3  C   UNL     1       1.762  12.274  18.269  0.00  0.00    +0.000 A 
ATOM      4  C   UNL     1       2.209  10.952  18.241  0.00  0.00    +0.000 A 
ATOM      5  C   UNL     1       1.416   9.914  18.740  0.00  0.00    +0.000 A 
ATOM      6  C   UNL     1       0.144  10.217  19.242  0.00  0.00    +0.000 A 
ENDROOT
BRANCH   1  11
ATOM      7  C   UNL     1      -3.770  13.502  23.726  0.00  0.00    +0.000 A 
ATOM      8  C   UNL     1      -2.706  12.939  23.042  0.00  0.00    +0.000 A 
ATOM      9  C   UNL     1      -2.842  12.597  21.699  0.00  0.00    +0.000 A 
ATOM     10  O   UNL     1      -1.670  12.114  21.158  0.00  0.00    +0.000 OA
ATOM     11  C   UNL     1      -1.628  11.875  19.812  0.00  0.00    +0.000 A 
ATOM     12  C   UNL     1      -2.686  11.945  19.006  0.00  0.00    +0.000 A 
ATOM     13  C   UNL     1      -3.996  12.303  19.568  0.00  0.00    +0.000 A 
ATOM     14  O   UNL     1      -4.945  12.181  18.809  0.00  0.00    +0.000 OA
ATOM     15  C   UNL     1      -4.055  12.758  20.995  0.00  0.00    +0.000 A 
ATOM     16  C   UNL     1      -5.166  13.311  21.686  0.00  0.00    +0.000 A 
ATOM     17  C   UNL     1      -5.003  13.677  23.062  0.00  0.00    +0.000 A 
BRANCH   7  19
ATOM     18  C   UNL     1      -2.803  14.925  25.352  0.00  0.00    +0.000 C 
ATOM     19  O   UNL     1      -3.694  13.855  25.050  0.00  0.00    +0.000 OA
ENDBRANCH   7  19
BRANCH  16  20
ATOM     20  O   UNL     1      -6.417  13.604  21.232  0.00  0.00    +0.000 OA
ATOM     21  C   UNL     1      -7.490  12.701  21.107  0.00  0.00    +0.000 C 
ENDBRANCH  16  20
BRANCH  17  22
ATOM     22  O   UNL     1      -5.941  14.319  23.848  0.00  0.00    +0.000 OA
ATOM     23  C   UNL     1      -6.110  15.727  23.744  0.00  0.00    +0.000 C 
ENDBRANCH  17  22
ENDBRANCH   1  11
BRANCH   5  24
ATOM     24  N   UNL     1       1.825   8.560  18.740  0.00  0.00    +0.000 N 
ATOM     25  C   UNL     1       1.892   7.743  19.857  0.00  0.00    +0.000 C 
ATOM     26  O   UNL     1       1.519   8.042  20.987  0.00  0.00    +0.000 OA
ATOM     27  H   UNL     1       2.060   8.172  17.838  0.00  0.00    +0.000 HD
BRANCH  25  28
ATOM     28  C   UNL     1       2.476   6.383  19.676  0.00  0.00    +0.000 A 
ATOM     29  C   UNL     1       2.072   5.393  20.590  0.00  0.00    +0.000 A 
ATOM     30  C   UNL     1       2.563   4.091  20.505  0.00  0.00    +0.000 A 
ATOM     31  C   UNL     1       3.467   3.768  19.489  0.00  0.00    +0.000 A 
ATOM     32  C   UNL     1       3.866   4.738  18.555  0.00  0.00    +0.000 A 
ATOM     33  C   UNL     1       3.367   6.044  18.648  0.00  0.00    +0.000 A 
BRANCH  31  34
ATOM     34  N   UNL     1       3.997   2.402  19.401  0.00  0.00    +0.000 N 
ATOM     35  O   UNL     1       4.839   2.054  20.240  0.00  0.00    +0.000 OA
ATOM     36  O   UNL     1       3.574   1.680  18.488  0.00  0.00    +0.000 OA
ENDBRANCH  31  34
ENDBRANCH  25  28
ENDBRANCH   5  24
TORSDOF 7
ENDMDL
MODEL 5
REMARK VINA RESULT:      -7.9      5.044     11.555
REMARK  Name = 
REMARK  10 active torsions:
REMARK  status: ('A' for Active; 'I' for Inactive)
REMARK    1  A    between atoms: C_1  and  O_2
REMARK    2  A    between atoms: O_2  and  C_3
REMARK    3  A    between atoms: C_7  and  C_8
REMARK    4  A    between atoms: C_12  and  N_13
REMARK    5  A    between atoms: C_14  and  C_16
REMARK    6  A    between atoms: C_19  and  N_20
REMARK    7  A    between atoms: C_30  and  O_31
REMARK    8  A    between atoms: O_31  and  C_32
REMARK    9  A    between atoms: C_33  and  O_34
REMARK   10  A    between atoms: O_34  and  C_35
REMARK                            x       y       z     vdW  Elec       q    Type
REMARK                         _______ _______ _______ _____ _____    ______ ____
ROOT
ATOM      1  C   UNL     1      -0.742  11.420  18.793  0.00  0.00    +0.000 A 
ATOM      2  C   UNL     1       0.127  12.511  18.673  0.00  0.00    +0.000 A 
ATOM      3  C   UNL     1       1.495  12.298  18.548  0.00  0.00    +0.000 A 
ATOM      4  C   UNL     1       2.001  10.997  18.563  0.00  0.00    +0.000 A 
ATOM      5  C   UNL     1       1.150   9.896  18.703  0.00  0.00    +0.000 A 
ATOM      6  C   UNL     1      -0.229  10.115  18.795  0.00  0.00    +0.000 A 
ENDROOT
BRANCH   1  11
ATOM      7  C   UNL     1      -5.388  13.953  21.544  0.00  0.00    +0.000 A 
ATOM      8  C   UNL     1      -4.138  13.403  21.316  0.00  0.00    +0.000 A 
ATOM      9  C   UNL     1      -3.896  12.678  20.152  0.00  0.00    +0.000 A 
ATOM     10  O   UNL     1      -2.586  12.262  20.054  0.00  0.00    +0.000 OA
ATOM     11  C   UNL     1      -2.181  11.663  18.894  0.00  0.00    +0.000 A 
ATOM     12  C   UNL     1      -3.001  11.326  17.899  0.00  0.00    +0.000 A 
ATOM     13  C   UNL     1      -4.438  11.608  18.026  0.00  0.00    +0.000 A 
ATOM     14  O   UNL     1      -5.147  11.122  17.159  0.00  0.00    +0.000 OA
ATOM     15  C   UNL     1      -4.900  12.432  19.190  0.00  0.00    +0.000 A 
ATOM     16  C   UNL     1      -6.196  12.966  19.418  0.00  0.00    +0.000 A 
ATOM     17  C   UNL     1      -6.422  13.728  20.611  0.00  0.00    +0.000 A 
BRANCH   7  19
ATOM     18  C   UNL     1      -5.174  14.144  23.894  0.00  0.00    +0.000 C 
ATOM     19  O   UNL     1      -5.684  14.674  22.674  0.00  0.00    +0.000 OA
ENDBRANCH   7  19
BRANCH  16  20
ATOM     20  O   UNL     1      -7.311  12.908  18.638  0.00  0.00    +0.000 OA
ATOM     21  C   UNL     1      -7.533  13.627  17.447  0.00  0.00    +0.000 C 
ENDBRANCH  16  20
BRANCH  17  22
ATOM     22  O   UNL     1      -7.584  14.402  20.935  0.00  0.00    +0.000 OA
ATOM     23  C   UNL     1      -7.822  15.700  20.406  0.00  0.00    +0.000 C 
ENDBRANCH  17  22
ENDBRANCH   1  11
BRANCH   5  24
ATOM     24  N   UNL     1       1.614   8.559  18.731  0.00  0.00    +0.000 N 
ATOM     25  C   UNL     1       1.818   7.806  19.875  0.00  0.00    +0.000 C 
ATOM     26  O   UNL     1       1.539   8.150  21.019  0.00  0.00    +0.000 OA
ATOM     27  H   UNL     1       1.781   8.134  17.831  0.00  0.00    +0.000 HD
BRANCH  25  28
ATOM     28  C   UNL     1       2.440   6.460  19.707  0.00  0.00    +0.000 A 
ATOM     29  C   UNL     1       1.978   5.439  20.556  0.00  0.00    +0.000 A 
ATOM     30  C   UNL     1       2.499   4.147  20.477  0.00  0.00    +0.000 A 
ATOM     31  C   UNL     1       3.489   3.868  19.532  0.00  0.00    +0.000 A 
ATOM     32  C   UNL     1       3.947   4.871  18.662  0.00  0.00    +0.000 A 
ATOM     33  C   UNL     1       3.419   6.165  18.748  0.00  0.00    +0.000 A 
BRANCH  31  34
ATOM     34  N   UNL     1       4.050   2.514  19.451  0.00  0.00    +0.000 N 
ATOM     35  O   UNL     1       3.554   1.731  18.629  0.00  0.00    +0.000 OA
ATOM     36  O   UNL     1       4.983   2.233  20.215  0.00  0.00    +0.000 OA
ENDBRANCH  31  34
ENDBRANCH  25  28
ENDBRANCH   5  24
TORSDOF 7
ENDMDL
MODEL 6
REMARK VINA RESULT:      -7.9      0.995      1.013
REMARK  Name = 
REMARK  10 active torsions:
REMARK  status: ('A' for Active; 'I' for Inactive)
REMARK    1  A    between atoms: C_1  and  O_2
REMARK    2  A    between atoms: O_2  and  C_3
REMARK    3  A    between atoms: C_7  and  C_8
REMARK    4  A    between atoms: C_12  and  N_13
REMARK    5  A    between atoms: C_14  and  C_16
REMARK    6  A    between atoms: C_19  and  N_20
REMARK    7  A    between atoms: C_30  and  O_31
REMARK    8  A    between atoms: O_31  and  C_32
REMARK    9  A    between atoms: C_33  and  O_34
REMARK   10  A    between atoms: O_34  and  C_35
REMARK                            x       y       z     vdW  Elec       q    Type
REMARK                         _______ _______ _______ _____ _____    ______ ____
ROOT
ATOM      1  C   UNL     1       0.953   8.300  20.894  0.00  0.00    +0.000 A 
ATOM      2  C   UNL     1       0.176   8.020  22.024  0.00  0.00    +0.000 A 
ATOM      3  C   UNL     1      -0.472   9.052  22.694  0.00  0.00    +0.000 A 
ATOM      4  C   UNL     1      -0.330  10.367  22.250  0.00  0.00    +0.000 A 
ATOM      5  C   UNL     1       0.459  10.669  21.135  0.00  0.00    +0.000 A 
ATOM      6  C   UNL     1       1.082   9.622  20.445  0.00  0.00    +0.000 A 
ENDROOT
BRANCH   1  11
ATOM      7  C   UNL     1       5.232   6.291  17.258  0.00  0.00    +0.000 A 
ATOM      8  C   UNL     1       4.319   7.131  17.872  0.00  0.00    +0.000 A 
ATOM      9  C   UNL     1       3.313   6.601  18.676  0.00  0.00    +0.000 A 
ATOM     10  O   UNL     1       2.537   7.578  19.260  0.00  0.00    +0.000 OA
ATOM     11  C   UNL     1       1.604   7.199  20.185  0.00  0.00    +0.000 A 
ATOM     12  C   UNL     1       1.295   5.932  20.460  0.00  0.00    +0.000 A 
ATOM     13  C   UNL     1       1.988   4.852  19.744  0.00  0.00    +0.000 A 
ATOM     14  O   UNL     1       1.538   3.731  19.922  0.00  0.00    +0.000 OA
ATOM     15  C   UNL     1       3.147   5.212  18.865  0.00  0.00    +0.000 A 
ATOM     16  C   UNL     1       4.059   4.332  18.224  0.00  0.00    +0.000 A 
ATOM     17  C   UNL     1       5.101   4.895  17.417  0.00  0.00    +0.000 A 
BRANCH   7  19
ATOM     18  C   UNL     1       7.307   7.424  17.125  0.00  0.00    +0.000 C 
ATOM     19  O   UNL     1       6.241   6.757  16.454  0.00  0.00    +0.000 OA
ENDBRANCH   7  19
BRANCH  16  20
ATOM     20  O   UNL     1       4.142   2.973  18.277  0.00  0.00    +0.000 OA
ATOM     21  C   UNL     1       4.471   2.202  19.408  0.00  0.00    +0.000 C 
ENDBRANCH  16  20
BRANCH  17  22
ATOM     22  O   UNL     1       6.128   4.194  16.813  0.00  0.00    +0.000 OA
ATOM     23  C   UNL     1       5.975   3.718  15.482  0.00  0.00    +0.000 C 
ENDBRANCH  17  22
ENDBRANCH   1  11
BRANCH   5  24
ATOM     24  N   UNL     1       0.639  11.986  20.650  0.00  0.00    +0.000 N 
ATOM     25  C   UNL     1       0.078  12.496  19.491  0.00  0.00    +0.000 C 
ATOM     26  O   UNL     1      -0.728  11.917  18.769  0.00  0.00    +0.000 OA
ATOM     27  H   UNL     1       1.208  12.591  21.223  0.00  0.00    +0.000 HD
BRANCH  25  28
ATOM     28  C   UNL     1       0.494  13.866  19.074  0.00  0.00    +0.000 A 
ATOM     29  C   UNL     1       1.844  14.037  18.717  0.00  0.00    +0.000 A 
ATOM     30  C   UNL     1       2.330  15.280  18.315  0.00  0.00    +0.000 A 
ATOM     31  C   UNL     1       1.456  16.369  18.260  0.00  0.00    +0.000 A 
ATOM     32  C   UNL     1       0.101  16.213  18.593  0.00  0.00    +0.000 A 
ATOM     33  C   UNL     1      -0.379  14.960  18.996  0.00  0.00    +0.000 A 
BRANCH  31  34
ATOM     34  N   UNL     1       1.964  17.684  17.849  0.00  0.00    +0.000 N 
ATOM     35  O   UNL     1       1.820  18.631  18.634  0.00  0.00    +0.000 OA
ATOM     36  O   UNL     1       2.503  17.768  16.737  0.00  0.00    +0.000 OA
ENDBRANCH  31  34
ENDBRANCH  25  28
ENDBRANCH   5  24
TORSDOF 7
ENDMDL
MODEL 7
REMARK VINA RESULT:      -7.8      3.413      9.822
REMARK  Name = 
REMARK  10 active torsions:
REMARK  status: ('A' for Active; 'I' for Inactive)
REMARK    1  A    between atoms: C_1  and  O_2
REMARK    2  A    between atoms: O_2  and  C_3
REMARK    3  A    between atoms: C_7  and  C_8
REMARK    4  A    between atoms: C_12  and  N_13
REMARK    5  A    between atoms: C_14  and  C_16
REMARK    6  A    between atoms: C_19  and  N_20
REMARK    7  A    between atoms: C_30  and  O_31
REMARK    8  A    between atoms: O_31  and  C_32
REMARK    9  A    between atoms: C_33  and  O_34
REMARK   10  A    between atoms: O_34  and  C_35
REMARK                            x       y       z     vdW  Elec       q    Type
REMARK                         _______ _______ _______ _____ _____    ______ ____
ROOT
ATOM      1  C   UNL     1       1.636   6.727  20.344  0.00  0.00    +0.000 A 
ATOM      2  C   UNL     1       1.159   5.624  21.060  0.00  0.00    +0.000 A 
ATOM      3  C   UNL     1       1.477   4.336  20.644  0.00  0.00    +0.000 A 
ATOM      4  C   UNL     1       2.257   4.146  19.502  0.00  0.00    +0.000 A 
ATOM      5  C   UNL     1       2.726   5.235  18.762  0.00  0.00    +0.000 A 
ATOM      6  C   UNL     1       2.430   6.530  19.204  0.00  0.00    +0.000 A 
ENDROOT
BRANCH   1  11
ATOM      7  C   UNL     1       0.807  12.531  19.248  0.00  0.00    +0.000 A 
ATOM      8  C   UNL     1       1.254  11.225  19.138  0.00  0.00    +0.000 A 
ATOM      9  C   UNL     1       1.102  10.342  20.205  0.00  0.00    +0.000 A 
ATOM     10  O   UNL     1       1.539   9.071  19.902  0.00  0.00    +0.000 OA
ATOM     11  C   UNL     1       1.315   8.075  20.812  0.00  0.00    +0.000 A 
ATOM     12  C   UNL     1       0.827   8.275  22.036  0.00  0.00    +0.000 A 
ATOM     13  C   UNL     1       0.493   9.641  22.462  0.00  0.00    +0.000 A 
ATOM     14  O   UNL     1       0.214   9.769  23.644  0.00  0.00    +0.000 OA
ATOM     15  C   UNL     1       0.540  10.735  21.439  0.00  0.00    +0.000 A 
ATOM     16  C   UNL     1       0.097  12.077  21.580  0.00  0.00    +0.000 A 
ATOM     17  C   UNL     1       0.243  12.967  20.466  0.00  0.00    +0.000 A 
BRANCH   7  19
ATOM     18  C   UNL     1       2.262  13.882  17.959  0.00  0.00    +0.000 C 
ATOM     19  O   UNL     1       0.934  13.444  18.231  0.00  0.00    +0.000 OA
ENDBRANCH   7  19
BRANCH  16  20
ATOM     20  O   UNL     1      -0.509  12.688  22.636  0.00  0.00    +0.000 OA
ATOM     21  C   UNL     1      -1.854  12.540  23.025  0.00  0.00    +0.000 C 
ENDBRANCH  16  20
BRANCH  17  22
ATOM     22  O   UNL     1      -0.227  14.265  20.397  0.00  0.00    +0.000 OA
ATOM     23  C   UNL     1       0.523  15.323  20.980  0.00  0.00    +0.000 C 
ENDBRANCH  17  22
ENDBRANCH   1  11
BRANCH   5  24
ATOM     24  N   UNL     1       3.514   5.095  17.595  0.00  0.00    +0.000 N 
ATOM     25  C   UNL     1       4.834   4.678  17.565  0.00  0.00    +0.000 C 
ATOM     26  O   UNL     1       5.482   4.280  18.528  0.00  0.00    +0.000 OA
ATOM     27  H   UNL     1       3.047   5.299  16.723  0.00  0.00    +0.000 HD
BRANCH  25  28
ATOM     28  C   UNL     1       5.537   4.723  16.250  0.00  0.00    +0.000 A 
ATOM     29  C   UNL     1       6.786   5.369  16.221  0.00  0.00    +0.000 A 
ATOM     30  C   UNL     1       7.519   5.464  15.039  0.00  0.00    +0.000 A 
ATOM     31  C   UNL     1       7.004   4.900  13.869  0.00  0.00    +0.000 A 
ATOM     32  C   UNL     1       5.768   4.233  13.884  0.00  0.00    +0.000 A 
ATOM     33  C   UNL     1       5.037   4.142  15.076  0.00  0.00    +0.000 A 
BRANCH  31  34
ATOM     34  N   UNL     1       7.765   5.007  12.619  0.00  0.00    +0.000 N 
ATOM     35  O   UNL     1       8.603   5.915  12.528  0.00  0.00    +0.000 OA
ATOM     36  O   UNL     1       7.521   4.184  11.726  0.00  0.00    +0.000 OA
ENDBRANCH  31  34
ENDBRANCH  25  28
ENDBRANCH   5  24
TORSDOF 7
ENDMDL
MODEL 8
REMARK VINA RESULT:      -7.8      2.543     10.342
REMARK  Name = 
REMARK  10 active torsions:
REMARK  status: ('A' for Active; 'I' for Inactive)
REMARK    1  A    between atoms: C_1  and  O_2
REMARK    2  A    between atoms: O_2  and  C_3
REMARK    3  A    between atoms: C_7  and  C_8
REMARK    4  A    between atoms: C_12  and  N_13
REMARK    5  A    between atoms: C_14  and  C_16
REMARK    6  A    between atoms: C_19  and  N_20
REMARK    7  A    between atoms: C_30  and  O_31
REMARK    8  A    between atoms: O_31  and  C_32
REMARK    9  A    between atoms: C_33  and  O_34
REMARK   10  A    between atoms: O_34  and  C_35
REMARK                            x       y       z     vdW  Elec       q    Type
REMARK                         _______ _______ _______ _____ _____    ______ ____
ROOT
ATOM      1  C   UNL     1       0.514  10.988  20.467  0.00  0.00    +0.000 A 
ATOM      2  C   UNL     1      -0.035  10.401  21.612  0.00  0.00    +0.000 A 
ATOM      3  C   UNL     1       0.181   9.052  21.872  0.00  0.00    +0.000 A 
ATOM      4  C   UNL     1       0.928   8.282  20.979  0.00  0.00    +0.000 A 
ATOM      5  C   UNL     1       1.467   8.846  19.819  0.00  0.00    +0.000 A 
ATOM      6  C   UNL     1       1.274  10.212  19.580  0.00  0.00    +0.000 A 
ENDROOT
BRANCH   1  11
ATOM      7  C   UNL     1       2.466  16.244  18.435  0.00  0.00    +0.000 A 
ATOM      8  C   UNL     1       2.452  14.959  18.951  0.00  0.00    +0.000 A 
ATOM      9  C   UNL     1       1.268  14.416  19.443  0.00  0.00    +0.000 A 
ATOM     10  O   UNL     1       1.418  13.110  19.853  0.00  0.00    +0.000 OA
ATOM     11  C   UNL     1       0.301  12.414  20.225  0.00  0.00    +0.000 A 
ATOM     12  C   UNL     1      -0.910  12.955  20.350  0.00  0.00    +0.000 A 
ATOM     13  C   UNL     1      -1.090  14.388  20.075  0.00  0.00    +0.000 A 
ATOM     14  O   UNL     1      -2.181  14.847  20.373  0.00  0.00    +0.000 OA
ATOM     15  C   UNL     1       0.060  15.146  19.483  0.00  0.00    +0.000 A 
ATOM     16  C   UNL     1       0.059  16.475  18.981  0.00  0.00    +0.000 A 
ATOM     17  C   UNL     1       1.282  17.010  18.460  0.00  0.00    +0.000 A 
BRANCH   7  19
ATOM     18  C   UNL     1       4.806  16.538  18.648  0.00  0.00    +0.000 C 
ATOM     19  O   UNL     1       3.604  16.830  17.940  0.00  0.00    +0.000 OA
ENDBRANCH   7  19
BRANCH  16  20
ATOM     20  O   UNL     1      -0.968  17.363  18.869  0.00  0.00    +0.000 OA
ATOM     21  C   UNL     1      -1.410  18.255  19.866  0.00  0.00    +0.000 C 
ENDBRANCH  16  20
BRANCH  17  22
ATOM     22  O   UNL     1       1.432  18.237  17.841  0.00  0.00    +0.000 OA
ATOM     23  C   UNL     1       0.995  18.414  16.500  0.00  0.00    +0.000 C 
ENDBRANCH  17  22
ENDBRANCH   1  11
BRANCH   5  24
ATOM     24  N   UNL     1       2.225   8.107  18.880  0.00  0.00    +0.000 N 
ATOM     25  C   UNL     1       2.574   6.773  19.005  0.00  0.00    +0.000 C 
ATOM     26  O   UNL     1       2.201   6.014  19.895  0.00  0.00    +0.000 OA
ATOM     27  H   UNL     1       2.504   8.608  18.049  0.00  0.00    +0.000 HD
BRANCH  25  28
ATOM     28  C   UNL     1       3.492   6.206  17.976  0.00  0.00    +0.000 A 
ATOM     29  C   UNL     1       4.297   7.120  17.273  0.00  0.00    +0.000 A 
ATOM     30  C   UNL     1       5.187   6.687  16.290  0.00  0.00    +0.000 A 
ATOM     31  C   UNL     1       5.281   5.321  16.009  0.00  0.00    +0.000 A 
ATOM     32  C   UNL     1       4.500   4.393  16.716  0.00  0.00    +0.000 A 
ATOM     33  C   UNL     1       3.609   4.836  17.701  0.00  0.00    +0.000 A 
BRANCH  31  34
ATOM     34  N   UNL     1       6.207   4.860  14.967  0.00  0.00    +0.000 N 
ATOM     35  O   UNL     1       5.791   4.025  14.153  0.00  0.00    +0.000 OA
ATOM     36  O   UNL     1       7.353   5.332  14.968  0.00  0.00    +0.000 OA
ENDBRANCH  31  34
ENDBRANCH  25  28
ENDBRANCH   5  24
TORSDOF 7
ENDMDL
MODEL 9
REMARK VINA RESULT:      -7.6      4.666     11.264
REMARK  Name = 
REMARK  10 active torsions:
REMARK  status: ('A' for Active; 'I' for Inactive)
REMARK    1  A    between atoms: C_1  and  O_2
REMARK    2  A    between atoms: O_2  and  C_3
REMARK    3  A    between atoms: C_7  and  C_8
REMARK    4  A    between atoms: C_12  and  N_13
REMARK    5  A    between atoms: C_14  and  C_16
REMARK    6  A    between atoms: C_19  and  N_20
REMARK    7  A    between atoms: C_30  and  O_31
REMARK    8  A    between atoms: O_31  and  C_32
REMARK    9  A    between atoms: C_33  and  O_34
REMARK   10  A    between atoms: O_34  and  C_35
REMARK                            x       y       z     vdW  Elec       q    Type
REMARK                         _______ _______ _______ _____ _____    ______ ____
ROOT
ATOM      1  C   UNL     1       0.202  11.871  19.610  0.00  0.00    +0.000 A 
ATOM      2  C   UNL     1       0.986  12.836  18.968  0.00  0.00    +0.000 A 
ATOM      3  C   UNL     1       2.057  12.443  18.172  0.00  0.00    +0.000 A 
ATOM      4  C   UNL     1       2.358  11.087  18.031  0.00  0.00    +0.000 A 
ATOM      5  C   UNL     1       1.598  10.110  18.680  0.00  0.00    +0.000 A 
ATOM      6  C   UNL     1       0.501  10.510  19.453  0.00  0.00    +0.000 A 
ENDROOT
BRANCH   1  11
ATOM      7  C   UNL     1      -5.678  12.582  20.313  0.00  0.00    +0.000 A 
ATOM      8  C   UNL     1      -4.433  12.448  19.721  0.00  0.00    +0.000 A 
ATOM      9  C   UNL     1      -3.278  12.576  20.488  0.00  0.00    +0.000 A 
ATOM     10  O   UNL     1      -2.133  12.347  19.756  0.00  0.00    +0.000 OA
ATOM     11  C   UNL     1      -0.938  12.301  20.419  0.00  0.00    +0.000 A 
ATOM     12  C   UNL     1      -0.786  12.601  21.709  0.00  0.00    +0.000 A 
ATOM     13  C   UNL     1      -1.959  13.006  22.496  0.00  0.00    +0.000 A 
ATOM     14  O   UNL     1      -1.719  13.427  23.617  0.00  0.00    +0.000 OA
ATOM     15  C   UNL     1      -3.313  12.886  21.864  0.00  0.00    +0.000 A 
ATOM     16  C   UNL     1      -4.580  13.052  22.485  0.00  0.00    +0.000 A 
ATOM     17  C   UNL     1      -5.759  12.897  21.686  0.00  0.00    +0.000 A 
BRANCH   7  19
ATOM     18  C   UNL     1      -7.044  11.230  18.931  0.00  0.00    +0.000 C 
ATOM     19  O   UNL     1      -6.849  12.469  19.606  0.00  0.00    +0.000 OA
ENDBRANCH   7  19
BRANCH  16  20
ATOM     20  O   UNL     1      -4.884  13.310  23.787  0.00  0.00    +0.000 OA
ATOM     21  C   UNL     1      -4.802  12.399  24.859  0.00  0.00    +0.000 C 
ENDBRANCH  16  20
BRANCH  17  22
ATOM     22  O   UNL     1      -7.061  12.919  22.148  0.00  0.00    +0.000 OA
ATOM     23  C   UNL     1      -7.727  14.162  22.333  0.00  0.00    +0.000 C 
ENDBRANCH  17  22
ENDBRANCH   1  11
BRANCH   5  24
ATOM     24  N   UNL     1       1.866   8.724  18.574  0.00  0.00    +0.000 N 
ATOM     25  C   UNL     1       1.930   7.837  19.635  0.00  0.00    +0.000 C 
ATOM     26  O   UNL     1       1.672   8.100  20.806  0.00  0.00    +0.000 OA
ATOM     27  H   UNL     1       1.995   8.373  17.636  0.00  0.00    +0.000 HD
BRANCH  25  28
ATOM     28  C   UNL     1       2.359   6.441  19.336  0.00  0.00    +0.000 A 
ATOM     29  C   UNL     1       2.133   5.480  20.338  0.00  0.00    +0.000 A 
ATOM     30  C   UNL     1       2.500   4.147  20.153  0.00  0.00    +0.000 A 
ATOM     31  C   UNL     1       3.094   3.765  18.948  0.00  0.00    +0.000 A 
ATOM     32  C   UNL     1       3.308   4.706  17.928  0.00  0.00    +0.000 A 
ATOM     33  C   UNL     1       2.936   6.043  18.122  0.00  0.00    +0.000 A 
BRANCH  31  34
ATOM     34  N   UNL     1       3.494   2.366  18.751  0.00  0.00    +0.000 N 
ATOM     35  O   UNL     1       4.303   1.878  19.552  0.00  0.00    +0.000 OA
ATOM     36  O   UNL     1       3.000   1.758  17.791  0.00  0.00    +0.000 OA
ENDBRANCH  31  34
ENDBRANCH  25  28
ENDBRANCH   5  24
TORSDOF 7
ENDMDL
