MODEL 1
REMARK VINA RESULT:      -8.2      0.000      0.000
REMARK  Name = 
REMARK  8 active torsions:
REMARK  status: ('A' for Active; 'I' for Inactive)
REMARK    1  A    between atoms: C_1  and  C_2
REMARK    2  A    between atoms: C_2  and  N_3
REMARK    3  A    between atoms: C_2  and  C_20
REMARK    4  A    between atoms: C_9  and  N_10
REMARK    5  A    between atoms: C_15  and  C_16
REMARK    6  A    between atoms: C_16  and  C_17
REMARK    7  A    between atoms: C_16  and  O_18
REMARK    8  A    between atoms: N_23  and  C_24
REMARK                            x       y       z     vdW  Elec       q    Type
REMARK                         _______ _______ _______ _____ _____    ______ ____
ROOT
ATOM      1  N   UNL     1       1.447   9.012  17.681  0.00  0.00    +0.000 N 
ATOM      2  C   UNL     1       2.242   8.025  18.232  0.00  0.00    +0.000 A 
ATOM      3  N   UNL     1       1.978   7.612  19.482  0.00  0.00    +0.000 NA
ATOM      4  C   UNL     1       2.667   6.556  19.951  0.00  0.00    +0.000 A 
ATOM      5  C   UNL     1       3.583   5.878  19.203  0.00  0.00    +0.000 A 
ATOM      6  F   UNL     1       4.282   4.859  19.720  0.00  0.00    +0.000 F 
ATOM      7  C   UNL     1       3.828   6.385  17.942  0.00  0.00    +0.000 A 
ATOM      8  N   UNL     1       3.206   7.492  17.456  0.00  0.00    +0.000 NA
ATOM      9  H   UNL     1       1.843   9.380  16.829  0.00  0.00    +0.000 HD
ENDROOT
BRANCH   7  10
ATOM     10  N   UNL     1       4.804   5.742  17.169  0.00  0.00    +0.000 N 
ATOM     11  C   UNL     1       4.619   4.483  16.646  0.00  0.00    +0.000 C 
ATOM     12  O   UNL     1       3.669   3.740  16.820  0.00  0.00    +0.000 OA
ATOM     13  O   UNL     1       5.667   4.174  15.823  0.00  0.00    +0.000 OA
ATOM     14  C   UNL     1       6.676   5.172  16.000  0.00  0.00    +0.000 C 
ATOM     15  C   UNL     1       5.974   6.369  16.631  0.00  0.00    +0.000 C 
BRANCH  15  16
ATOM     16  C   UNL     1       6.854   7.038  17.712  0.00  0.00    +0.000 C 
ATOM     17  C   UNL     1       7.647   6.044  18.552  0.00  0.00    +0.000 C 
BRANCH  16  18
ATOM     18  O   UNL     1       7.797   7.952  17.147  0.00  0.00    +0.000 OA
ATOM     19  H   UNL     1       8.653   7.842  17.601  0.00  0.00    +0.000 HD
ENDBRANCH  16  18
ENDBRANCH  15  16
ENDBRANCH   7  10
BRANCH   1  21
ATOM     20  C   UNL     1       1.638  11.249  18.633  0.00  0.00    +0.000 C 
ATOM     21  C   UNL     1       0.805   9.958  18.587  0.00  0.00    +0.000 C 
BRANCH  21  22
ATOM     22  C   UNL     1      -0.635  10.257  18.249  0.00  0.00    +0.000 A 
ATOM     23  C   UNL     1      -1.381   9.774  17.151  0.00  0.00    +0.000 A 
ATOM     24  N   UNL     1      -2.655  10.172  17.171  0.00  0.00    +0.000 NA
ATOM     25  N   UNL     1      -2.752  10.965  18.266  0.00  0.00    +0.000 N 
ATOM     26  C   UNL     1      -1.549  11.032  18.935  0.00  0.00    +0.000 A 
BRANCH  25  27
ATOM     27  C   UNL     1      -3.971  11.612  18.615  0.00  0.00    +0.000 A 
ATOM     28  C   UNL     1      -4.002  12.526  19.680  0.00  0.00    +0.000 A 
ATOM     29  C   UNL     1      -5.204  13.145  20.042  0.00  0.00    +0.000 A 
ATOM     30  C   UNL     1      -6.374  12.850  19.346  0.00  0.00    +0.000 A 
ATOM     31 CL   UNL     1      -7.859  13.588  19.804  0.00  0.00    +0.000 Cl
ATOM     32  C   UNL     1      -6.353  11.952  18.281  0.00  0.00    +0.000 A 
ATOM     33  C   UNL     1      -5.155  11.338  17.914  0.00  0.00    +0.000 A 
ENDBRANCH  25  27
ENDBRANCH  21  22
ENDBRANCH   1  21
TORSDOF 6
ENDMDL
MODEL 2
REMARK VINA RESULT:      -7.8      1.921      2.338
REMARK  Name = 
REMARK  8 active torsions:
REMARK  status: ('A' for Active; 'I' for Inactive)
REMARK    1  A    between atoms: C_1  and  C_2
REMARK    2  A    between atoms: C_2  and  N_3
REMARK    3  A    between atoms: C_2  and  C_20
REMARK    4  A    between atoms: C_9  and  N_10
REMARK    5  A    between atoms: C_15  and  C_16
REMARK    6  A    between atoms: C_16  and  C_17
REMARK    7  A    between atoms: C_16  and  O_18
REMARK    8  A    between atoms: N_23  and  C_24
REMARK                            x       y       z     vdW  Elec       q    Type
REMARK                         _______ _______ _______ _____ _____    ______ ____
ROOT
ATOM      1  N   UNL     1       1.377   9.928  18.039  0.00  0.00    +0.000 N 
ATOM      2  C   UNL     1       1.770   8.775  18.693  0.00  0.00    +0.000 A 
ATOM      3  N   UNL     1       1.492   8.652  20.001  0.00  0.00    +0.000 NA
ATOM      4  C   UNL     1       1.754   7.471  20.588  0.00  0.00    +0.000 A 
ATOM      5  C   UNL     1       2.250   6.399  19.908  0.00  0.00    +0.000 A 
ATOM      6  F   UNL     1       2.540   5.253  20.537  0.00  0.00    +0.000 F 
ATOM      7  C   UNL     1       2.547   6.615  18.577  0.00  0.00    +0.000 A 
ATOM      8  N   UNL     1       2.365   7.813  17.962  0.00  0.00    +0.000 NA
ATOM      9  H   UNL     1       1.798  10.003  17.126  0.00  0.00    +0.000 HD
ENDROOT
BRANCH   7  10
ATOM     10  N   UNL     1       3.111   5.547  17.863  0.00  0.00    +0.000 N 
ATOM     11  C   UNL     1       2.390   4.425  17.525  0.00  0.00    +0.000 C 
ATOM     12  O   UNL     1       1.241   4.160  17.834  0.00  0.00    +0.000 OA
ATOM     13  O   UNL     1       3.148   3.626  16.715  0.00  0.00    +0.000 OA
ATOM     14  C   UNL     1       4.483   4.136  16.715  0.00  0.00    +0.000 C 
ATOM     15  C   UNL     1       4.380   5.577  17.202  0.00  0.00    +0.000 C 
BRANCH  15  16
ATOM     16  C   UNL     1       5.547   5.942  18.148  0.00  0.00    +0.000 C 
ATOM     17  C   UNL     1       5.804   4.898  19.229  0.00  0.00    +0.000 C 
BRANCH  16  18
ATOM     18  O   UNL     1       6.777   6.120  17.441  0.00  0.00    +0.000 OA
ATOM     19  H   UNL     1       6.855   5.425  16.762  0.00  0.00    +0.000 HD
ENDBRANCH  16  18
ENDBRANCH  15  16
ENDBRANCH   7  10
BRANCH   1  21
ATOM     20  C   UNL     1       2.037  12.273  18.128  0.00  0.00    +0.000 C 
ATOM     21  C   UNL     1       1.251  11.151  18.825  0.00  0.00    +0.000 C 
BRANCH  21  22
ATOM     22  C   UNL     1      -0.174  11.573  19.087  0.00  0.00    +0.000 A 
ATOM     23  C   UNL     1      -1.198  11.787  18.139  0.00  0.00    +0.000 A 
ATOM     24  N   UNL     1      -2.372  12.089  18.698  0.00  0.00    +0.000 NA
ATOM     25  N   UNL     1      -2.121  12.124  20.030  0.00  0.00    +0.000 N 
ATOM     26  C   UNL     1      -0.804  11.815  20.292  0.00  0.00    +0.000 A 
BRANCH  25  27
ATOM     27  C   UNL     1      -3.136  12.447  20.974  0.00  0.00    +0.000 A 
ATOM     28  C   UNL     1      -2.845  12.446  22.347  0.00  0.00    +0.000 A 
ATOM     29  C   UNL     1      -3.847  12.740  23.280  0.00  0.00    +0.000 A 
ATOM     30  C   UNL     1      -5.139  13.028  22.843  0.00  0.00    +0.000 A 
ATOM     31 CL   UNL     1      -6.380  13.362  23.987  0.00  0.00    +0.000 Cl
ATOM     32  C   UNL     1      -5.436  13.041  21.483  0.00  0.00    +0.000 A 
ATOM     33  C   UNL     1      -4.437  12.756  20.550  0.00  0.00    +0.000 A 
ENDBRANCH  25  27
ENDBRANCH  21  22
ENDBRANCH   1  21
TORSDOF 6
ENDMDL
MODEL 3
REMARK VINA RESULT:      -7.7      1.973      2.417
REMARK  Name = 
REMARK  8 active torsions:
REMARK  status: ('A' for Active; 'I' for Inactive)
REMARK    1  A    between atoms: C_1  and  C_2
REMARK    2  A    between atoms: C_2  and  N_3
REMARK    3  A    between atoms: C_2  and  C_20
REMARK    4  A    between atoms: C_9  and  N_10
REMARK    5  A    between atoms: C_15  and  C_16
REMARK    6  A    between atoms: C_16  and  C_17
REMARK    7  A    between atoms: C_16  and  O_18
REMARK    8  A    between atoms: N_23  and  C_24
REMARK                            x       y       z     vdW  Elec       q    Type
REMARK                         _______ _______ _______ _____ _____    ______ ____
ROOT
ATOM      1  N   UNL     1       1.708   9.270  18.031  0.00  0.00    +0.000 N 
ATOM      2  C   UNL     1       1.945   8.115  18.753  0.00  0.00    +0.000 A 
ATOM      3  N   UNL     1       1.675   8.114  20.069  0.00  0.00    +0.000 NA
ATOM      4  C   UNL     1       1.777   6.946  20.727  0.00  0.00    +0.000 A 
ATOM      5  C   UNL     1       2.103   5.774  20.112  0.00  0.00    +0.000 A 
ATOM      6  F   UNL     1       2.238   4.639  20.810  0.00  0.00    +0.000 F 
ATOM      7  C   UNL     1       2.403   5.862  18.767  0.00  0.00    +0.000 A 
ATOM      8  N   UNL     1       2.383   7.034  18.079  0.00  0.00    +0.000 NA
ATOM      9  H   UNL     1       2.119   9.228  17.111  0.00  0.00    +0.000 HD
ENDROOT
BRANCH   7  10
ATOM     10  N   UNL     1       2.796   4.683  18.118  0.00  0.00    +0.000 N 
ATOM     11  C   UNL     1       1.904   3.880  17.446  0.00  0.00    +0.000 C 
ATOM     12  O   UNL     1       0.694   4.014  17.373  0.00  0.00    +0.000 OA
ATOM     13  O   UNL     1       2.585   2.889  16.795  0.00  0.00    +0.000 OA
ATOM     14  C   UNL     1       3.941   2.916  17.247  0.00  0.00    +0.000 C 
ATOM     15  C   UNL     1       4.150   4.295  17.862  0.00  0.00    +0.000 C 
BRANCH  15  16
ATOM     16  C   UNL     1       5.012   4.221  19.143  0.00  0.00    +0.000 C 
ATOM     17  C   UNL     1       4.729   2.990  19.996  0.00  0.00    +0.000 C 
BRANCH  16  18
ATOM     18  O   UNL     1       6.411   4.214  18.851  0.00  0.00    +0.000 OA
ATOM     19  H   UNL     1       6.798   5.061  19.138  0.00  0.00    +0.000 HD
ENDBRANCH  16  18
ENDBRANCH  15  16
ENDBRANCH   7  10
BRANCH   1  21
ATOM     20  C   UNL     1       2.518  11.563  17.862  0.00  0.00    +0.000 C 
ATOM     21  C   UNL     1       1.772  10.544  18.738  0.00  0.00    +0.000 C 
BRANCH  21  22
ATOM     22  C   UNL     1       0.428  11.082  19.166  0.00  0.00    +0.000 A 
ATOM     23  C   UNL     1       0.116  11.775  20.356  0.00  0.00    +0.000 A 
ATOM     24  N   UNL     1      -1.155  12.179  20.407  0.00  0.00    +0.000 NA
ATOM     25  N   UNL     1      -1.711  11.712  19.262  0.00  0.00    +0.000 N 
ATOM     26  C   UNL     1      -0.778  11.049  18.495  0.00  0.00    +0.000 A 
BRANCH  25  27
ATOM     27  C   UNL     1      -3.086  11.919  18.960  0.00  0.00    +0.000 A 
ATOM     28  C   UNL     1      -3.921  12.558  19.890  0.00  0.00    +0.000 A 
ATOM     29  C   UNL     1      -5.280  12.742  19.607  0.00  0.00    +0.000 A 
ATOM     30  C   UNL     1      -5.806  12.284  18.401  0.00  0.00    +0.000 A 
ATOM     31 CL   UNL     1      -7.481  12.484  18.060  0.00  0.00    +0.000 Cl
ATOM     32  C   UNL     1      -4.985  11.658  17.466  0.00  0.00    +0.000 A 
ATOM     33  C   UNL     1      -3.628  11.479  17.743  0.00  0.00    +0.000 A 
ENDBRANCH  25  27
ENDBRANCH  21  22
ENDBRANCH   1  21
TORSDOF 6
ENDMDL
MODEL 4
REMARK VINA RESULT:      -7.7      1.479      2.033
REMARK  Name = 
REMARK  8 active torsions:
REMARK  status: ('A' for Active; 'I' for Inactive)
REMARK    1  A    between atoms: C_1  and  C_2
REMARK    2  A    between atoms: C_2  and  N_3
REMARK    3  A    between atoms: C_2  and  C_20
REMARK    4  A    between atoms: C_9  and  N_10
REMARK    5  A    between atoms: C_15  and  C_16
REMARK    6  A    between atoms: C_16  and  C_17
REMARK    7  A    between atoms: C_16  and  O_18
REMARK    8  A    between atoms: N_23  and  C_24
REMARK                            x       y       z     vdW  Elec       q    Type
REMARK                         _______ _______ _______ _____ _____    ______ ____
ROOT
ATOM      1  N   UNL     1       1.726   9.848  17.920  0.00  0.00    +0.000 N 
ATOM      2  C   UNL     1       2.030   8.669  18.575  0.00  0.00    +0.000 A 
ATOM      3  N   UNL     1       1.680   8.543  19.865  0.00  0.00    +0.000 NA
ATOM      4  C   UNL     1       1.854   7.343  20.446  0.00  0.00    +0.000 A 
ATOM      5  C   UNL     1       2.332   6.257  19.775  0.00  0.00    +0.000 A 
ATOM      6  F   UNL     1       2.534   5.090  20.400  0.00  0.00    +0.000 F 
ATOM      7  C   UNL     1       2.706   6.475  18.463  0.00  0.00    +0.000 A 
ATOM      8  N   UNL     1       2.614   7.688  17.859  0.00  0.00    +0.000 NA
ATOM      9  H   UNL     1       2.196   9.915  17.030  0.00  0.00    +0.000 HD
ENDROOT
BRANCH   7  10
ATOM     10  N   UNL     1       3.252   5.390  17.763  0.00  0.00    +0.000 N 
ATOM     11  C   UNL     1       2.509   4.284  17.420  0.00  0.00    +0.000 C 
ATOM     12  O   UNL     1       1.350   4.049  17.715  0.00  0.00    +0.000 OA
ATOM     13  O   UNL     1       3.257   3.463  16.624  0.00  0.00    +0.000 OA
ATOM     14  C   UNL     1       4.605   3.940  16.639  0.00  0.00    +0.000 C 
ATOM     15  C   UNL     1       4.531   5.386  17.118  0.00  0.00    +0.000 C 
BRANCH  15  16
ATOM     16  C   UNL     1       5.694   5.727  18.077  0.00  0.00    +0.000 C 
ATOM     17  C   UNL     1       5.834   4.747  19.236  0.00  0.00    +0.000 C 
BRANCH  16  18
ATOM     18  O   UNL     1       6.954   5.759  17.404  0.00  0.00    +0.000 OA
ATOM     19  H   UNL     1       7.471   4.974  17.661  0.00  0.00    +0.000 HD
ENDBRANCH  16  18
ENDBRANCH  15  16
ENDBRANCH   7  10
BRANCH   1  21
ATOM     20  C   UNL     1       2.200  12.240  17.912  0.00  0.00    +0.000 C 
ATOM     21  C   UNL     1       1.620  11.065  18.717  0.00  0.00    +0.000 C 
BRANCH  21  22
ATOM     22  C   UNL     1       0.221  11.374  19.190  0.00  0.00    +0.000 A 
ATOM     23  C   UNL     1      -0.199  11.668  20.506  0.00  0.00    +0.000 A 
ATOM     24  N   UNL     1      -1.498  11.964  20.586  0.00  0.00    +0.000 NA
ATOM     25  N   UNL     1      -1.963  11.822  19.320  0.00  0.00    +0.000 N 
ATOM     26  C   UNL     1      -0.946  11.469  18.458  0.00  0.00    +0.000 A 
BRANCH  25  27
ATOM     27  C   UNL     1      -3.334  12.028  18.999  0.00  0.00    +0.000 A 
ATOM     28  C   UNL     1      -3.833  11.618  17.753  0.00  0.00    +0.000 A 
ATOM     29  C   UNL     1      -5.176  11.841  17.424  0.00  0.00    +0.000 A 
ATOM     30  C   UNL     1      -6.017  12.475  18.336  0.00  0.00    +0.000 A 
ATOM     31 CL   UNL     1      -7.662  12.775  17.926  0.00  0.00    +0.000 Cl
ATOM     32  C   UNL     1      -5.535  12.876  19.579  0.00  0.00    +0.000 A 
ATOM     33  C   UNL     1      -4.198  12.650  19.912  0.00  0.00    +0.000 A 
ENDBRANCH  25  27
ENDBRANCH  21  22
ENDBRANCH   1  21
TORSDOF 6
ENDMDL
MODEL 5
REMARK VINA RESULT:      -7.6      6.142     11.218
REMARK  Name = 
REMARK  8 active torsions:
REMARK  status: ('A' for Active; 'I' for Inactive)
REMARK    1  A    between atoms: C_1  and  C_2
REMARK    2  A    between atoms: C_2  and  N_3
REMARK    3  A    between atoms: C_2  and  C_20
REMARK    4  A    between atoms: C_9  and  N_10
REMARK    5  A    between atoms: C_15  and  C_16
REMARK    6  A    between atoms: C_16  and  C_17
REMARK    7  A    between atoms: C_16  and  O_18
REMARK    8  A    between atoms: N_23  and  C_24
REMARK                            x       y       z     vdW  Elec       q    Type
REMARK                         _______ _______ _______ _____ _____    ______ ____
ROOT
ATOM      1  N   UNL     1      -1.541  11.451  19.609  0.00  0.00    +0.000 N 
ATOM      2  C   UNL     1      -2.734  11.681  18.951  0.00  0.00    +0.000 A 
ATOM      3  N   UNL     1      -2.842  11.306  17.666  0.00  0.00    +0.000 NA
ATOM      4  C   UNL     1      -4.050  11.407  17.083  0.00  0.00    +0.000 A 
ATOM      5  C   UNL     1      -5.160  11.835  17.749  0.00  0.00    +0.000 A 
ATOM      6  F   UNL     1      -6.336  11.964  17.122  0.00  0.00    +0.000 F 
ATOM      7  C   UNL     1      -4.963  12.238  19.055  0.00  0.00    +0.000 A 
ATOM      8  N   UNL     1      -3.746  12.220  19.660  0.00  0.00    +0.000 NA
ATOM      9  H   UNL     1      -1.500  11.936  20.493  0.00  0.00    +0.000 HD
ENDROOT
BRANCH   7  10
ATOM     10  N   UNL     1      -6.076  12.734  19.749  0.00  0.00    +0.000 N 
ATOM     11  C   UNL     1      -6.882  11.929  20.520  0.00  0.00    +0.000 C 
ATOM     12  O   UNL     1      -6.809  10.721  20.657  0.00  0.00    +0.000 OA
ATOM     13  O   UNL     1      -7.791  12.703  21.187  0.00  0.00    +0.000 OA
ATOM     14  C   UNL     1      -7.719  14.027  20.654  0.00  0.00    +0.000 C 
ATOM     15  C   UNL     1      -6.372  14.121  19.946  0.00  0.00    +0.000 C 
BRANCH  15  16
ATOM     16  C   UNL     1      -6.480  14.911  18.622  0.00  0.00    +0.000 C 
ATOM     17  C   UNL     1      -7.916  15.206  18.204  0.00  0.00    +0.000 C 
BRANCH  16  18
ATOM     18  O   UNL     1      -5.800  16.167  18.688  0.00  0.00    +0.000 OA
ATOM     19  H   UNL     1      -4.981  16.055  19.205  0.00  0.00    +0.000 HD
ENDBRANCH  16  18
ENDBRANCH  15  16
ENDBRANCH   7  10
BRANCH   1  21
ATOM     20  C   UNL     1       0.484  12.689  19.051  0.00  0.00    +0.000 C 
ATOM     21  C   UNL     1      -0.320  11.400  18.813  0.00  0.00    +0.000 C 
BRANCH  21  22
ATOM     22  C   UNL     1       0.531  10.179  19.063  0.00  0.00    +0.000 A 
ATOM     23  C   UNL     1       0.760   9.525  20.294  0.00  0.00    +0.000 A 
ATOM     24  N   UNL     1       1.510   8.428  20.171  0.00  0.00    +0.000 NA
ATOM     25  N   UNL     1       1.826   8.373  18.853  0.00  0.00    +0.000 N 
ATOM     26  C   UNL     1       1.247   9.415  18.163  0.00  0.00    +0.000 A 
BRANCH  25  27
ATOM     27  C   UNL     1       2.653   7.342  18.326  0.00  0.00    +0.000 A 
ATOM     28  C   UNL     1       2.500   6.020  18.773  0.00  0.00    +0.000 A 
ATOM     29  C   UNL     1       3.328   5.007  18.273  0.00  0.00    +0.000 A 
ATOM     30  C   UNL     1       4.311   5.314  17.335  0.00  0.00    +0.000 A 
ATOM     31 CL   UNL     1       5.349   4.078  16.739  0.00  0.00    +0.000 Cl
ATOM     32  C   UNL     1       4.465   6.620  16.878  0.00  0.00    +0.000 A 
ATOM     33  C   UNL     1       3.637   7.631  17.368  0.00  0.00    +0.000 A 
ENDBRANCH  25  27
ENDBRANCH  21  22
ENDBRANCH   1  21
TORSDOF 6
ENDMDL
MODEL 6
REMARK VINA RESULT:      -7.6      3.548      4.246
REMARK  Name = 
REMARK  8 active torsions:
REMARK  status: ('A' for Active; 'I' for Inactive)
REMARK    1  A    between atoms: C_1  and  C_2
REMARK    2  A    between atoms: C_2  and  N_3
REMARK    3  A    between atoms: C_2  and  C_20
REMARK    4  A    between atoms: C_9  and  N_10
REMARK    5  A    between atoms: C_15  and  C_16
REMARK    6  A    between atoms: C_16  and  C_17
REMARK    7  A    between atoms: C_16  and  O_18
REMARK    8  A    between atoms: N_23  and  C_24
REMARK                            x       y       z     vdW  Elec       q    Type
REMARK                         _______ _______ _______ _____ _____    ______ ____
ROOT
ATOM      1  N   UNL     1       1.506   8.169  20.216  0.00  0.00    +0.000 N 
ATOM      2  C   UNL     1       2.181   7.547  19.183  0.00  0.00    +0.000 A 
ATOM      3  N   UNL     1       2.968   8.292  18.389  0.00  0.00    +0.000 NA
ATOM      4  C   UNL     1       3.725   7.652  17.480  0.00  0.00    +0.000 A 
ATOM      5  C   UNL     1       3.750   6.295  17.360  0.00  0.00    +0.000 A 
ATOM      6  F   UNL     1       4.484   5.697  16.413  0.00  0.00    +0.000 F 
ATOM      7  C   UNL     1       2.887   5.600  18.184  0.00  0.00    +0.000 A 
ATOM      8  N   UNL     1       2.052   6.210  19.066  0.00  0.00    +0.000 NA
ATOM      9  H   UNL     1       0.805   7.567  20.622  0.00  0.00    +0.000 HD
ENDROOT
BRANCH   7  10
ATOM     10  N   UNL     1       2.850   4.205  18.046  0.00  0.00    +0.000 N 
ATOM     11  C   UNL     1       1.770   3.546  17.506  0.00  0.00    +0.000 C 
ATOM     12  O   UNL     1       0.709   4.028  17.151  0.00  0.00    +0.000 OA
ATOM     13  O   UNL     1       2.072   2.220  17.363  0.00  0.00    +0.000 OA
ATOM     14  C   UNL     1       3.304   1.971  18.046  0.00  0.00    +0.000 C 
ATOM     15  C   UNL     1       3.973   3.332  18.208  0.00  0.00    +0.000 C 
BRANCH  15  16
ATOM     16  C   UNL     1       4.653   3.469  19.590  0.00  0.00    +0.000 C 
ATOM     17  C   UNL     1       4.854   2.137  20.304  0.00  0.00    +0.000 C 
BRANCH  16  18
ATOM     18  O   UNL     1       5.936   4.091  19.499  0.00  0.00    +0.000 OA
ATOM     19  H   UNL     1       6.291   4.217  20.398  0.00  0.00    +0.000 HD
ENDBRANCH  16  18
ENDBRANCH  15  16
ENDBRANCH   7  10
BRANCH   1  21
ATOM     20  C   UNL     1       0.400   9.771  18.749  0.00  0.00    +0.000 C 
ATOM     21  C   UNL     1       1.174   9.581  20.064  0.00  0.00    +0.000 C 
BRANCH  21  22
ATOM     22  C   UNL     1       0.412  10.166  21.227  0.00  0.00    +0.000 A 
ATOM     23  C   UNL     1       0.302   9.645  22.535  0.00  0.00    +0.000 A 
ATOM     24  N   UNL     1      -0.391  10.437  23.356  0.00  0.00    +0.000 NA
ATOM     25  N   UNL     1      -0.787  11.476  22.580  0.00  0.00    +0.000 N 
ATOM     26  C   UNL     1      -0.315  11.338  21.293  0.00  0.00    +0.000 A 
BRANCH  25  27
ATOM     27  C   UNL     1      -1.586  12.534  23.098  0.00  0.00    +0.000 A 
ATOM     28  C   UNL     1      -1.030  13.810  23.279  0.00  0.00    +0.000 A 
ATOM     29  C   UNL     1      -1.807  14.847  23.811  0.00  0.00    +0.000 A 
ATOM     30  C   UNL     1      -3.132  14.609  24.167  0.00  0.00    +0.000 A 
ATOM     31 CL   UNL     1      -4.082  15.873  24.846  0.00  0.00    +0.000 Cl
ATOM     32  C   UNL     1      -3.697  13.349  23.982  0.00  0.00    +0.000 A 
ATOM     33  C   UNL     1      -2.927  12.315  23.446  0.00  0.00    +0.000 A 
ENDBRANCH  25  27
ENDBRANCH  21  22
ENDBRANCH   1  21
TORSDOF 6
ENDMDL
MODEL 7
REMARK VINA RESULT:      -7.5      6.247     10.345
REMARK  Name = 
REMARK  8 active torsions:
REMARK  status: ('A' for Active; 'I' for Inactive)
REMARK    1  A    between atoms: C_1  and  C_2
REMARK    2  A    between atoms: C_2  and  N_3
REMARK    3  A    between atoms: C_2  and  C_20
REMARK    4  A    between atoms: C_9  and  N_10
REMARK    5  A    between atoms: C_15  and  C_16
REMARK    6  A    between atoms: C_16  and  C_17
REMARK    7  A    between atoms: C_16  and  O_18
REMARK    8  A    between atoms: N_23  and  C_24
REMARK                            x       y       z     vdW  Elec       q    Type
REMARK                         _______ _______ _______ _____ _____    ______ ____
ROOT
ATOM      1  N   UNL     1       0.650  11.598  18.361  0.00  0.00    +0.000 N 
ATOM      2  C   UNL     1       0.833  12.750  19.102  0.00  0.00    +0.000 A 
ATOM      3  N   UNL     1       1.054  12.636  20.422  0.00  0.00    +0.000 NA
ATOM      4  C   UNL     1       1.370  13.753  21.102  0.00  0.00    +0.000 A 
ATOM      5  C   UNL     1       1.507  14.970  20.505  0.00  0.00    +0.000 A 
ATOM      6  F   UNL     1       1.779  16.067  21.223  0.00  0.00    +0.000 F 
ATOM      7  C   UNL     1       1.227  15.014  19.153  0.00  0.00    +0.000 A 
ATOM      8  N   UNL     1       0.835  13.925  18.442  0.00  0.00    +0.000 NA
ATOM      9  H   UNL     1       0.304  11.798  17.435  0.00  0.00    +0.000 HD
ENDROOT
BRANCH   7  10
ATOM     10  N   UNL     1       1.307  16.264  18.521  0.00  0.00    +0.000 N 
ATOM     11  C   UNL     1       2.492  16.773  18.044  0.00  0.00    +0.000 C 
ATOM     12  O   UNL     1       3.605  16.288  18.151  0.00  0.00    +0.000 OA
ATOM     13  O   UNL     1       2.245  17.928  17.354  0.00  0.00    +0.000 OA
ATOM     14  C   UNL     1       0.885  18.300  17.588  0.00  0.00    +0.000 C 
ATOM     15  C   UNL     1       0.186  17.037  18.082  0.00  0.00    +0.000 C 
BRANCH  15  16
ATOM     16  C   UNL     1      -0.817  17.350  19.216  0.00  0.00    +0.000 C 
ATOM     17  C   UNL     1      -0.470  18.608  20.005  0.00  0.00    +0.000 C 
BRANCH  16  18
ATOM     18  O   UNL     1      -2.149  17.520  18.726  0.00  0.00    +0.000 OA
ATOM     19  H   UNL     1      -2.126  17.549  17.752  0.00  0.00    +0.000 HD
ENDBRANCH  16  18
ENDBRANCH  15  16
ENDBRANCH   7  10
BRANCH   1  21
ATOM     20  C   UNL     1      -1.226  10.041  18.384  0.00  0.00    +0.000 C 
ATOM     21  C   UNL     1       0.110  10.426  19.041  0.00  0.00    +0.000 C 
BRANCH  21  22
ATOM     22  C   UNL     1       1.050   9.246  19.082  0.00  0.00    +0.000 A 
ATOM     23  C   UNL     1       1.424   8.481  20.209  0.00  0.00    +0.000 A 
ATOM     24  N   UNL     1       2.224   7.457  19.902  0.00  0.00    +0.000 NA
ATOM     25  N   UNL     1       2.425   7.565  18.565  0.00  0.00    +0.000 N 
ATOM     26  C   UNL     1       1.728   8.635  18.046  0.00  0.00    +0.000 A 
BRANCH  25  27
ATOM     27  C   UNL     1       3.262   6.656  17.859  0.00  0.00    +0.000 A 
ATOM     28  C   UNL     1       2.985   5.280  17.886  0.00  0.00    +0.000 A 
ATOM     29  C   UNL     1       3.821   4.381  17.213  0.00  0.00    +0.000 A 
ATOM     30  C   UNL     1       4.932   4.852  16.518  0.00  0.00    +0.000 A 
ATOM     31 CL   UNL     1       5.977   3.748  15.711  0.00  0.00    +0.000 Cl
ATOM     32  C   UNL     1       5.210   6.216  16.476  0.00  0.00    +0.000 A 
ATOM     33  C   UNL     1       4.376   7.117  17.141  0.00  0.00    +0.000 A 
ENDBRANCH  25  27
ENDBRANCH  21  22
ENDBRANCH   1  21
TORSDOF 6
ENDMDL
MODEL 8
REMARK VINA RESULT:      -7.5      3.574      4.705
REMARK  Name = 
REMARK  8 active torsions:
REMARK  status: ('A' for Active; 'I' for Inactive)
REMARK    1  A    between atoms: C_1  and  C_2
REMARK    2  A    between atoms: C_2  and  N_3
REMARK    3  A    between atoms: C_2  and  C_20
REMARK    4  A    between atoms: C_9  and  N_10
REMARK    5  A    between atoms: C_15  and  C_16
REMARK    6  A    between atoms: C_16  and  C_17
REMARK    7  A    between atoms: C_16  and  O_18
REMARK    8  A    between atoms: N_23  and  C_24
REMARK                            x       y       z     vdW  Elec       q    Type
REMARK                         _______ _______ _______ _____ _____    ______ ____
ROOT
ATOM      1  N   UNL     1       1.570   8.535  20.643  0.00  0.00    +0.000 N 
ATOM      2  C   UNL     1       2.188   7.803  19.647  0.00  0.00    +0.000 A 
ATOM      3  N   UNL     1       2.514   8.425  18.502  0.00  0.00    +0.000 NA
ATOM      4  C   UNL     1       3.239   7.738  17.601  0.00  0.00    +0.000 A 
ATOM      5  C   UNL     1       3.677   6.465  17.818  0.00  0.00    +0.000 A 
ATOM      6  F   UNL     1       4.358   5.798  16.878  0.00  0.00    +0.000 F 
ATOM      7  C   UNL     1       3.269   5.880  19.000  0.00  0.00    +0.000 A 
ATOM      8  N   UNL     1       2.477   6.513  19.906  0.00  0.00    +0.000 NA
ATOM      9  H   UNL     1       1.198   7.941  21.369  0.00  0.00    +0.000 HD
ENDROOT
BRANCH   7  10
ATOM     10  N   UNL     1       3.658   4.552  19.227  0.00  0.00    +0.000 N 
ATOM     11  C   UNL     1       4.950   4.208  19.549  0.00  0.00    +0.000 C 
ATOM     12  O   UNL     1       5.920   4.944  19.612  0.00  0.00    +0.000 OA
ATOM     13  O   UNL     1       5.004   2.877  19.854  0.00  0.00    +0.000 OA
ATOM     14  C   UNL     1       3.750   2.291  19.496  0.00  0.00    +0.000 C 
ATOM     15  C   UNL     1       2.762   3.448  19.394  0.00  0.00    +0.000 C 
BRANCH  15  16
ATOM     16  C   UNL     1       1.796   3.266  18.201  0.00  0.00    +0.000 C 
ATOM     17  C   UNL     1       2.506   3.032  16.873  0.00  0.00    +0.000 C 
BRANCH  16  18
ATOM     18  O   UNL     1       0.902   2.168  18.395  0.00  0.00    +0.000 OA
ATOM     19  H   UNL     1       0.716   1.756  17.531  0.00  0.00    +0.000 HD
ENDBRANCH  16  18
ENDBRANCH  15  16
ENDBRANCH   7  10
BRANCH   1  21
ATOM     20  C   UNL     1      -0.155   9.289  19.094  0.00  0.00    +0.000 C 
ATOM     21  C   UNL     1       0.776   9.693  20.249  0.00  0.00    +0.000 C 
BRANCH  21  22
ATOM     22  C   UNL     1      -0.006  10.320  21.377  0.00  0.00    +0.000 A 
ATOM     23  C   UNL     1      -0.332   9.743  22.625  0.00  0.00    +0.000 A 
ATOM     24  N   UNL     1      -0.978  10.584  23.435  0.00  0.00    +0.000 NA
ATOM     25  N   UNL     1      -1.128  11.719  22.708  0.00  0.00    +0.000 N 
ATOM     26  C   UNL     1      -0.549  11.587  21.464  0.00  0.00    +0.000 A 
BRANCH  25  27
ATOM     27  C   UNL     1      -1.805  12.856  23.228  0.00  0.00    +0.000 A 
ATOM     28  C   UNL     1      -1.122  14.073  23.381  0.00  0.00    +0.000 A 
ATOM     29  C   UNL     1      -1.780  15.188  23.915  0.00  0.00    +0.000 A 
ATOM     30  C   UNL     1      -3.114  15.088  24.300  0.00  0.00    +0.000 A 
ATOM     31 CL   UNL     1      -3.919  16.447  24.982  0.00  0.00    +0.000 Cl
ATOM     32  C   UNL     1      -3.805  13.889  24.144  0.00  0.00    +0.000 A 
ATOM     33  C   UNL     1      -3.154  12.777  23.606  0.00  0.00    +0.000 A 
ENDBRANCH  25  27
ENDBRANCH  21  22
ENDBRANCH   1  21
TORSDOF 6
ENDMDL
MODEL 9
REMARK VINA RESULT:      -7.5      1.544      1.954
REMARK  Name = 
REMARK  8 active torsions:
REMARK  status: ('A' for Active; 'I' for Inactive)
REMARK    1  A    between atoms: C_1  and  C_2
REMARK    2  A    between atoms: C_2  and  N_3
REMARK    3  A    between atoms: C_2  and  C_20
REMARK    4  A    between atoms: C_9  and  N_10
REMARK    5  A    between atoms: C_15  and  C_16
REMARK    6  A    between atoms: C_16  and  C_17
REMARK    7  A    between atoms: C_16  and  O_18
REMARK    8  A    between atoms: N_23  and  C_24
REMARK                            x       y       z     vdW  Elec       q    Type
REMARK                         _______ _______ _______ _____ _____    ______ ____
ROOT
ATOM      1  N   UNL     1       1.734   9.936  17.836  0.00  0.00    +0.000 N 
ATOM      2  C   UNL     1       2.015   8.775  18.531  0.00  0.00    +0.000 A 
ATOM      3  N   UNL     1       1.719   8.722  19.840  0.00  0.00    +0.000 NA
ATOM      4  C   UNL     1       1.867   7.542  20.468  0.00  0.00    +0.000 A 
ATOM      5  C   UNL     1       2.266   6.407  19.828  0.00  0.00    +0.000 A 
ATOM      6  F   UNL     1       2.444   5.261  20.497  0.00  0.00    +0.000 F 
ATOM      7  C   UNL     1       2.589   6.549  18.493  0.00  0.00    +0.000 A 
ATOM      8  N   UNL     1       2.522   7.737  17.837  0.00  0.00    +0.000 NA
ATOM      9  H   UNL     1       2.166   9.941  16.924  0.00  0.00    +0.000 HD
ENDROOT
BRANCH   7  10
ATOM     10  N   UNL     1       3.054   5.410  17.820  0.00  0.00    +0.000 N 
ATOM     11  C   UNL     1       2.247   4.328  17.557  0.00  0.00    +0.000 C 
ATOM     12  O   UNL     1       1.091   4.162  17.907  0.00  0.00    +0.000 OA
ATOM     13  O   UNL     1       2.922   3.438  16.769  0.00  0.00    +0.000 OA
ATOM     14  C   UNL     1       4.290   3.849  16.710  0.00  0.00    +0.000 C 
ATOM     15  C   UNL     1       4.303   5.316  17.127  0.00  0.00    +0.000 C 
BRANCH  15  16
ATOM     16  C   UNL     1       5.520   5.641  18.023  0.00  0.00    +0.000 C 
ATOM     17  C   UNL     1       6.614   4.580  17.973  0.00  0.00    +0.000 C 
BRANCH  16  18
ATOM     18  O   UNL     1       6.130   6.885  17.672  0.00  0.00    +0.000 OA
ATOM     19  H   UNL     1       6.935   6.706  17.151  0.00  0.00    +0.000 HD
ENDBRANCH  16  18
ENDBRANCH  15  16
ENDBRANCH   7  10
BRANCH   1  21
ATOM     20  C   UNL     1       2.714  12.166  17.931  0.00  0.00    +0.000 C 
ATOM     21  C   UNL     1       1.718  11.191  18.580  0.00  0.00    +0.000 C 
BRANCH  21  22
ATOM     22  C   UNL     1       0.351  11.818  18.703  0.00  0.00    +0.000 A 
ATOM     23  C   UNL     1       0.019  13.188  18.603  0.00  0.00    +0.000 A 
ATOM     24  N   UNL     1      -1.293  13.414  18.692  0.00  0.00    +0.000 NA
ATOM     25  N   UNL     1      -1.841  12.191  18.901  0.00  0.00    +0.000 N 
ATOM     26  C   UNL     1      -0.871  11.211  18.910  0.00  0.00    +0.000 A 
BRANCH  25  27
ATOM     27  C   UNL     1      -3.243  12.020  19.078  0.00  0.00    +0.000 A 
ATOM     28  C   UNL     1      -3.891  12.621  20.168  0.00  0.00    +0.000 A 
ATOM     29  C   UNL     1      -5.266  12.435  20.359  0.00  0.00    +0.000 A 
ATOM     30  C   UNL     1      -5.990  11.646  19.468  0.00  0.00    +0.000 A 
ATOM     31 CL   UNL     1      -7.674  11.393  19.714  0.00  0.00    +0.000 Cl
ATOM     32  C   UNL     1      -5.359  11.053  18.378  0.00  0.00    +0.000 A 
ATOM     33  C   UNL     1      -3.990  11.242  18.181  0.00  0.00    +0.000 A 
ENDBRANCH  25  27
ENDBRANCH  21  22
ENDBRANCH   1  21
TORSDOF 6
ENDMDL
