MODEL 1
REMARK VINA RESULT:      -8.5      0.000      0.000
REMARK  Name = 
REMARK  6 active torsions:
REMARK  status: ('A' for Active; 'I' for Inactive)
REMARK    1  A    between atoms: C_1  and  C_2
REMARK    2  A    between atoms: C_7  and  S_8
REMARK    3  A    between atoms: S_8  and  C_9
REMARK    4  A    between atoms: C_9  and  C_10
REMARK    5  A    between atoms: N_12  and  S_13
REMARK    6  A    between atoms: S_13  and  C_16
REMARK                            x       y       z     vdW  Elec       q    Type
REMARK                         _______ _______ _______ _____ _____    ______ ____
ROOT
ATOM      1  C   UNL     1       7.788   7.699  17.782  0.00  0.00    +0.000 C 
ATOM      2  O   UNL     1       8.242   7.005  18.684  0.00  0.00    +0.000 OA
ATOM      3  N   UNL     1       7.138   7.140  16.669  0.00  0.00    +0.000 N 
ATOM      4  H   UNL     1       6.683   7.744  15.987  0.00  0.00    +0.000 HD
ENDROOT
BRANCH   3   5
ATOM      5  S   UNL     1       6.865   5.519  16.423  0.00  0.00    +0.000 S 
ATOM      6  O   UNL     1       6.732   5.360  14.987  0.00  0.00    +0.000 OA
ATOM      7  O   UNL     1       7.858   4.771  17.160  0.00  0.00    +0.000 OA
BRANCH   5   8
ATOM      8  C   UNL     1       5.263   5.219  17.121  0.00  0.00    +0.000 A 
ATOM      9  C   UNL     1       4.419   6.290  17.442  0.00  0.00    +0.000 A 
ATOM     10  C   UNL     1       3.162   6.033  17.999  0.00  0.00    +0.000 A 
ATOM     11  C   UNL     1       2.760   4.717  18.231  0.00  0.00    +0.000 A 
ATOM     12  C   UNL     1       3.604   3.653  17.892  0.00  0.00    +0.000 A 
ATOM     13  C   UNL     1       4.867   3.899  17.359  0.00  0.00    +0.000 A 
ATOM     14  O   UNL     1       3.260   2.337  18.062  0.00  0.00    +0.000 OA
ATOM     15  C   UNL     1       1.852   2.189  18.270  0.00  0.00    +0.000 C 
ATOM     16  C   UNL     1       1.346   3.207  19.280  0.00  0.00    +0.000 C 
ATOM     17  O   UNL     1       1.518   4.541  18.787  0.00  0.00    +0.000 OA
ENDBRANCH   5   8
ENDBRANCH   3   5
BRANCH   1  18
ATOM     18  C   UNL     1       7.968   9.216  17.786  0.00  0.00    +0.000 C 
BRANCH  18  19
ATOM     19  S   UNL     1       9.200   9.756  19.027  0.00  0.00    +0.000 S 
BRANCH  19  26
ATOM     20  C   UNL     1      11.544  11.783  20.052  0.00  0.00    +0.000 C 
ATOM     21  C   UNL     1      10.471  12.300  19.134  0.00  0.00    +0.000 A 
ATOM     22  C   UNL     1      10.470  13.681  18.847  0.00  0.00    +0.000 A 
ATOM     23  C   UNL     1       9.481  14.254  18.051  0.00  0.00    +0.000 A 
ATOM     24  C   UNL     1       8.482  13.452  17.518  0.00  0.00    +0.000 A 
ATOM     25  C   UNL     1       8.468  12.080  17.788  0.00  0.00    +0.000 A 
ATOM     26  C   UNL     1       9.456  11.485  18.594  0.00  0.00    +0.000 A 
ENDBRANCH  19  26
ENDBRANCH  18  19
ENDBRANCH   1  18
TORSDOF 5
ENDMDL
MODEL 2
REMARK VINA RESULT:      -8.5      1.292      1.370
REMARK  Name = 
REMARK  6 active torsions:
REMARK  status: ('A' for Active; 'I' for Inactive)
REMARK    1  A    between atoms: C_1  and  C_2
REMARK    2  A    between atoms: C_7  and  S_8
REMARK    3  A    between atoms: S_8  and  C_9
REMARK    4  A    between atoms: C_9  and  C_10
REMARK    5  A    between atoms: N_12  and  S_13
REMARK    6  A    between atoms: S_13  and  C_16
REMARK                            x       y       z     vdW  Elec       q    Type
REMARK                         _______ _______ _______ _____ _____    ______ ____
ROOT
ATOM      1  C   UNL     1       7.866   7.839  17.883  0.00  0.00    +0.000 C 
ATOM      2  O   UNL     1       8.235   7.071  18.764  0.00  0.00    +0.000 OA
ATOM      3  N   UNL     1       7.122   7.398  16.777  0.00  0.00    +0.000 N 
ATOM      4  H   UNL     1       6.743   8.072  16.114  0.00  0.00    +0.000 HD
ENDROOT
BRANCH   3   5
ATOM      5  S   UNL     1       6.617   5.837  16.512  0.00  0.00    +0.000 S 
ATOM      6  O   UNL     1       6.094   5.820  15.158  0.00  0.00    +0.000 OA
ATOM      7  O   UNL     1       7.681   4.940  16.903  0.00  0.00    +0.000 OA
BRANCH   5   8
ATOM      8  C   UNL     1       5.233   5.618  17.597  0.00  0.00    +0.000 A 
ATOM      9  C   UNL     1       4.217   6.582  17.652  0.00  0.00    +0.000 A 
ATOM     10  C   UNL     1       3.137   6.395  18.520  0.00  0.00    +0.000 A 
ATOM     11  C   UNL     1       3.078   5.255  19.323  0.00  0.00    +0.000 A 
ATOM     12  C   UNL     1       4.089   4.290  19.248  0.00  0.00    +0.000 A 
ATOM     13  C   UNL     1       5.181   4.477  18.405  0.00  0.00    +0.000 A 
ATOM     14  O   UNL     1       4.078   3.132  19.983  0.00  0.00    +0.000 OA
ATOM     15  C   UNL     1       2.781   2.872  20.528  0.00  0.00    +0.000 C 
ATOM     16  C   UNL     1       2.196   4.131  21.149  0.00  0.00    +0.000 C 
ATOM     17  O   UNL     1       1.993   5.142  20.156  0.00  0.00    +0.000 OA
ENDBRANCH   5   8
ENDBRANCH   3   5
BRANCH   1  18
ATOM     18  C   UNL     1       8.259   9.316  17.907  0.00  0.00    +0.000 C 
BRANCH  18  19
ATOM     19  S   UNL     1       9.112   9.771  19.460  0.00  0.00    +0.000 S 
BRANCH  19  26
ATOM     20  C   UNL     1       9.235  12.465  21.301  0.00  0.00    +0.000 C 
ATOM     21  C   UNL     1       9.779  12.503  19.900  0.00  0.00    +0.000 A 
ATOM     22  C   UNL     1      10.222  13.749  19.409  0.00  0.00    +0.000 A 
ATOM     23  C   UNL     1      10.690  13.887  18.103  0.00  0.00    +0.000 A 
ATOM     24  C   UNL     1      10.736  12.777  17.272  0.00  0.00    +0.000 A 
ATOM     25  C   UNL     1      10.305  11.533  17.742  0.00  0.00    +0.000 A 
ATOM     26  C   UNL     1       9.824  11.375  19.055  0.00  0.00    +0.000 A 
ENDBRANCH  19  26
ENDBRANCH  18  19
ENDBRANCH   1  18
TORSDOF 5
ENDMDL
MODEL 3
REMARK VINA RESULT:      -8.3      0.791      1.551
REMARK  Name = 
REMARK  6 active torsions:
REMARK  status: ('A' for Active; 'I' for Inactive)
REMARK    1  A    between atoms: C_1  and  C_2
REMARK    2  A    between atoms: C_7  and  S_8
REMARK    3  A    between atoms: S_8  and  C_9
REMARK    4  A    between atoms: C_9  and  C_10
REMARK    5  A    between atoms: N_12  and  S_13
REMARK    6  A    between atoms: S_13  and  C_16
REMARK                            x       y       z     vdW  Elec       q    Type
REMARK                         _______ _______ _______ _____ _____    ______ ____
ROOT
ATOM      1  C   UNL     1       7.965   7.860  17.847  0.00  0.00    +0.000 C 
ATOM      2  O   UNL     1       8.363   7.227  18.818  0.00  0.00    +0.000 OA
ATOM      3  N   UNL     1       7.378   7.229  16.738  0.00  0.00    +0.000 N 
ATOM      4  H   UNL     1       6.965   7.787  15.992  0.00  0.00    +0.000 HD
ENDROOT
BRANCH   3   5
ATOM      5  S   UNL     1       7.112   5.596  16.584  0.00  0.00    +0.000 S 
ATOM      6  O   UNL     1       7.105   5.334  15.156  0.00  0.00    +0.000 OA
ATOM      7  O   UNL     1       8.028   4.899  17.458  0.00  0.00    +0.000 OA
BRANCH   5   8
ATOM      8  C   UNL     1       5.452   5.351  17.156  0.00  0.00    +0.000 A 
ATOM      9  C   UNL     1       4.605   6.449  17.362  0.00  0.00    +0.000 A 
ATOM     10  C   UNL     1       3.302   6.237  17.820  0.00  0.00    +0.000 A 
ATOM     11  C   UNL     1       2.854   4.939  18.070  0.00  0.00    +0.000 A 
ATOM     12  C   UNL     1       3.702   3.848  17.845  0.00  0.00    +0.000 A 
ATOM     13  C   UNL     1       5.010   4.049  17.411  0.00  0.00    +0.000 A 
ATOM     14  O   UNL     1       3.318   2.545  18.038  0.00  0.00    +0.000 OA
ATOM     15  C   UNL     1       1.895   2.430  18.132  0.00  0.00    +0.000 C 
ATOM     16  C   UNL     1       1.328   3.497  19.055  0.00  0.00    +0.000 C 
ATOM     17  O   UNL     1       1.567   4.807  18.526  0.00  0.00    +0.000 OA
ENDBRANCH   5   8
ENDBRANCH   3   5
BRANCH   1  18
ATOM     18  C   UNL     1       8.152   9.374  17.762  0.00  0.00    +0.000 C 
BRANCH  18  19
ATOM     19  S   UNL     1       8.973  10.048  19.251  0.00  0.00    +0.000 S 
BRANCH  19  26
ATOM     20  C   UNL     1       7.967  12.566  17.433  0.00  0.00    +0.000 C 
ATOM     21  C   UNL     1       9.429  12.423  17.751  0.00  0.00    +0.000 A 
ATOM     22  C   UNL     1      10.318  13.337  17.149  0.00  0.00    +0.000 A 
ATOM     23  C   UNL     1      11.695  13.245  17.344  0.00  0.00    +0.000 A 
ATOM     24  C   UNL     1      12.204  12.243  18.158  0.00  0.00    +0.000 A 
ATOM     25  C   UNL     1      11.339  11.330  18.768  0.00  0.00    +0.000 A 
ATOM     26  C   UNL     1       9.946  11.405  18.578  0.00  0.00    +0.000 A 
ENDBRANCH  19  26
ENDBRANCH  18  19
ENDBRANCH   1  18
TORSDOF 5
ENDMDL
MODEL 4
REMARK VINA RESULT:      -8.3      0.796      1.633
REMARK  Name = 
REMARK  6 active torsions:
REMARK  status: ('A' for Active; 'I' for Inactive)
REMARK    1  A    between atoms: C_1  and  C_2
REMARK    2  A    between atoms: C_7  and  S_8
REMARK    3  A    between atoms: S_8  and  C_9
REMARK    4  A    between atoms: C_9  and  C_10
REMARK    5  A    between atoms: N_12  and  S_13
REMARK    6  A    between atoms: S_13  and  C_16
REMARK                            x       y       z     vdW  Elec       q    Type
REMARK                         _______ _______ _______ _____ _____    ______ ____
ROOT
ATOM      1  C   UNL     1       7.909   6.867  18.333  0.00  0.00    +0.000 C 
ATOM      2  O   UNL     1       7.698   5.970  19.141  0.00  0.00    +0.000 OA
ATOM      3  N   UNL     1       7.612   6.722  16.969  0.00  0.00    +0.000 N 
ATOM      4  H   UNL     1       7.702   7.517  16.338  0.00  0.00    +0.000 HD
ENDROOT
BRANCH   3   5
ATOM      5  S   UNL     1       6.927   5.381  16.266  0.00  0.00    +0.000 S 
ATOM      6  O   UNL     1       6.667   5.752  14.887  0.00  0.00    +0.000 OA
ATOM      7  O   UNL     1       7.745   4.232  16.579  0.00  0.00    +0.000 OA
BRANCH   5   8
ATOM      8  C   UNL     1       5.348   5.212  17.055  0.00  0.00    +0.000 A 
ATOM      9  C   UNL     1       4.524   6.330  17.237  0.00  0.00    +0.000 A 
ATOM     10  C   UNL     1       3.286   6.178  17.868  0.00  0.00    +0.000 A 
ATOM     11  C   UNL     1       2.881   4.919  18.313  0.00  0.00    +0.000 A 
ATOM     12  C   UNL     1       3.705   3.805  18.112  0.00  0.00    +0.000 A 
ATOM     13  C   UNL     1       4.949   3.949  17.505  0.00  0.00    +0.000 A 
ATOM     14  O   UNL     1       3.356   2.534  18.493  0.00  0.00    +0.000 OA
ATOM     15  C   UNL     1       1.955   2.438  18.768  0.00  0.00    +0.000 C 
ATOM     16  C   UNL     1       1.494   3.605  19.627  0.00  0.00    +0.000 C 
ATOM     17  O   UNL     1       1.658   4.846  18.931  0.00  0.00    +0.000 OA
ENDBRANCH   5   8
ENDBRANCH   3   5
BRANCH   1  18
ATOM     18  C   UNL     1       8.576   8.173  18.760  0.00  0.00    +0.000 C 
BRANCH  18  19
ATOM     19  S   UNL     1       8.052   9.583  17.719  0.00  0.00    +0.000 S 
BRANCH  19  26
ATOM     20  C   UNL     1       7.737  12.774  17.108  0.00  0.00    +0.000 C 
ATOM     21  C   UNL     1       8.797  12.307  18.066  0.00  0.00    +0.000 A 
ATOM     22  C   UNL     1       9.685  13.277  18.576  0.00  0.00    +0.000 A 
ATOM     23  C   UNL     1      10.732  12.925  19.426  0.00  0.00    +0.000 A 
ATOM     24  C   UNL     1      10.898  11.597  19.791  0.00  0.00    +0.000 A 
ATOM     25  C   UNL     1      10.025  10.622  19.300  0.00  0.00    +0.000 A 
ATOM     26  C   UNL     1       8.967  10.958  18.436  0.00  0.00    +0.000 A 
ENDBRANCH  19  26
ENDBRANCH  18  19
ENDBRANCH   1  18
TORSDOF 5
ENDMDL
MODEL 5
REMARK VINA RESULT:      -8.2      1.578      1.800
REMARK  Name = 
REMARK  6 active torsions:
REMARK  status: ('A' for Active; 'I' for Inactive)
REMARK    1  A    between atoms: C_1  and  C_2
REMARK    2  A    between atoms: C_7  and  S_8
REMARK    3  A    between atoms: S_8  and  C_9
REMARK    4  A    between atoms: C_9  and  C_10
REMARK    5  A    between atoms: N_12  and  S_13
REMARK    6  A    between atoms: S_13  and  C_16
REMARK                            x       y       z     vdW  Elec       q    Type
REMARK                         _______ _______ _______ _____ _____    ______ ____
ROOT
ATOM      1  C   UNL     1       7.702   7.862  17.613  0.00  0.00    +0.000 C 
ATOM      2  O   UNL     1       6.850   8.333  16.867  0.00  0.00    +0.000 OA
ATOM      3  N   UNL     1       7.917   6.479  17.715  0.00  0.00    +0.000 N 
ATOM      4  H   UNL     1       8.697   6.122  18.264  0.00  0.00    +0.000 HD
ENDROOT
BRANCH   3   5
ATOM      5  S   UNL     1       7.106   5.308  16.857  0.00  0.00    +0.000 S 
ATOM      6  O   UNL     1       6.850   5.889  15.551  0.00  0.00    +0.000 OA
ATOM      7  O   UNL     1       7.832   4.065  16.982  0.00  0.00    +0.000 OA
BRANCH   5   8
ATOM      8  C   UNL     1       5.536   5.158  17.666  0.00  0.00    +0.000 A 
ATOM      9  C   UNL     1       4.494   6.043  17.359  0.00  0.00    +0.000 A 
ATOM     10  C   UNL     1       3.265   5.913  18.013  0.00  0.00    +0.000 A 
ATOM     11  C   UNL     1       3.086   4.908  18.965  0.00  0.00    +0.000 A 
ATOM     12  C   UNL     1       4.128   4.019  19.253  0.00  0.00    +0.000 A 
ATOM     13  C   UNL     1       5.363   4.154  18.624  0.00  0.00    +0.000 A 
ATOM     14  O   UNL     1       4.011   2.989  20.151  0.00  0.00    +0.000 OA
ATOM     15  C   UNL     1       2.640   2.722  20.462  0.00  0.00    +0.000 C 
ATOM     16  C   UNL     1       1.889   4.015  20.739  0.00  0.00    +0.000 C 
ATOM     17  O   UNL     1       1.857   4.846  19.572  0.00  0.00    +0.000 OA
ENDBRANCH   5   8
ENDBRANCH   3   5
BRANCH   1  18
ATOM     18  C   UNL     1       8.533   8.760  18.527  0.00  0.00    +0.000 C 
BRANCH  18  19
ATOM     19  S   UNL     1       8.390  10.526  18.068  0.00  0.00    +0.000 S 
BRANCH  19  26
ATOM     20  C   UNL     1       9.219  11.186  21.156  0.00  0.00    +0.000 C 
ATOM     21  C   UNL     1      10.178  11.519  20.047  0.00  0.00    +0.000 A 
ATOM     22  C   UNL     1      11.358  12.210  20.394  0.00  0.00    +0.000 A 
ATOM     23  C   UNL     1      12.275  12.607  19.423  0.00  0.00    +0.000 A 
ATOM     24  C   UNL     1      12.034  12.308  18.090  0.00  0.00    +0.000 A 
ATOM     25  C   UNL     1      10.872  11.620  17.728  0.00  0.00    +0.000 A 
ATOM     26  C   UNL     1       9.931  11.216  18.693  0.00  0.00    +0.000 A 
ENDBRANCH  19  26
ENDBRANCH  18  19
ENDBRANCH   1  18
TORSDOF 5
ENDMDL
MODEL 6
REMARK VINA RESULT:      -8.1      1.019      1.469
REMARK  Name = 
REMARK  6 active torsions:
REMARK  status: ('A' for Active; 'I' for Inactive)
REMARK    1  A    between atoms: C_1  and  C_2
REMARK    2  A    between atoms: C_7  and  S_8
REMARK    3  A    between atoms: S_8  and  C_9
REMARK    4  A    between atoms: C_9  and  C_10
REMARK    5  A    between atoms: N_12  and  S_13
REMARK    6  A    between atoms: S_13  and  C_16
REMARK                            x       y       z     vdW  Elec       q    Type
REMARK                         _______ _______ _______ _____ _____    ______ ____
ROOT
ATOM      1  C   UNL     1       7.796   7.308  17.821  0.00  0.00    +0.000 C 
ATOM      2  O   UNL     1       8.196   6.714  18.816  0.00  0.00    +0.000 OA
ATOM      3  N   UNL     1       7.296   6.626  16.700  0.00  0.00    +0.000 N 
ATOM      4  H   UNL     1       6.878   7.146  15.930  0.00  0.00    +0.000 HD
ENDROOT
BRANCH   3   5
ATOM      5  S   UNL     1       7.144   4.977  16.560  0.00  0.00    +0.000 S 
ATOM      6  O   UNL     1       7.111   4.707  15.134  0.00  0.00    +0.000 OA
ATOM      7  O   UNL     1       8.136   4.353  17.406  0.00  0.00    +0.000 OA
BRANCH   5   8
ATOM      8  C   UNL     1       5.525   4.616  17.186  0.00  0.00    +0.000 A 
ATOM      9  C   UNL     1       4.631   3.844  16.433  0.00  0.00    +0.000 A 
ATOM     10  C   UNL     1       3.356   3.576  16.940  0.00  0.00    +0.000 A 
ATOM     11  C   UNL     1       2.983   4.079  18.187  0.00  0.00    +0.000 A 
ATOM     12  C   UNL     1       3.890   4.835  18.940  0.00  0.00    +0.000 A 
ATOM     13  C   UNL     1       5.154   5.127  18.434  0.00  0.00    +0.000 A 
ATOM     14  O   UNL     1       3.603   5.332  20.185  0.00  0.00    +0.000 OA
ATOM     15  C   UNL     1       2.453   4.693  20.749  0.00  0.00    +0.000 C 
ATOM     16  C   UNL     1       1.330   4.605  19.726  0.00  0.00    +0.000 C 
ATOM     17  O   UNL     1       1.714   3.783  18.618  0.00  0.00    +0.000 OA
ENDBRANCH   5   8
ENDBRANCH   3   5
BRANCH   1  18
ATOM     18  C   UNL     1       7.887   8.830  17.721  0.00  0.00    +0.000 C 
BRANCH  18  19
ATOM     19  S   UNL     1       9.028   9.531  18.967  0.00  0.00    +0.000 S 
BRANCH  19  26
ATOM     20  C   UNL     1      11.625  11.475  19.332  0.00  0.00    +0.000 C 
ATOM     21  C   UNL     1      10.403  12.001  18.632  0.00  0.00    +0.000 A 
ATOM     22  C   UNL     1      10.401  13.361  18.260  0.00  0.00    +0.000 A 
ATOM     23  C   UNL     1       9.289  13.945  17.657  0.00  0.00    +0.000 A 
ATOM     24  C   UNL     1       8.164  13.174  17.403  0.00  0.00    +0.000 A 
ATOM     25  C   UNL     1       8.148  11.822  17.761  0.00  0.00    +0.000 A 
ATOM     26  C   UNL     1       9.260  11.216  18.375  0.00  0.00    +0.000 A 
ENDBRANCH  19  26
ENDBRANCH  18  19
ENDBRANCH   1  18
TORSDOF 5
ENDMDL
MODEL 7
REMARK VINA RESULT:      -8.1      1.618      2.146
REMARK  Name = 
REMARK  6 active torsions:
REMARK  status: ('A' for Active; 'I' for Inactive)
REMARK    1  A    between atoms: C_1  and  C_2
REMARK    2  A    between atoms: C_7  and  S_8
REMARK    3  A    between atoms: S_8  and  C_9
REMARK    4  A    between atoms: C_9  and  C_10
REMARK    5  A    between atoms: N_12  and  S_13
REMARK    6  A    between atoms: S_13  and  C_16
REMARK                            x       y       z     vdW  Elec       q    Type
REMARK                         _______ _______ _______ _____ _____    ______ ____
ROOT
ATOM      1  C   UNL     1       7.851   7.845  17.862  0.00  0.00    +0.000 C 
ATOM      2  O   UNL     1       8.234   7.047  18.710  0.00  0.00    +0.000 OA
ATOM      3  N   UNL     1       7.103   7.438  16.744  0.00  0.00    +0.000 N 
ATOM      4  H   UNL     1       6.712   8.133  16.111  0.00  0.00    +0.000 HD
ENDROOT
BRANCH   3   5
ATOM      5  S   UNL     1       6.613   5.883  16.423  0.00  0.00    +0.000 S 
ATOM      6  O   UNL     1       5.865   5.958  15.182  0.00  0.00    +0.000 OA
ATOM      7  O   UNL     1       7.758   5.009  16.543  0.00  0.00    +0.000 OA
BRANCH   5   8
ATOM      8  C   UNL     1       5.445   5.502  17.702  0.00  0.00    +0.000 A 
ATOM      9  C   UNL     1       5.582   4.332  18.460  0.00  0.00    +0.000 A 
ATOM     10  C   UNL     1       4.647   4.046  19.459  0.00  0.00    +0.000 A 
ATOM     11  C   UNL     1       3.587   4.923  19.693  0.00  0.00    +0.000 A 
ATOM     12  C   UNL     1       3.469   6.098  18.941  0.00  0.00    +0.000 A 
ATOM     13  C   UNL     1       4.381   6.381  17.928  0.00  0.00    +0.000 A 
ATOM     14  O   UNL     1       2.472   7.019  19.139  0.00  0.00    +0.000 OA
ATOM     15  C   UNL     1       1.822   6.821  20.398  0.00  0.00    +0.000 C 
ATOM     16  C   UNL     1       1.502   5.351  20.614  0.00  0.00    +0.000 C 
ATOM     17  O   UNL     1       2.704   4.573  20.683  0.00  0.00    +0.000 OA
ENDBRANCH   5   8
ENDBRANCH   3   5
BRANCH   1  18
ATOM     18  C   UNL     1       8.228   9.323  17.940  0.00  0.00    +0.000 C 
BRANCH  18  19
ATOM     19  S   UNL     1       9.096   9.726  19.499  0.00  0.00    +0.000 S 
BRANCH  19  26
ATOM     20  C   UNL     1       9.670  12.307  21.414  0.00  0.00    +0.000 C 
ATOM     21  C   UNL     1      10.091  12.351  19.972  0.00  0.00    +0.000 A 
ATOM     22  C   UNL     1      10.622  13.563  19.486  0.00  0.00    +0.000 A 
ATOM     23  C   UNL     1      10.987  13.710  18.149  0.00  0.00    +0.000 A 
ATOM     24  C   UNL     1      10.839  12.640  17.279  0.00  0.00    +0.000 A 
ATOM     25  C   UNL     1      10.318  11.428  17.743  0.00  0.00    +0.000 A 
ATOM     26  C   UNL     1       9.939  11.263  19.088  0.00  0.00    +0.000 A 
ENDBRANCH  19  26
ENDBRANCH  18  19
ENDBRANCH   1  18
TORSDOF 5
ENDMDL
MODEL 8
REMARK VINA RESULT:      -7.9      1.393      2.412
REMARK  Name = 
REMARK  6 active torsions:
REMARK  status: ('A' for Active; 'I' for Inactive)
REMARK    1  A    between atoms: C_1  and  C_2
REMARK    2  A    between atoms: C_7  and  S_8
REMARK    3  A    between atoms: S_8  and  C_9
REMARK    4  A    between atoms: C_9  and  C_10
REMARK    5  A    between atoms: N_12  and  S_13
REMARK    6  A    between atoms: S_13  and  C_16
REMARK                            x       y       z     vdW  Elec       q    Type
REMARK                         _______ _______ _______ _____ _____    ______ ____
ROOT
ATOM      1  C   UNL     1       7.948   7.042  18.326  0.00  0.00    +0.000 C 
ATOM      2  O   UNL     1       8.071   6.010  18.977  0.00  0.00    +0.000 OA
ATOM      3  N   UNL     1       7.241   7.074  17.114  0.00  0.00    +0.000 N 
ATOM      4  H   UNL     1       7.068   7.963  16.647  0.00  0.00    +0.000 HD
ENDROOT
BRANCH   3   5
ATOM      5  S   UNL     1       6.463   5.783  16.413  0.00  0.00    +0.000 S 
ATOM      6  O   UNL     1       5.683   6.342  15.323  0.00  0.00    +0.000 OA
ATOM      7  O   UNL     1       7.436   4.743  16.167  0.00  0.00    +0.000 OA
BRANCH   5   8
ATOM      8  C   UNL     1       5.307   5.230  17.638  0.00  0.00    +0.000 A 
ATOM      9  C   UNL     1       5.423   3.949  18.192  0.00  0.00    +0.000 A 
ATOM     10  C   UNL     1       4.497   3.528  19.152  0.00  0.00    +0.000 A 
ATOM     11  C   UNL     1       3.468   4.383  19.549  0.00  0.00    +0.000 A 
ATOM     12  C   UNL     1       3.372   5.668  19.001  0.00  0.00    +0.000 A 
ATOM     13  C   UNL     1       4.274   6.089  18.028  0.00  0.00    +0.000 A 
ATOM     14  O   UNL     1       2.407   6.571  19.369  0.00  0.00    +0.000 OA
ATOM     15  C   UNL     1       1.773   6.188  20.593  0.00  0.00    +0.000 C 
ATOM     16  C   UNL     1       1.413   4.710  20.574  0.00  0.00    +0.000 C 
ATOM     17  O   UNL     1       2.592   3.900  20.488  0.00  0.00    +0.000 OA
ENDBRANCH   5   8
ENDBRANCH   3   5
BRANCH   1  18
ATOM     18  C   UNL     1       8.623   8.339  18.769  0.00  0.00    +0.000 C 
BRANCH  18  19
ATOM     19  S   UNL     1       8.152   9.752  17.706  0.00  0.00    +0.000 S 
BRANCH  19  26
ATOM     20  C   UNL     1       7.820  12.953  17.155  0.00  0.00    +0.000 C 
ATOM     21  C   UNL     1       8.877  12.474  18.111  0.00  0.00    +0.000 A 
ATOM     22  C   UNL     1       9.755  13.440  18.645  0.00  0.00    +0.000 A 
ATOM     23  C   UNL     1      10.798  13.078  19.495  0.00  0.00    +0.000 A 
ATOM     24  C   UNL     1      10.972  11.744  19.836  0.00  0.00    +0.000 A 
ATOM     25  C   UNL     1      10.109  10.773  19.320  0.00  0.00    +0.000 A 
ATOM     26  C   UNL     1       9.053  11.119  18.456  0.00  0.00    +0.000 A 
ENDBRANCH  19  26
ENDBRANCH  18  19
ENDBRANCH   1  18
TORSDOF 5
ENDMDL
MODEL 9
REMARK VINA RESULT:      -7.9      5.279      7.247
REMARK  Name = 
REMARK  6 active torsions:
REMARK  status: ('A' for Active; 'I' for Inactive)
REMARK    1  A    between atoms: C_1  and  C_2
REMARK    2  A    between atoms: C_7  and  S_8
REMARK    3  A    between atoms: S_8  and  C_9
REMARK    4  A    between atoms: C_9  and  C_10
REMARK    5  A    between atoms: N_12  and  S_13
REMARK    6  A    between atoms: S_13  and  C_16
REMARK                            x       y       z     vdW  Elec       q    Type
REMARK                         _______ _______ _______ _____ _____    ______ ____
ROOT
ATOM      1  C   UNL     1       2.222   4.456  20.490  0.00  0.00    +0.000 C 
ATOM      2  O   UNL     1       1.957   3.444  21.128  0.00  0.00    +0.000 OA
ATOM      3  N   UNL     1       3.184   4.459  19.467  0.00  0.00    +0.000 N 
ATOM      4  H   UNL     1       3.311   5.287  18.887  0.00  0.00    +0.000 HD
ENDROOT
BRANCH   3   5
ATOM      5  S   UNL     1       4.058   3.140  18.959  0.00  0.00    +0.000 S 
ATOM      6  O   UNL     1       4.862   2.741  20.099  0.00  0.00    +0.000 OA
ATOM      7  O   UNL     1       3.152   2.206  18.331  0.00  0.00    +0.000 OA
BRANCH   5   8
ATOM      8  C   UNL     1       5.178   3.780  17.742  0.00  0.00    +0.000 A 
ATOM      9  C   UNL     1       6.311   4.504  18.136  0.00  0.00    +0.000 A 
ATOM     10  C   UNL     1       7.179   5.007  17.162  0.00  0.00    +0.000 A 
ATOM     11  C   UNL     1       6.912   4.786  15.810  0.00  0.00    +0.000 A 
ATOM     12  C   UNL     1       5.786   4.047  15.428  0.00  0.00    +0.000 A 
ATOM     13  C   UNL     1       4.903   3.562  16.389  0.00  0.00    +0.000 A 
ATOM     14  O   UNL     1       5.481   3.764  14.122  0.00  0.00    +0.000 OA
ATOM     15  C   UNL     1       6.604   3.988  13.263  0.00  0.00    +0.000 C 
ATOM     16  C   UNL     1       7.268   5.318  13.581  0.00  0.00    +0.000 C 
ATOM     17  O   UNL     1       7.802   5.316  14.911  0.00  0.00    +0.000 OA
ENDBRANCH   5   8
ENDBRANCH   3   5
BRANCH   1  18
ATOM     18  C   UNL     1       1.564   5.795  20.823  0.00  0.00    +0.000 C 
BRANCH  18  19
ATOM     19  S   UNL     1       2.229   7.158  19.801  0.00  0.00    +0.000 S 
BRANCH  19  26
ATOM     20  C   UNL     1       1.101   9.664  18.038  0.00  0.00    +0.000 C 
ATOM     21  C   UNL     1       0.857   9.636  19.521  0.00  0.00    +0.000 A 
ATOM     22  C   UNL     1       0.239  10.764  20.100  0.00  0.00    +0.000 A 
ATOM     23  C   UNL     1       0.025  10.847  21.474  0.00  0.00    +0.000 A 
ATOM     24  C   UNL     1       0.413   9.795  22.292  0.00  0.00    +0.000 A 
ATOM     25  C   UNL     1       1.023   8.667  21.736  0.00  0.00    +0.000 A 
ATOM     26  C   UNL     1       1.253   8.568  20.351  0.00  0.00    +0.000 A 
ENDBRANCH  19  26
ENDBRANCH  18  19
ENDBRANCH   1  18
TORSDOF 5
ENDMDL
