MODEL 1
REMARK VINA RESULT:      -7.3      0.000      0.000
REMARK  Name = 
REMARK  10 active torsions:
REMARK  status: ('A' for Active; 'I' for Inactive)
REMARK    1  A    between atoms: C_1  and  O_2
REMARK    2  A    between atoms: O_2  and  C_3
REMARK    3  A    between atoms: C_8  and  C_9
REMARK    4  A    between atoms: C_10  and  C_11
REMARK    5  A    between atoms: C_11  and  C_13
REMARK    6  A    between atoms: C_17  and  O_18
REMARK    7  A    between atoms: O_18  and  C_19
REMARK    8  A    between atoms: C_19  and  C_20
REMARK    9  A    between atoms: C_20  and  C_21
REMARK   10  A    between atoms: C_21  and  N_22
REMARK                            x       y       z     vdW  Elec       q    Type
REMARK                         _______ _______ _______ _____ _____    ______ ____
ROOT
ATOM      1  C   UNL     1       1.680   8.945  18.892  0.00  0.00    +0.000 A 
ATOM      2  C   UNL     1       1.413   8.496  20.193  0.00  0.00    +0.000 A 
ATOM      3  C   UNL     1       1.744   7.193  20.558  0.00  0.00    +0.000 A 
ATOM      4  C   UNL     1       2.343   6.340  19.632  0.00  0.00    +0.000 A 
ATOM      5  C   UNL     1       2.615   6.781  18.334  0.00  0.00    +0.000 A 
ATOM      6  C   UNL     1       2.254   8.075  17.954  0.00  0.00    +0.000 A 
ENDROOT
BRANCH   1   7
ATOM      7  C   UNL     1       1.384  10.341  18.469  0.00  0.00    +0.000 C 
ATOM      8  O   UNL     1       2.292  11.083  18.111  0.00  0.00    +0.000 OA
BRANCH   7  10
ATOM      9  C   UNL     1      -0.975  10.367  17.772  0.00  0.00    +0.000 C 
ATOM     10  C   UNL     1      -0.023  10.808  18.609  0.00  0.00    +0.000 C 
BRANCH   9  16
ATOM     11  C   UNL     1      -3.279  10.589  16.694  0.00  0.00    +0.000 A 
ATOM     12  C   UNL     1      -4.597  11.060  16.782  0.00  0.00    +0.000 A 
ATOM     13  C   UNL     1      -5.016  11.798  17.889  0.00  0.00    +0.000 A 
ATOM     14  C   UNL     1      -4.120  12.085  18.912  0.00  0.00    +0.000 A 
ATOM     15  C   UNL     1      -2.800  11.635  18.829  0.00  0.00    +0.000 A 
ATOM     16  C   UNL     1      -2.357  10.892  17.722  0.00  0.00    +0.000 A 
BRANCH  11  18
ATOM     17  C   UNL     1      -3.378  10.135  14.357  0.00  0.00    +0.000 C 
ATOM     18  O   UNL     1      -2.823   9.846  15.633  0.00  0.00    +0.000 OA
ENDBRANCH  11  18
ENDBRANCH   9  16
ENDBRANCH   7  10
ENDBRANCH   1   7
BRANCH   5  19
ATOM     19  O   UNL     1       3.232   5.861  17.531  0.00  0.00    +0.000 OA
BRANCH  19  20
ATOM     20  C   UNL     1       4.629   5.678  17.762  0.00  0.00    +0.000 C 
BRANCH  20  21
ATOM     21  C   UNL     1       4.907   4.178  17.852  0.00  0.00    +0.000 C 
BRANCH  21  22
ATOM     22  C   UNL     1       4.793   3.715  19.306  0.00  0.00    +0.000 C 
BRANCH  22  23
ATOM     23  N   UNL     1       4.319   2.333  19.481  0.00  0.00    +0.000 NA
ATOM     24  C   UNL     1       3.189   1.967  18.596  0.00  0.00    +0.000 C 
ATOM     25  C   UNL     1       1.870   2.674  18.948  0.00  0.00    +0.000 C 
ATOM     26  O   UNL     1       1.491   2.425  20.307  0.00  0.00    +0.000 OA
ATOM     27  C   UNL     1       2.532   2.814  21.213  0.00  0.00    +0.000 C 
ATOM     28  C   UNL     1       3.865   2.117  20.879  0.00  0.00    +0.000 C 
ENDBRANCH  22  23
ENDBRANCH  21  22
ENDBRANCH  20  21
ENDBRANCH  19  20
ENDBRANCH   5  19
TORSDOF 9
ENDMDL
MODEL 2
REMARK VINA RESULT:      -7.3      5.539      9.373
REMARK  Name = 
REMARK  10 active torsions:
REMARK  status: ('A' for Active; 'I' for Inactive)
REMARK    1  A    between atoms: C_1  and  O_2
REMARK    2  A    between atoms: O_2  and  C_3
REMARK    3  A    between atoms: C_8  and  C_9
REMARK    4  A    between atoms: C_10  and  C_11
REMARK    5  A    between atoms: C_11  and  C_13
REMARK    6  A    between atoms: C_17  and  O_18
REMARK    7  A    between atoms: O_18  and  C_19
REMARK    8  A    between atoms: C_19  and  C_20
REMARK    9  A    between atoms: C_20  and  C_21
REMARK   10  A    between atoms: C_21  and  N_22
REMARK                            x       y       z     vdW  Elec       q    Type
REMARK                         _______ _______ _______ _____ _____    ______ ____
ROOT
ATOM      1  C   UNL     1       6.594   5.476  17.043  0.00  0.00    +0.000 A 
ATOM      2  C   UNL     1       7.202   4.893  18.163  0.00  0.00    +0.000 A 
ATOM      3  C   UNL     1       8.010   5.665  18.995  0.00  0.00    +0.000 A 
ATOM      4  C   UNL     1       8.209   7.016  18.716  0.00  0.00    +0.000 A 
ATOM      5  C   UNL     1       7.603   7.606  17.603  0.00  0.00    +0.000 A 
ATOM      6  C   UNL     1       6.821   6.828  16.748  0.00  0.00    +0.000 A 
ENDROOT
BRANCH   1   7
ATOM      7  C   UNL     1       5.688   4.703  16.151  0.00  0.00    +0.000 C 
ATOM      8  O   UNL     1       6.016   4.468  14.993  0.00  0.00    +0.000 OA
BRANCH   7  10
ATOM      9  C   UNL     1       4.109   4.402  18.013  0.00  0.00    +0.000 C 
ATOM     10  C   UNL     1       4.351   4.336  16.695  0.00  0.00    +0.000 C 
BRANCH   9  16
ATOM     11  C   UNL     1       2.196   4.597  19.694  0.00  0.00    +0.000 A 
ATOM     12  C   UNL     1       0.985   4.091  20.187  0.00  0.00    +0.000 A 
ATOM     13  C   UNL     1       0.430   2.929  19.651  0.00  0.00    +0.000 A 
ATOM     14  C   UNL     1       1.085   2.254  18.628  0.00  0.00    +0.000 A 
ATOM     15  C   UNL     1       2.300   2.739  18.139  0.00  0.00    +0.000 A 
ATOM     16  C   UNL     1       2.878   3.906  18.666  0.00  0.00    +0.000 A 
BRANCH  11  18
ATOM     17  C   UNL     1       2.291   6.978  19.664  0.00  0.00    +0.000 C 
ATOM     18  O   UNL     1       2.775   5.745  20.177  0.00  0.00    +0.000 OA
ENDBRANCH  11  18
ENDBRANCH   9  16
ENDBRANCH   7  10
ENDBRANCH   1   7
BRANCH   5  19
ATOM     19  O   UNL     1       7.851   8.943  17.455  0.00  0.00    +0.000 OA
BRANCH  19  20
ATOM     20  C   UNL     1       8.618   9.548  18.496  0.00  0.00    +0.000 C 
BRANCH  20  21
ATOM     21  C   UNL     1       9.294  10.797  17.930  0.00  0.00    +0.000 C 
BRANCH  21  22
ATOM     22  C   UNL     1       9.243  11.927  18.960  0.00  0.00    +0.000 C 
BRANCH  22  23
ATOM     23  N   UNL     1      10.195  11.794  20.074  0.00  0.00    +0.000 NA
ATOM     24  C   UNL     1       9.617  12.107  21.401  0.00  0.00    +0.000 C 
ATOM     25  C   UNL     1       9.286  13.595  21.600  0.00  0.00    +0.000 C 
ATOM     26  O   UNL     1      10.442  14.418  21.395  0.00  0.00    +0.000 OA
ATOM     27  C   UNL     1      11.011  14.194  20.099  0.00  0.00    +0.000 C 
ATOM     28  C   UNL     1      11.350  12.708  19.875  0.00  0.00    +0.000 C 
ENDBRANCH  22  23
ENDBRANCH  21  22
ENDBRANCH  20  21
ENDBRANCH  19  20
ENDBRANCH   5  19
TORSDOF 9
ENDMDL
MODEL 3
REMARK VINA RESULT:      -7.2      1.418      2.191
REMARK  Name = 
REMARK  10 active torsions:
REMARK  status: ('A' for Active; 'I' for Inactive)
REMARK    1  A    between atoms: C_1  and  O_2
REMARK    2  A    between atoms: O_2  and  C_3
REMARK    3  A    between atoms: C_8  and  C_9
REMARK    4  A    between atoms: C_10  and  C_11
REMARK    5  A    between atoms: C_11  and  C_13
REMARK    6  A    between atoms: C_17  and  O_18
REMARK    7  A    between atoms: O_18  and  C_19
REMARK    8  A    between atoms: C_19  and  C_20
REMARK    9  A    between atoms: C_20  and  C_21
REMARK   10  A    between atoms: C_21  and  N_22
REMARK                            x       y       z     vdW  Elec       q    Type
REMARK                         _______ _______ _______ _____ _____    ______ ____
ROOT
ATOM      1  C   UNL     1       1.237   9.097  19.854  0.00  0.00    +0.000 A 
ATOM      2  C   UNL     1       1.139   8.297  21.001  0.00  0.00    +0.000 A 
ATOM      3  C   UNL     1       1.685   7.015  21.001  0.00  0.00    +0.000 A 
ATOM      4  C   UNL     1       2.329   6.531  19.863  0.00  0.00    +0.000 A 
ATOM      5  C   UNL     1       2.432   7.323  18.717  0.00  0.00    +0.000 A 
ATOM      6  C   UNL     1       1.858   8.595  18.701  0.00  0.00    +0.000 A 
ENDROOT
BRANCH   1   7
ATOM      7  C   UNL     1       0.709  10.487  19.821  0.00  0.00    +0.000 C 
ATOM      8  O   UNL     1       0.981  11.273  20.723  0.00  0.00    +0.000 OA
BRANCH   7  10
ATOM      9  C   UNL     1      -1.473  10.313  18.699  0.00  0.00    +0.000 C 
ATOM     10  C   UNL     1      -0.234  10.829  18.720  0.00  0.00    +0.000 C 
BRANCH   9  16
ATOM     11  C   UNL     1      -3.497  11.374  17.559  0.00  0.00    +0.000 A 
ATOM     12  C   UNL     1      -4.288  11.500  16.408  0.00  0.00    +0.000 A 
ATOM     13  C   UNL     1      -4.005  10.752  15.266  0.00  0.00    +0.000 A 
ATOM     14  C   UNL     1      -2.939   9.860  15.266  0.00  0.00    +0.000 A 
ATOM     15  C   UNL     1      -2.153   9.713  16.411  0.00  0.00    +0.000 A 
ATOM     16  C   UNL     1      -2.423  10.456  17.573  0.00  0.00    +0.000 A 
BRANCH  11  18
ATOM     17  C   UNL     1      -4.983  11.919  19.341  0.00  0.00    +0.000 C 
ATOM     18  O   UNL     1      -3.726  12.100  18.703  0.00  0.00    +0.000 OA
ENDBRANCH  11  18
ENDBRANCH   9  16
ENDBRANCH   7  10
ENDBRANCH   1   7
BRANCH   5  19
ATOM     19  O   UNL     1       3.113   6.746  17.680  0.00  0.00    +0.000 OA
BRANCH  19  20
ATOM     20  C   UNL     1       4.061   5.742  18.045  0.00  0.00    +0.000 C 
BRANCH  20  21
ATOM     21  C   UNL     1       3.776   4.490  17.216  0.00  0.00    +0.000 C 
BRANCH  21  22
ATOM     22  C   UNL     1       2.363   3.981  17.512  0.00  0.00    +0.000 C 
BRANCH  22  23
ATOM     23  N   UNL     1       2.289   2.576  17.943  0.00  0.00    +0.000 NA
ATOM     24  C   UNL     1       1.045   2.234  18.671  0.00  0.00    +0.000 C 
ATOM     25  C   UNL     1       0.946   2.874  20.065  0.00  0.00    +0.000 C 
ATOM     26  O   UNL     1       2.069   2.523  20.882  0.00  0.00    +0.000 OA
ATOM     27  C   UNL     1       3.302   2.884  20.246  0.00  0.00    +0.000 C 
ATOM     28  C   UNL     1       3.425   2.254  18.845  0.00  0.00    +0.000 C 
ENDBRANCH  22  23
ENDBRANCH  21  22
ENDBRANCH  20  21
ENDBRANCH  19  20
ENDBRANCH   5  19
TORSDOF 9
ENDMDL
MODEL 4
REMARK VINA RESULT:      -7.2      2.505      4.418
REMARK  Name = 
REMARK  10 active torsions:
REMARK  status: ('A' for Active; 'I' for Inactive)
REMARK    1  A    between atoms: C_1  and  O_2
REMARK    2  A    between atoms: O_2  and  C_3
REMARK    3  A    between atoms: C_8  and  C_9
REMARK    4  A    between atoms: C_10  and  C_11
REMARK    5  A    between atoms: C_11  and  C_13
REMARK    6  A    between atoms: C_17  and  O_18
REMARK    7  A    between atoms: O_18  and  C_19
REMARK    8  A    between atoms: C_19  and  C_20
REMARK    9  A    between atoms: C_20  and  C_21
REMARK   10  A    between atoms: C_21  and  N_22
REMARK                            x       y       z     vdW  Elec       q    Type
REMARK                         _______ _______ _______ _____ _____    ______ ____
ROOT
ATOM      1  C   UNL     1       2.122   6.475  18.888  0.00  0.00    +0.000 A 
ATOM      2  C   UNL     1       2.006   6.327  20.277  0.00  0.00    +0.000 A 
ATOM      3  C   UNL     1       1.713   5.078  20.819  0.00  0.00    +0.000 A 
ATOM      4  C   UNL     1       1.541   3.976  19.982  0.00  0.00    +0.000 A 
ATOM      5  C   UNL     1       1.658   4.115  18.596  0.00  0.00    +0.000 A 
ATOM      6  C   UNL     1       1.917   5.372  18.046  0.00  0.00    +0.000 A 
ENDROOT
BRANCH   1   7
ATOM      7  C   UNL     1       2.476   7.779  18.265  0.00  0.00    +0.000 C 
ATOM      8  O   UNL     1       3.611   7.974  17.842  0.00  0.00    +0.000 OA
BRANCH   7  10
ATOM      9  C   UNL     1       1.091   9.440  19.437  0.00  0.00    +0.000 C 
ATOM     10  C   UNL     1       1.435   8.844  18.285  0.00  0.00    +0.000 C 
BRANCH   9  16
ATOM     11  C   UNL     1      -0.341  11.064  20.791  0.00  0.00    +0.000 A 
ATOM     12  C   UNL     1      -1.376  12.009  20.812  0.00  0.00    +0.000 A 
ATOM     13  C   UNL     1      -2.088  12.310  19.651  0.00  0.00    +0.000 A 
ATOM     14  C   UNL     1      -1.783  11.659  18.461  0.00  0.00    +0.000 A 
ATOM     15  C   UNL     1      -0.766  10.703  18.431  0.00  0.00    +0.000 A 
ATOM     16  C   UNL     1      -0.037  10.384  19.590  0.00  0.00    +0.000 A 
BRANCH  11  18
ATOM     17  C   UNL     1      -0.243   9.964  22.904  0.00  0.00    +0.000 C 
ATOM     18  O   UNL     1       0.398  10.745  21.904  0.00  0.00    +0.000 OA
ENDBRANCH  11  18
ENDBRANCH   9  16
ENDBRANCH   7  10
ENDBRANCH   1   7
BRANCH   5  19
ATOM     19  O   UNL     1       1.498   2.956  17.887  0.00  0.00    +0.000 OA
BRANCH  19  20
ATOM     20  C   UNL     1       2.658   2.129  17.784  0.00  0.00    +0.000 C 
BRANCH  20  21
ATOM     21  C   UNL     1       3.892   3.007  17.986  0.00  0.00    +0.000 C 
BRANCH  21  22
ATOM     22  C   UNL     1       4.489   3.384  16.628  0.00  0.00    +0.000 C 
BRANCH  22  23
ATOM     23  N   UNL     1       4.875   4.797  16.491  0.00  0.00    +0.000 NA
ATOM     24  C   UNL     1       5.406   5.149  15.154  0.00  0.00    +0.000 C 
ATOM     25  C   UNL     1       6.784   4.538  14.853  0.00  0.00    +0.000 C 
ATOM     26  O   UNL     1       7.749   4.911  15.845  0.00  0.00    +0.000 OA
ATOM     27  C   UNL     1       7.307   4.541  17.158  0.00  0.00    +0.000 C 
ATOM     28  C   UNL     1       5.925   5.142  17.483  0.00  0.00    +0.000 C 
ENDBRANCH  22  23
ENDBRANCH  21  22
ENDBRANCH  20  21
ENDBRANCH  19  20
ENDBRANCH   5  19
TORSDOF 9
ENDMDL
MODEL 5
REMARK VINA RESULT:      -7.1      4.830      7.588
REMARK  Name = 
REMARK  10 active torsions:
REMARK  status: ('A' for Active; 'I' for Inactive)
REMARK    1  A    between atoms: C_1  and  O_2
REMARK    2  A    between atoms: O_2  and  C_3
REMARK    3  A    between atoms: C_8  and  C_9
REMARK    4  A    between atoms: C_10  and  C_11
REMARK    5  A    between atoms: C_11  and  C_13
REMARK    6  A    between atoms: C_17  and  O_18
REMARK    7  A    between atoms: O_18  and  C_19
REMARK    8  A    between atoms: C_19  and  C_20
REMARK    9  A    between atoms: C_20  and  C_21
REMARK   10  A    between atoms: C_21  and  N_22
REMARK                            x       y       z     vdW  Elec       q    Type
REMARK                         _______ _______ _______ _____ _____    ______ ____
ROOT
ATOM      1  C   UNL     1       4.425   5.622  17.186  0.00  0.00    +0.000 A 
ATOM      2  C   UNL     1       4.636   4.376  16.581  0.00  0.00    +0.000 A 
ATOM      3  C   UNL     1       5.894   4.053  16.077  0.00  0.00    +0.000 A 
ATOM      4  C   UNL     1       6.942   4.967  16.178  0.00  0.00    +0.000 A 
ATOM      5  C   UNL     1       6.741   6.211  16.782  0.00  0.00    +0.000 A 
ATOM      6  C   UNL     1       5.473   6.552  17.258  0.00  0.00    +0.000 A 
ENDROOT
BRANCH   1   7
ATOM      7  C   UNL     1       3.112   5.995  17.778  0.00  0.00    +0.000 C 
ATOM      8  O   UNL     1       2.259   5.137  17.977  0.00  0.00    +0.000 OA
BRANCH   7  10
ATOM      9  C   UNL     1       1.937   7.844  18.896  0.00  0.00    +0.000 C 
ATOM     10  C   UNL     1       2.857   7.445  18.004  0.00  0.00    +0.000 C 
BRANCH   9  16
ATOM     11  C   UNL     1       0.718   9.693  20.167  0.00  0.00    +0.000 A 
ATOM     12  C   UNL     1       0.424  11.058  20.296  0.00  0.00    +0.000 A 
ATOM     13  C   UNL     1       0.916  11.981  19.375  0.00  0.00    +0.000 A 
ATOM     14  C   UNL     1       1.694  11.550  18.307  0.00  0.00    +0.000 A 
ATOM     15  C   UNL     1       1.981  10.191  18.157  0.00  0.00    +0.000 A 
ATOM     16  C   UNL     1       1.493   9.244  19.074  0.00  0.00    +0.000 A 
BRANCH  11  18
ATOM     17  C   UNL     1      -0.314   9.221  22.263  0.00  0.00    +0.000 C 
ATOM     18  O   UNL     1       0.270   8.747  21.057  0.00  0.00    +0.000 OA
ENDBRANCH  11  18
ENDBRANCH   9  16
ENDBRANCH   7  10
ENDBRANCH   1   7
BRANCH   5  19
ATOM     19  O   UNL     1       7.853   7.005  16.847  0.00  0.00    +0.000 OA
BRANCH  19  20
ATOM     20  C   UNL     1       8.045   7.700  18.080  0.00  0.00    +0.000 C 
BRANCH  20  21
ATOM     21  C   UNL     1       8.002   9.201  17.795  0.00  0.00    +0.000 C 
BRANCH  21  22
ATOM     22  C   UNL     1       9.183   9.894  18.478  0.00  0.00    +0.000 C 
BRANCH  22  23
ATOM     23  N   UNL     1       8.928  11.280  18.900  0.00  0.00    +0.000 NA
ATOM     24  C   UNL     1       9.261  12.293  17.872  0.00  0.00    +0.000 C 
ATOM     25  C   UNL     1      10.768  12.440  17.609  0.00  0.00    +0.000 C 
ATOM     26  O   UNL     1      11.480  12.754  18.814  0.00  0.00    +0.000 OA
ATOM     27  C   UNL     1      11.235  11.771  19.828  0.00  0.00    +0.000 C 
ATOM     28  C   UNL     1       9.729  11.605  20.108  0.00  0.00    +0.000 C 
ENDBRANCH  22  23
ENDBRANCH  21  22
ENDBRANCH  20  21
ENDBRANCH  19  20
ENDBRANCH   5  19
TORSDOF 9
ENDMDL
MODEL 6
REMARK VINA RESULT:      -6.9      4.741      7.666
REMARK  Name = 
REMARK  10 active torsions:
REMARK  status: ('A' for Active; 'I' for Inactive)
REMARK    1  A    between atoms: C_1  and  O_2
REMARK    2  A    between atoms: O_2  and  C_3
REMARK    3  A    between atoms: C_8  and  C_9
REMARK    4  A    between atoms: C_10  and  C_11
REMARK    5  A    between atoms: C_11  and  C_13
REMARK    6  A    between atoms: C_17  and  O_18
REMARK    7  A    between atoms: O_18  and  C_19
REMARK    8  A    between atoms: C_19  and  C_20
REMARK    9  A    between atoms: C_20  and  C_21
REMARK   10  A    between atoms: C_21  and  N_22
REMARK                            x       y       z     vdW  Elec       q    Type
REMARK                         _______ _______ _______ _____ _____    ______ ____
ROOT
ATOM      1  C   UNL     1       4.354   5.475  17.351  0.00  0.00    +0.000 A 
ATOM      2  C   UNL     1       4.591   4.343  16.558  0.00  0.00    +0.000 A 
ATOM      3  C   UNL     1       5.877   4.078  16.094  0.00  0.00    +0.000 A 
ATOM      4  C   UNL     1       6.927   4.936  16.420  0.00  0.00    +0.000 A 
ATOM      5  C   UNL     1       6.700   6.064  17.212  0.00  0.00    +0.000 A 
ATOM      6  C   UNL     1       5.406   6.352  17.651  0.00  0.00    +0.000 A 
ENDROOT
BRANCH   1   7
ATOM      7  C   UNL     1       3.007   5.775  17.906  0.00  0.00    +0.000 C 
ATOM      8  O   UNL     1       2.084   4.982  17.751  0.00  0.00    +0.000 OA
BRANCH   7  10
ATOM      9  C   UNL     1       1.699   7.815  18.326  0.00  0.00    +0.000 C 
ATOM     10  C   UNL     1       2.818   7.107  18.544  0.00  0.00    +0.000 C 
BRANCH   9  16
ATOM     11  C   UNL     1       0.937   9.558  20.030  0.00  0.00    +0.000 A 
ATOM     12  C   UNL     1       0.860  10.908  20.403  0.00  0.00    +0.000 A 
ATOM     13  C   UNL     1       1.350  11.907  19.563  0.00  0.00    +0.000 A 
ATOM     14  C   UNL     1       1.909  11.570  18.335  0.00  0.00    +0.000 A 
ATOM     15  C   UNL     1       1.976  10.230  17.944  0.00  0.00    +0.000 A 
ATOM     16  C   UNL     1       1.486   9.209  18.775  0.00  0.00    +0.000 A 
BRANCH  11  18
ATOM     17  C   UNL     1      -0.388   8.892  21.896  0.00  0.00    +0.000 C 
ATOM     18  O   UNL     1       0.482   8.538  20.829  0.00  0.00    +0.000 OA
ENDBRANCH  11  18
ENDBRANCH   9  16
ENDBRANCH   7  10
ENDBRANCH   1   7
BRANCH   5  19
ATOM     19  O   UNL     1       7.815   6.808  17.487  0.00  0.00    +0.000 OA
BRANCH  19  20
ATOM     20  C   UNL     1       7.615   8.220  17.554  0.00  0.00    +0.000 C 
BRANCH  20  21
ATOM     21  C   UNL     1       8.624   8.800  18.544  0.00  0.00    +0.000 C 
BRANCH  21  22
ATOM     22  C   UNL     1       8.853  10.283  18.244  0.00  0.00    +0.000 C 
BRANCH  22  23
ATOM     23  N   UNL     1      10.096  10.843  18.799  0.00  0.00    +0.000 NA
ATOM     24  C   UNL     1       9.889  11.718  19.975  0.00  0.00    +0.000 C 
ATOM     25  C   UNL     1       9.202  13.052  19.643  0.00  0.00    +0.000 C 
ATOM     26  O   UNL     1       9.931  13.782  18.648  0.00  0.00    +0.000 OA
ATOM     27  C   UNL     1      10.112  12.997  17.463  0.00  0.00    +0.000 C 
ATOM     28  C   UNL     1      10.799  11.652  17.771  0.00  0.00    +0.000 C 
ENDBRANCH  22  23
ENDBRANCH  21  22
ENDBRANCH  20  21
ENDBRANCH  19  20
ENDBRANCH   5  19
TORSDOF 9
ENDMDL
MODEL 7
REMARK VINA RESULT:      -6.9      3.778      9.477
REMARK  Name = 
REMARK  10 active torsions:
REMARK  status: ('A' for Active; 'I' for Inactive)
REMARK    1  A    between atoms: C_1  and  O_2
REMARK    2  A    between atoms: O_2  and  C_3
REMARK    3  A    between atoms: C_8  and  C_9
REMARK    4  A    between atoms: C_10  and  C_11
REMARK    5  A    between atoms: C_11  and  C_13
REMARK    6  A    between atoms: C_17  and  O_18
REMARK    7  A    between atoms: O_18  and  C_19
REMARK    8  A    between atoms: C_19  and  C_20
REMARK    9  A    between atoms: C_20  and  C_21
REMARK   10  A    between atoms: C_21  and  N_22
REMARK                            x       y       z     vdW  Elec       q    Type
REMARK                         _______ _______ _______ _____ _____    ______ ____
ROOT
ATOM      1  C   UNL     1       1.048   9.374  18.872  0.00  0.00    +0.000 A 
ATOM      2  C   UNL     1      -0.005   9.895  18.106  0.00  0.00    +0.000 A 
ATOM      3  C   UNL     1      -0.943  10.736  18.700  0.00  0.00    +0.000 A 
ATOM      4  C   UNL     1      -0.833  11.062  20.051  0.00  0.00    +0.000 A 
ATOM      5  C   UNL     1       0.215  10.549  20.820  0.00  0.00    +0.000 A 
ATOM      6  C   UNL     1       1.138   9.678  20.237  0.00  0.00    +0.000 A 
ENDROOT
BRANCH   1   7
ATOM      7  C   UNL     1       2.098   8.507  18.273  0.00  0.00    +0.000 C 
ATOM      8  O   UNL     1       2.546   8.759  17.159  0.00  0.00    +0.000 OA
BRANCH   7  10
ATOM      9  C   UNL     1       2.062   6.074  18.634  0.00  0.00    +0.000 C 
ATOM     10  C   UNL     1       2.483   7.285  19.032  0.00  0.00    +0.000 C 
BRANCH   9  16
ATOM     11  C   UNL     1       3.449   4.080  19.421  0.00  0.00    +0.000 A 
ATOM     12  C   UNL     1       3.560   2.959  20.256  0.00  0.00    +0.000 A 
ATOM     13  C   UNL     1       2.509   2.591  21.096  0.00  0.00    +0.000 A 
ATOM     14  C   UNL     1       1.332   3.330  21.100  0.00  0.00    +0.000 A 
ATOM     15  C   UNL     1       1.202   4.439  20.261  0.00  0.00    +0.000 A 
ATOM     16  C   UNL     1       2.249   4.826  19.406  0.00  0.00    +0.000 A 
BRANCH  11  18
ATOM     17  C   UNL     1       5.617   5.047  19.202  0.00  0.00    +0.000 C 
ATOM     18  O   UNL     1       4.461   4.491  18.589  0.00  0.00    +0.000 OA
ENDBRANCH  11  18
ENDBRANCH   9  16
ENDBRANCH   7  10
ENDBRANCH   1   7
BRANCH   5  19
ATOM     19  O   UNL     1       0.230  10.966  22.122  0.00  0.00    +0.000 OA
BRANCH  19  20
ATOM     20  C   UNL     1      -1.013  10.865  22.818  0.00  0.00    +0.000 C 
BRANCH  20  21
ATOM     21  C   UNL     1      -1.482  12.276  23.169  0.00  0.00    +0.000 C 
BRANCH  21  22
ATOM     22  C   UNL     1      -3.012  12.332  23.161  0.00  0.00    +0.000 C 
BRANCH  22  23
ATOM     23  N   UNL     1      -3.583  13.581  22.631  0.00  0.00    +0.000 NA
ATOM     24  C   UNL     1      -5.051  13.687  22.795  0.00  0.00    +0.000 C 
ATOM     25  C   UNL     1      -5.847  12.714  21.910  0.00  0.00    +0.000 C 
ATOM     26  O   UNL     1      -5.524  12.885  20.525  0.00  0.00    +0.000 OA
ATOM     27  C   UNL     1      -4.116  12.736  20.301  0.00  0.00    +0.000 C 
ATOM     28  C   UNL     1      -3.296  13.702  21.179  0.00  0.00    +0.000 C 
ENDBRANCH  22  23
ENDBRANCH  21  22
ENDBRANCH  20  21
ENDBRANCH  19  20
ENDBRANCH   5  19
TORSDOF 9
ENDMDL
MODEL 8
REMARK VINA RESULT:      -6.9      3.013      4.556
REMARK  Name = 
REMARK  10 active torsions:
REMARK  status: ('A' for Active; 'I' for Inactive)
REMARK    1  A    between atoms: C_1  and  O_2
REMARK    2  A    between atoms: O_2  and  C_3
REMARK    3  A    between atoms: C_8  and  C_9
REMARK    4  A    between atoms: C_10  and  C_11
REMARK    5  A    between atoms: C_11  and  C_13
REMARK    6  A    between atoms: C_17  and  O_18
REMARK    7  A    between atoms: O_18  and  C_19
REMARK    8  A    between atoms: C_19  and  C_20
REMARK    9  A    between atoms: C_20  and  C_21
REMARK   10  A    between atoms: C_21  and  N_22
REMARK                            x       y       z     vdW  Elec       q    Type
REMARK                         _______ _______ _______ _____ _____    ______ ____
ROOT
ATOM      1  C   UNL     1       2.282   6.264  19.059  0.00  0.00    +0.000 A 
ATOM      2  C   UNL     1       1.842   5.528  20.167  0.00  0.00    +0.000 A 
ATOM      3  C   UNL     1       2.040   4.149  20.207  0.00  0.00    +0.000 A 
ATOM      4  C   UNL     1       2.679   3.505  19.148  0.00  0.00    +0.000 A 
ATOM      5  C   UNL     1       3.123   4.233  18.041  0.00  0.00    +0.000 A 
ATOM      6  C   UNL     1       2.895   5.609  17.981  0.00  0.00    +0.000 A 
ENDROOT
BRANCH   1   7
ATOM      7  C   UNL     1       2.131   7.743  18.990  0.00  0.00    +0.000 C 
ATOM      8  O   UNL     1       2.766   8.391  18.164  0.00  0.00    +0.000 OA
BRANCH   7  10
ATOM      9  C   UNL     1       0.638   9.538  19.764  0.00  0.00    +0.000 C 
ATOM     10  C   UNL     1       1.276   8.386  20.026  0.00  0.00    +0.000 C 
BRANCH   9  16
ATOM     11  C   UNL     1      -0.878  11.473  20.457  0.00  0.00    +0.000 A 
ATOM     12  C   UNL     1      -1.610  12.111  21.467  0.00  0.00    +0.000 A 
ATOM     13  C   UNL     1      -1.601  11.619  22.772  0.00  0.00    +0.000 A 
ATOM     14  C   UNL     1      -0.848  10.492  23.084  0.00  0.00    +0.000 A 
ATOM     15  C   UNL     1      -0.101   9.857  22.090  0.00  0.00    +0.000 A 
ATOM     16  C   UNL     1      -0.095  10.338  20.770  0.00  0.00    +0.000 A 
BRANCH  11  18
ATOM     17  C   UNL     1      -0.213  13.145  18.894  0.00  0.00    +0.000 C 
ATOM     18  O   UNL     1      -0.867  11.910  19.155  0.00  0.00    +0.000 OA
ENDBRANCH  11  18
ENDBRANCH   9  16
ENDBRANCH   7  10
ENDBRANCH   1   7
BRANCH   5  19
ATOM     19  O   UNL     1       3.761   3.492  17.084  0.00  0.00    +0.000 OA
BRANCH  19  20
ATOM     20  C   UNL     1       4.432   4.239  16.069  0.00  0.00    +0.000 C 
BRANCH  20  21
ATOM     21  C   UNL     1       5.864   3.718  15.959  0.00  0.00    +0.000 C 
BRANCH  21  22
ATOM     22  C   UNL     1       6.822   4.676  16.670  0.00  0.00    +0.000 C 
BRANCH  22  23
ATOM     23  N   UNL     1       6.172   5.676  17.532  0.00  0.00    +0.000 NA
ATOM     24  C   UNL     1       6.461   7.077  17.153  0.00  0.00    +0.000 C 
ATOM     25  C   UNL     1       7.914   7.505  17.415  0.00  0.00    +0.000 C 
ATOM     26  O   UNL     1       8.273   7.316  18.790  0.00  0.00    +0.000 OA
ATOM     27  C   UNL     1       8.064   5.957  19.195  0.00  0.00    +0.000 C 
ATOM     28  C   UNL     1       6.613   5.505  18.941  0.00  0.00    +0.000 C 
ENDBRANCH  22  23
ENDBRANCH  21  22
ENDBRANCH  20  21
ENDBRANCH  19  20
ENDBRANCH   5  19
TORSDOF 9
ENDMDL
MODEL 9
REMARK VINA RESULT:      -6.8      6.022      9.720
REMARK  Name = 
REMARK  10 active torsions:
REMARK  status: ('A' for Active; 'I' for Inactive)
REMARK    1  A    between atoms: C_1  and  O_2
REMARK    2  A    between atoms: O_2  and  C_3
REMARK    3  A    between atoms: C_8  and  C_9
REMARK    4  A    between atoms: C_10  and  C_11
REMARK    5  A    between atoms: C_11  and  C_13
REMARK    6  A    between atoms: C_17  and  O_18
REMARK    7  A    between atoms: O_18  and  C_19
REMARK    8  A    between atoms: C_19  and  C_20
REMARK    9  A    between atoms: C_20  and  C_21
REMARK   10  A    between atoms: C_21  and  N_22
REMARK                            x       y       z     vdW  Elec       q    Type
REMARK                         _______ _______ _______ _____ _____    ______ ____
ROOT
ATOM      1  C   UNL     1       6.517   6.436  17.253  0.00  0.00    +0.000 A 
ATOM      2  C   UNL     1       7.179   5.651  18.206  0.00  0.00    +0.000 A 
ATOM      3  C   UNL     1       8.184   6.213  18.991  0.00  0.00    +0.000 A 
ATOM      4  C   UNL     1       8.527   7.554  18.830  0.00  0.00    +0.000 A 
ATOM      5  C   UNL     1       7.869   8.345  17.884  0.00  0.00    +0.000 A 
ATOM      6  C   UNL     1       6.885   7.777  17.072  0.00  0.00    +0.000 A 
ENDROOT
BRANCH   1   7
ATOM      7  C   UNL     1       5.408   5.892  16.423  0.00  0.00    +0.000 C 
ATOM      8  O   UNL     1       5.488   5.910  15.199  0.00  0.00    +0.000 OA
BRANCH   7  10
ATOM      9  C   UNL     1       4.263   4.956  18.387  0.00  0.00    +0.000 C 
ATOM     10  C   UNL     1       4.183   5.441  17.139  0.00  0.00    +0.000 C 
BRANCH   9  16
ATOM     11  C   UNL     1       2.146   5.062  19.812  0.00  0.00    +0.000 A 
ATOM     12  C   UNL     1       1.067   4.385  20.397  0.00  0.00    +0.000 A 
ATOM     13  C   UNL     1       0.945   3.001  20.275  0.00  0.00    +0.000 A 
ATOM     14  C   UNL     1       1.907   2.278  19.579  0.00  0.00    +0.000 A 
ATOM     15  C   UNL     1       2.995   2.939  19.005  0.00  0.00    +0.000 A 
ATOM     16  C   UNL     1       3.138   4.332  19.118  0.00  0.00    +0.000 A 
BRANCH  11  18
ATOM     17  C   UNL     1       1.425   7.124  20.765  0.00  0.00    +0.000 C 
ATOM     18  O   UNL     1       2.301   6.424  19.891  0.00  0.00    +0.000 OA
ENDBRANCH  11  18
ENDBRANCH   9  16
ENDBRANCH   7  10
ENDBRANCH   1   7
BRANCH   5  19
ATOM     19  O   UNL     1       8.274   9.651  17.844  0.00  0.00    +0.000 OA
BRANCH  19  20
ATOM     20  C   UNL     1       8.967  10.118  19.003  0.00  0.00    +0.000 C 
BRANCH  20  21
ATOM     21  C   UNL     1      10.107  11.026  18.545  0.00  0.00    +0.000 C 
BRANCH  21  22
ATOM     22  C   UNL     1       9.539  12.326  17.972  0.00  0.00    +0.000 C 
BRANCH  22  23
ATOM     23  N   UNL     1      10.528  13.205  17.328  0.00  0.00    +0.000 NA
ATOM     24  C   UNL     1      11.934  12.860  17.642  0.00  0.00    +0.000 C 
ATOM     25  C   UNL     1      12.333  13.147  19.099  0.00  0.00    +0.000 C 
ATOM     26  O   UNL     1      12.107  14.520  19.441  0.00  0.00    +0.000 OA
ATOM     27  C   UNL     1      10.742  14.892  19.207  0.00  0.00    +0.000 C 
ATOM     28  C   UNL     1      10.319  14.613  17.752  0.00  0.00    +0.000 C 
ENDBRANCH  22  23
ENDBRANCH  21  22
ENDBRANCH  20  21
ENDBRANCH  19  20
ENDBRANCH   5  19
TORSDOF 9
ENDMDL
