MODEL 1
REMARK VINA RESULT:      -8.5      0.000      0.000
REMARK  Name = 
REMARK  5 active torsions:
REMARK  status: ('A' for Active; 'I' for Inactive)
REMARK    1  A    between atoms: C_1  and  C_2
REMARK    2  A    between atoms: N_4  and  C_5
REMARK    3  A    between atoms: C_10  and  C_11
REMARK    4  A    between atoms: C_14  and  C_15
REMARK    5  A    between atoms: C_21  and  O_22
REMARK                            x       y       z     vdW  Elec       q    Type
REMARK                         _______ _______ _______ _____ _____    ______ ____
ROOT
ATOM      1  C   UNL     1      -1.126  11.386  22.552  0.00  0.00    +0.000 A 
ATOM      2  C   UNL     1      -0.760  10.198  23.193  0.00  0.00    +0.000 A 
ATOM      3  C   UNL     1       0.005   9.233  22.533  0.00  0.00    +0.000 A 
ATOM      4  C   UNL     1       0.415   9.450  21.223  0.00  0.00    +0.000 A 
ATOM      5  O   UNL     1       1.178   8.472  20.647  0.00  0.00    +0.000 OA
ATOM      6  C   UNL     1       1.617   8.656  19.350  0.00  0.00    +0.000 A 
ATOM      7  C   UNL     1       1.352   9.736  18.590  0.00  0.00    +0.000 A 
ATOM      8  C   UNL     1       0.519  10.826  19.187  0.00  0.00    +0.000 A 
ATOM      9  O   UNL     1       0.235  11.852  18.579  0.00  0.00    +0.000 OA
ATOM     10  C   UNL     1       0.051  10.619  20.567  0.00  0.00    +0.000 A 
ATOM     11  C   UNL     1      -0.734  11.584  21.222  0.00  0.00    +0.000 A 
ENDROOT
BRANCH   6  12
ATOM     12  C   UNL     1       2.437   7.531  18.883  0.00  0.00    +0.000 A 
ATOM     13  C   UNL     1       2.334   6.281  19.504  0.00  0.00    +0.000 A 
ATOM     14  C   UNL     1       3.081   5.197  19.036  0.00  0.00    +0.000 A 
ATOM     15  C   UNL     1       3.943   5.343  17.940  0.00  0.00    +0.000 A 
ATOM     16  C   UNL     1       4.052   6.604  17.329  0.00  0.00    +0.000 A 
ATOM     17  C   UNL     1       3.305   7.689  17.797  0.00  0.00    +0.000 A 
BRANCH  15  18
ATOM     18  C   UNL     1       4.732   4.173  17.402  0.00  0.00    +0.000 C 
ATOM     19  F   UNL     1       6.028   4.151  17.820  0.00  0.00    +0.000 F 
ATOM     20  F   UNL     1       4.200   2.974  17.772  0.00  0.00    +0.000 F 
ATOM     21  F   UNL     1       4.777   4.158  16.041  0.00  0.00    +0.000 F 
ENDBRANCH  15  18
ENDBRANCH   6  12
BRANCH   1  25
ATOM     22  C   UNL     1      -2.482  14.470  24.256  0.00  0.00    +0.000 C 
ATOM     23  C   UNL     1      -1.457  13.673  23.494  0.00  0.00    +0.000 C 
ATOM     24  O   UNL     1      -0.371  14.166  23.208  0.00  0.00    +0.000 OA
ATOM     25  N   UNL     1      -1.889  12.393  23.184  0.00  0.00    +0.000 N 
ATOM     26  H   UNL     1      -2.869  12.186  23.345  0.00  0.00    +0.000 HD
ENDBRANCH   1  25
BRANCH   7  27
ATOM     27  O   UNL     1       1.803   9.907  17.291  0.00  0.00    +0.000 OA
ATOM     28  H   UNL     1       1.044  10.054  16.704  0.00  0.00    +0.000 HD
ENDBRANCH   7  27
TORSDOF 4
ENDMDL
MODEL 2
REMARK VINA RESULT:      -8.5      0.945      1.547
REMARK  Name = 
REMARK  5 active torsions:
REMARK  status: ('A' for Active; 'I' for Inactive)
REMARK    1  A    between atoms: C_1  and  C_2
REMARK    2  A    between atoms: N_4  and  C_5
REMARK    3  A    between atoms: C_10  and  C_11
REMARK    4  A    between atoms: C_14  and  C_15
REMARK    5  A    between atoms: C_21  and  O_22
REMARK                            x       y       z     vdW  Elec       q    Type
REMARK                         _______ _______ _______ _____ _____    ______ ____
ROOT
ATOM      1  C   UNL     1      -1.058  11.537  22.621  0.00  0.00    +0.000 A 
ATOM      2  C   UNL     1      -0.788  10.300  23.216  0.00  0.00    +0.000 A 
ATOM      3  C   UNL     1      -0.075   9.315  22.529  0.00  0.00    +0.000 A 
ATOM      4  C   UNL     1       0.380   9.559  21.238  0.00  0.00    +0.000 A 
ATOM      5  O   UNL     1       1.088   8.558  20.635  0.00  0.00    +0.000 OA
ATOM      6  C   UNL     1       1.568   8.767  19.357  0.00  0.00    +0.000 A 
ATOM      7  C   UNL     1       1.394   9.894  18.640  0.00  0.00    +0.000 A 
ATOM      8  C   UNL     1       0.622  11.012  19.268  0.00  0.00    +0.000 A 
ATOM      9  O   UNL     1       0.422  12.080  18.701  0.00  0.00    +0.000 OA
ATOM     10  C   UNL     1       0.109  10.778  20.629  0.00  0.00    +0.000 A 
ATOM     11  C   UNL     1      -0.623  11.765  21.310  0.00  0.00    +0.000 A 
ENDROOT
BRANCH   6  12
ATOM     12  C   UNL     1       2.321   7.611  18.856  0.00  0.00    +0.000 A 
ATOM     13  C   UNL     1       3.152   7.744  17.737  0.00  0.00    +0.000 A 
ATOM     14  C   UNL     1       3.903   6.657  17.281  0.00  0.00    +0.000 A 
ATOM     15  C   UNL     1       3.837   5.419  17.937  0.00  0.00    +0.000 A 
ATOM     16  C   UNL     1       2.992   5.288  19.051  0.00  0.00    +0.000 A 
ATOM     17  C   UNL     1       2.240   6.375  19.507  0.00  0.00    +0.000 A 
BRANCH  15  18
ATOM     18  C   UNL     1       4.668   4.244  17.477  0.00  0.00    +0.000 C 
ATOM     19  F   UNL     1       4.035   3.045  17.607  0.00  0.00    +0.000 F 
ATOM     20  F   UNL     1       5.020   4.340  16.164  0.00  0.00    +0.000 F 
ATOM     21  F   UNL     1       5.834   4.130  18.170  0.00  0.00    +0.000 F 
ENDBRANCH  15  18
ENDBRANCH   6  12
BRANCH   1  25
ATOM     22  C   UNL     1      -3.550  14.054  23.930  0.00  0.00    +0.000 C 
ATOM     23  C   UNL     1      -3.124  12.823  23.174  0.00  0.00    +0.000 C 
ATOM     24  O   UNL     1      -3.945  12.161  22.549  0.00  0.00    +0.000 OA
ATOM     25  N   UNL     1      -1.766  12.565  23.282  0.00  0.00    +0.000 N 
ATOM     26  H   UNL     1      -1.247  13.109  23.964  0.00  0.00    +0.000 HD
ENDBRANCH   1  25
BRANCH   7  27
ATOM     27  O   UNL     1       1.885  10.091  17.360  0.00  0.00    +0.000 OA
ATOM     28  H   UNL     1       2.798  10.416  17.412  0.00  0.00    +0.000 HD
ENDBRANCH   7  27
TORSDOF 4
ENDMDL
MODEL 3
REMARK VINA RESULT:      -8.4      0.999      1.237
REMARK  Name = 
REMARK  5 active torsions:
REMARK  status: ('A' for Active; 'I' for Inactive)
REMARK    1  A    between atoms: C_1  and  C_2
REMARK    2  A    between atoms: N_4  and  C_5
REMARK    3  A    between atoms: C_10  and  C_11
REMARK    4  A    between atoms: C_14  and  C_15
REMARK    5  A    between atoms: C_21  and  O_22
REMARK                            x       y       z     vdW  Elec       q    Type
REMARK                         _______ _______ _______ _____ _____    ______ ____
ROOT
ATOM      1  C   UNL     1      -0.843  11.047  22.574  0.00  0.00    +0.000 A 
ATOM      2  C   UNL     1      -0.507   9.797  23.105  0.00  0.00    +0.000 A 
ATOM      3  C   UNL     1       0.214   8.868  22.351  0.00  0.00    +0.000 A 
ATOM      4  C   UNL     1       0.611   9.182  21.057  0.00  0.00    +0.000 A 
ATOM      5  O   UNL     1       1.331   8.234  20.386  0.00  0.00    +0.000 OA
ATOM      6  C   UNL     1       1.755   8.514  19.102  0.00  0.00    +0.000 A 
ATOM      7  C   UNL     1       1.515   9.662  18.441  0.00  0.00    +0.000 A 
ATOM      8  C   UNL     1       0.729  10.724  19.144  0.00  0.00    +0.000 A 
ATOM      9  O   UNL     1       0.470  11.807  18.631  0.00  0.00    +0.000 OA
ATOM     10  C   UNL     1       0.275  10.415  20.510  0.00  0.00    +0.000 A 
ATOM     11  C   UNL     1      -0.465  11.345  21.259  0.00  0.00    +0.000 A 
ENDROOT
BRANCH   6  12
ATOM     12  C   UNL     1       2.529   7.407  18.525  0.00  0.00    +0.000 A 
ATOM     13  C   UNL     1       2.069   6.091  18.644  0.00  0.00    +0.000 A 
ATOM     14  C   UNL     1       2.780   5.038  18.062  0.00  0.00    +0.000 A 
ATOM     15  C   UNL     1       3.963   5.284  17.350  0.00  0.00    +0.000 A 
ATOM     16  C   UNL     1       4.428   6.605  17.245  0.00  0.00    +0.000 A 
ATOM     17  C   UNL     1       3.717   7.658  17.828  0.00  0.00    +0.000 A 
BRANCH  15  18
ATOM     18  C   UNL     1       4.725   4.161  16.686  0.00  0.00    +0.000 C 
ATOM     19  F   UNL     1       4.265   2.921  17.015  0.00  0.00    +0.000 F 
ATOM     20  F   UNL     1       4.672   4.230  15.326  0.00  0.00    +0.000 F 
ATOM     21  F   UNL     1       6.047   4.168  17.010  0.00  0.00    +0.000 F 
ENDBRANCH  15  18
ENDBRANCH   6  12
BRANCH   1  25
ATOM     22  C   UNL     1      -3.226  13.665  23.885  0.00  0.00    +0.000 C 
ATOM     23  C   UNL     1      -2.775  12.582  22.941  0.00  0.00    +0.000 C 
ATOM     24  O   UNL     1      -3.459  12.278  21.970  0.00  0.00    +0.000 OA
ATOM     25  N   UNL     1      -1.561  12.020  23.303  0.00  0.00    +0.000 N 
ATOM     26  H   UNL     1      -1.196  12.264  24.218  0.00  0.00    +0.000 HD
ENDBRANCH   1  25
BRANCH   7  27
ATOM     27  O   UNL     1       1.951   9.930  17.153  0.00  0.00    +0.000 OA
ATOM     28  H   UNL     1       1.826   9.141  16.601  0.00  0.00    +0.000 HD
ENDBRANCH   7  27
TORSDOF 4
ENDMDL
MODEL 4
REMARK VINA RESULT:      -8.1      1.730      3.037
REMARK  Name = 
REMARK  5 active torsions:
REMARK  status: ('A' for Active; 'I' for Inactive)
REMARK    1  A    between atoms: C_1  and  C_2
REMARK    2  A    between atoms: N_4  and  C_5
REMARK    3  A    between atoms: C_10  and  C_11
REMARK    4  A    between atoms: C_14  and  C_15
REMARK    5  A    between atoms: C_21  and  O_22
REMARK                            x       y       z     vdW  Elec       q    Type
REMARK                         _______ _______ _______ _____ _____    ______ ____
ROOT
ATOM      1  C   UNL     1      -0.414  11.202  20.023  0.00  0.00    +0.000 A 
ATOM      2  C   UNL     1       0.010  11.417  18.708  0.00  0.00    +0.000 A 
ATOM      3  C   UNL     1       0.873  10.518  18.076  0.00  0.00    +0.000 A 
ATOM      4  C   UNL     1       1.318   9.390  18.754  0.00  0.00    +0.000 A 
ATOM      5  O   UNL     1       2.144   8.544  18.068  0.00  0.00    +0.000 OA
ATOM      6  C   UNL     1       2.597   7.404  18.703  0.00  0.00    +0.000 A 
ATOM      7  C   UNL     1       2.291   7.049  19.966  0.00  0.00    +0.000 A 
ATOM      8  C   UNL     1       1.390   7.952  20.749  0.00  0.00    +0.000 A 
ATOM      9  O   UNL     1       1.044   7.708  21.900  0.00  0.00    +0.000 OA
ATOM     10  C   UNL     1       0.916   9.167  20.066  0.00  0.00    +0.000 A 
ATOM     11  C   UNL     1       0.063  10.078  20.711  0.00  0.00    +0.000 A 
ENDROOT
BRANCH   6  12
ATOM     12  C   UNL     1       3.455   6.592  17.831  0.00  0.00    +0.000 A 
ATOM     13  C   UNL     1       3.244   5.213  17.725  0.00  0.00    +0.000 A 
ATOM     14  C   UNL     1       4.031   4.442  16.865  0.00  0.00    +0.000 A 
ATOM     15  C   UNL     1       5.040   5.038  16.095  0.00  0.00    +0.000 A 
ATOM     16  C   UNL     1       5.256   6.420  16.216  0.00  0.00    +0.000 A 
ATOM     17  C   UNL     1       4.470   7.191  17.077  0.00  0.00    +0.000 A 
BRANCH  15  18
ATOM     18  C   UNL     1       5.877   4.224  15.136  0.00  0.00    +0.000 C 
ATOM     19  F   UNL     1       5.371   4.183  13.872  0.00  0.00    +0.000 F 
ATOM     20  F   UNL     1       7.145   4.706  15.015  0.00  0.00    +0.000 F 
ATOM     21  F   UNL     1       6.005   2.927  15.530  0.00  0.00    +0.000 F 
ENDBRANCH  15  18
ENDBRANCH   6  12
BRANCH   1  25
ATOM     22  C   UNL     1      -2.137  13.692  22.278  0.00  0.00    +0.000 C 
ATOM     23  C   UNL     1      -0.947  12.975  21.694  0.00  0.00    +0.000 C 
ATOM     24  O   UNL     1       0.184  13.210  22.106  0.00  0.00    +0.000 OA
ATOM     25  N   UNL     1      -1.293  12.078  20.697  0.00  0.00    +0.000 N 
ATOM     26  H   UNL     1      -2.249  12.113  20.357  0.00  0.00    +0.000 HD
ENDBRANCH   1  25
BRANCH   7  27
ATOM     27  O   UNL     1       2.751   5.900  20.589  0.00  0.00    +0.000 OA
ATOM     28  H   UNL     1       3.572   6.100  21.067  0.00  0.00    +0.000 HD
ENDBRANCH   7  27
TORSDOF 4
ENDMDL
MODEL 5
REMARK VINA RESULT:      -8.1      2.214      2.872
REMARK  Name = 
REMARK  5 active torsions:
REMARK  status: ('A' for Active; 'I' for Inactive)
REMARK    1  A    between atoms: C_1  and  C_2
REMARK    2  A    between atoms: N_4  and  C_5
REMARK    3  A    between atoms: C_10  and  C_11
REMARK    4  A    between atoms: C_14  and  C_15
REMARK    5  A    between atoms: C_21  and  O_22
REMARK                            x       y       z     vdW  Elec       q    Type
REMARK                         _______ _______ _______ _____ _____    ______ ____
ROOT
ATOM      1  C   UNL     1      -2.459  12.434  19.837  0.00  0.00    +0.000 A 
ATOM      2  C   UNL     1      -2.319  11.913  18.547  0.00  0.00    +0.000 A 
ATOM      3  C   UNL     1      -1.381  10.914  18.275  0.00  0.00    +0.000 A 
ATOM      4  C   UNL     1      -0.575  10.422  19.295  0.00  0.00    +0.000 A 
ATOM      5  O   UNL     1       0.305   9.431  18.961  0.00  0.00    +0.000 OA
ATOM      6  C   UNL     1       1.114   8.906  19.949  0.00  0.00    +0.000 A 
ATOM      7  C   UNL     1       1.112   9.296  21.239  0.00  0.00    +0.000 A 
ATOM      8  C   UNL     1       0.162  10.380  21.641  0.00  0.00    +0.000 A 
ATOM      9  O   UNL     1       0.076  10.793  22.792  0.00  0.00    +0.000 OA
ATOM     10  C   UNL     1      -0.693  10.937  20.580  0.00  0.00    +0.000 A 
ATOM     11  C   UNL     1      -1.623  11.955  20.853  0.00  0.00    +0.000 A 
ENDROOT
BRANCH   6  12
ATOM     12  C   UNL     1       1.986   7.841  19.438  0.00  0.00    +0.000 A 
ATOM     13  C   UNL     1       2.098   6.631  20.132  0.00  0.00    +0.000 A 
ATOM     14  C   UNL     1       2.895   5.599  19.629  0.00  0.00    +0.000 A 
ATOM     15  C   UNL     1       3.592   5.759  18.423  0.00  0.00    +0.000 A 
ATOM     16  C   UNL     1       3.487   6.981  17.737  0.00  0.00    +0.000 A 
ATOM     17  C   UNL     1       2.690   8.013  18.241  0.00  0.00    +0.000 A 
BRANCH  15  18
ATOM     18  C   UNL     1       4.430   4.641  17.848  0.00  0.00    +0.000 C 
ATOM     19  F   UNL     1       5.685   4.576  18.373  0.00  0.00    +0.000 F 
ATOM     20  F   UNL     1       3.874   3.415  18.058  0.00  0.00    +0.000 F 
ATOM     21  F   UNL     1       4.593   4.753  16.501  0.00  0.00    +0.000 F 
ENDBRANCH  15  18
ENDBRANCH   6  12
BRANCH   1  25
ATOM     22  C   UNL     1      -5.417  14.508  20.933  0.00  0.00    +0.000 C 
ATOM     23  C   UNL     1      -4.593  13.251  20.838  0.00  0.00    +0.000 C 
ATOM     24  O   UNL     1      -4.995  12.204  21.334  0.00  0.00    +0.000 OA
ATOM     25  N   UNL     1      -3.399  13.437  20.159  0.00  0.00    +0.000 N 
ATOM     26  H   UNL     1      -3.133  14.394  19.950  0.00  0.00    +0.000 HD
ENDBRANCH   1  25
BRANCH   7  27
ATOM     27  O   UNL     1       1.927   8.757  22.220  0.00  0.00    +0.000 OA
ATOM     28  H   UNL     1       1.924   9.339  22.997  0.00  0.00    +0.000 HD
ENDBRANCH   7  27
TORSDOF 4
ENDMDL
MODEL 6
REMARK VINA RESULT:      -8.1      2.154      3.202
REMARK  Name = 
REMARK  5 active torsions:
REMARK  status: ('A' for Active; 'I' for Inactive)
REMARK    1  A    between atoms: C_1  and  C_2
REMARK    2  A    between atoms: N_4  and  C_5
REMARK    3  A    between atoms: C_10  and  C_11
REMARK    4  A    between atoms: C_14  and  C_15
REMARK    5  A    between atoms: C_21  and  O_22
REMARK                            x       y       z     vdW  Elec       q    Type
REMARK                         _______ _______ _______ _____ _____    ______ ____
ROOT
ATOM      1  C   UNL     1      -0.320  11.317  19.894  0.00  0.00    +0.000 A 
ATOM      2  C   UNL     1       0.147  11.513  18.590  0.00  0.00    +0.000 A 
ATOM      3  C   UNL     1       1.003  10.588  17.988  0.00  0.00    +0.000 A 
ATOM      4  C   UNL     1       1.398   9.452  18.685  0.00  0.00    +0.000 A 
ATOM      5  O   UNL     1       2.220   8.581  18.027  0.00  0.00    +0.000 OA
ATOM      6  C   UNL     1       2.624   7.433  18.681  0.00  0.00    +0.000 A 
ATOM      7  C   UNL     1       2.273   7.094  19.937  0.00  0.00    +0.000 A 
ATOM      8  C   UNL     1       1.375   8.025  20.688  0.00  0.00    +0.000 A 
ATOM      9  O   UNL     1       0.990   7.798  21.830  0.00  0.00    +0.000 OA
ATOM     10  C   UNL     1       0.953   9.249  19.986  0.00  0.00    +0.000 A 
ATOM     11  C   UNL     1       0.106  10.186  20.601  0.00  0.00    +0.000 A 
ENDROOT
BRANCH   6  12
ATOM     12  C   UNL     1       3.484   6.594  17.838  0.00  0.00    +0.000 A 
ATOM     13  C   UNL     1       3.254   5.216  17.751  0.00  0.00    +0.000 A 
ATOM     14  C   UNL     1       4.044   4.419  16.919  0.00  0.00    +0.000 A 
ATOM     15  C   UNL     1       5.076   4.986  16.157  0.00  0.00    +0.000 A 
ATOM     16  C   UNL     1       5.311   6.367  16.259  0.00  0.00    +0.000 A 
ATOM     17  C   UNL     1       4.522   7.164  17.092  0.00  0.00    +0.000 A 
BRANCH  15  18
ATOM     18  C   UNL     1       5.916   4.143  15.227  0.00  0.00    +0.000 C 
ATOM     19  F   UNL     1       7.231   4.498  15.208  0.00  0.00    +0.000 F 
ATOM     20  F   UNL     1       5.892   2.821  15.559  0.00  0.00    +0.000 F 
ATOM     21  F   UNL     1       5.490   4.213  13.936  0.00  0.00    +0.000 F 
ENDBRANCH  15  18
ENDBRANCH   6  12
BRANCH   1  25
ATOM     22  C   UNL     1      -3.138  13.568  21.012  0.00  0.00    +0.000 C 
ATOM     23  C   UNL     1      -2.511  12.476  20.186  0.00  0.00    +0.000 C 
ATOM     24  O   UNL     1      -3.155  11.910  19.310  0.00  0.00    +0.000 OA
ATOM     25  N   UNL     1      -1.195  12.221  20.538  0.00  0.00    +0.000 N 
ATOM     26  H   UNL     1      -0.852  12.657  21.387  0.00  0.00    +0.000 HD
ENDBRANCH   1  25
BRANCH   7  27
ATOM     27  O   UNL     1       2.684   5.937  20.578  0.00  0.00    +0.000 OA
ATOM     28  H   UNL     1       2.851   6.131  21.515  0.00  0.00    +0.000 HD
ENDBRANCH   7  27
TORSDOF 4
ENDMDL
MODEL 7
REMARK VINA RESULT:      -8.1      2.079      3.353
REMARK  Name = 
REMARK  5 active torsions:
REMARK  status: ('A' for Active; 'I' for Inactive)
REMARK    1  A    between atoms: C_1  and  C_2
REMARK    2  A    between atoms: N_4  and  C_5
REMARK    3  A    between atoms: C_10  and  C_11
REMARK    4  A    between atoms: C_14  and  C_15
REMARK    5  A    between atoms: C_21  and  O_22
REMARK                            x       y       z     vdW  Elec       q    Type
REMARK                         _______ _______ _______ _____ _____    ______ ____
ROOT
ATOM      1  C   UNL     1      -0.284  11.320  20.021  0.00  0.00    +0.000 A 
ATOM      2  C   UNL     1       0.163  11.533  18.713  0.00  0.00    +0.000 A 
ATOM      3  C   UNL     1       0.997  10.608  18.080  0.00  0.00    +0.000 A 
ATOM      4  C   UNL     1       1.390   9.456  18.750  0.00  0.00    +0.000 A 
ATOM      5  O   UNL     1       2.189   8.586  18.063  0.00  0.00    +0.000 OA
ATOM      6  C   UNL     1       2.590   7.422  18.690  0.00  0.00    +0.000 A 
ATOM      7  C   UNL     1       2.256   7.066  19.946  0.00  0.00    +0.000 A 
ATOM      8  C   UNL     1       1.383   7.994  20.729  0.00  0.00    +0.000 A 
ATOM      9  O   UNL     1       1.015   7.752  21.873  0.00  0.00    +0.000 OA
ATOM     10  C   UNL     1       0.965   9.235  20.055  0.00  0.00    +0.000 A 
ATOM     11  C   UNL     1       0.140  10.172  20.701  0.00  0.00    +0.000 A 
ENDROOT
BRANCH   6  12
ATOM     12  C   UNL     1       3.425   6.587  17.817  0.00  0.00    +0.000 A 
ATOM     13  C   UNL     1       4.468   7.163  17.082  0.00  0.00    +0.000 A 
ATOM     14  C   UNL     1       5.292   6.366  16.282  0.00  0.00    +0.000 A 
ATOM     15  C   UNL     1       5.088   4.981  16.205  0.00  0.00    +0.000 A 
ATOM     16  C   UNL     1       4.031   4.411  16.934  0.00  0.00    +0.000 A 
ATOM     17  C   UNL     1       3.207   5.208  17.734  0.00  0.00    +0.000 A 
BRANCH  15  18
ATOM     18  C   UNL     1       5.991   4.102  15.371  0.00  0.00    +0.000 C 
ATOM     19  F   UNL     1       5.736   4.172  14.035  0.00  0.00    +0.000 F 
ATOM     20  F   UNL     1       7.307   4.422  15.518  0.00  0.00    +0.000 F 
ATOM     21  F   UNL     1       5.885   2.786  15.704  0.00  0.00    +0.000 F 
ENDBRANCH  15  18
ENDBRANCH   6  12
BRANCH   1  25
ATOM     22  C   UNL     1      -3.034  13.620  21.205  0.00  0.00    +0.000 C 
ATOM     23  C   UNL     1      -2.433  12.548  20.334  0.00  0.00    +0.000 C 
ATOM     24  O   UNL     1      -3.081  12.054  19.418  0.00  0.00    +0.000 OA
ATOM     25  N   UNL     1      -1.135  12.223  20.695  0.00  0.00    +0.000 N 
ATOM     26  H   UNL     1      -0.793  12.601  21.573  0.00  0.00    +0.000 HD
ENDBRANCH   1  25
BRANCH   7  27
ATOM     27  O   UNL     1       2.664   5.893  20.559  0.00  0.00    +0.000 OA
ATOM     28  H   UNL     1       2.607   5.160  19.924  0.00  0.00    +0.000 HD
ENDBRANCH   7  27
TORSDOF 4
ENDMDL
MODEL 8
REMARK VINA RESULT:      -8.0      2.311      3.214
REMARK  Name = 
REMARK  5 active torsions:
REMARK  status: ('A' for Active; 'I' for Inactive)
REMARK    1  A    between atoms: C_1  and  C_2
REMARK    2  A    between atoms: N_4  and  C_5
REMARK    3  A    between atoms: C_10  and  C_11
REMARK    4  A    between atoms: C_14  and  C_15
REMARK    5  A    between atoms: C_21  and  O_22
REMARK                            x       y       z     vdW  Elec       q    Type
REMARK                         _______ _______ _______ _____ _____    ______ ____
ROOT
ATOM      1  C   UNL     1      -2.440  12.448  19.814  0.00  0.00    +0.000 A 
ATOM      2  C   UNL     1      -2.289  11.963  18.511  0.00  0.00    +0.000 A 
ATOM      3  C   UNL     1      -1.346  10.973  18.219  0.00  0.00    +0.000 A 
ATOM      4  C   UNL     1      -0.547  10.456  19.231  0.00  0.00    +0.000 A 
ATOM      5  O   UNL     1       0.338   9.476  18.877  0.00  0.00    +0.000 OA
ATOM      6  C   UNL     1       1.141   8.927  19.857  0.00  0.00    +0.000 A 
ATOM      7  C   UNL     1       1.128   9.281  21.157  0.00  0.00    +0.000 A 
ATOM      8  C   UNL     1       0.172  10.351  21.581  0.00  0.00    +0.000 A 
ATOM      9  O   UNL     1       0.077  10.733  22.742  0.00  0.00    +0.000 OA
ATOM     10  C   UNL     1      -0.676  10.935  20.529  0.00  0.00    +0.000 A 
ATOM     11  C   UNL     1      -1.610  11.943  20.823  0.00  0.00    +0.000 A 
ENDROOT
BRANCH   6  12
ATOM     12  C   UNL     1       2.020   7.879  19.324  0.00  0.00    +0.000 A 
ATOM     13  C   UNL     1       2.732   8.095  18.138  0.00  0.00    +0.000 A 
ATOM     14  C   UNL     1       3.602   7.117  17.648  0.00  0.00    +0.000 A 
ATOM     15  C   UNL     1       3.776   5.907  18.335  0.00  0.00    +0.000 A 
ATOM     16  C   UNL     1       3.048   5.690  19.517  0.00  0.00    +0.000 A 
ATOM     17  C   UNL     1       2.178   6.668  20.007  0.00  0.00    +0.000 A 
BRANCH  15  18
ATOM     18  C   UNL     1       4.737   4.854  17.836  0.00  0.00    +0.000 C 
ATOM     19  F   UNL     1       4.395   4.334  16.625  0.00  0.00    +0.000 F 
ATOM     20  F   UNL     1       6.004   5.335  17.692  0.00  0.00    +0.000 F 
ATOM     21  F   UNL     1       4.833   3.794  18.686  0.00  0.00    +0.000 F 
ENDBRANCH  15  18
ENDBRANCH   6  12
BRANCH   1  25
ATOM     22  C   UNL     1      -5.490  14.514  20.643  0.00  0.00    +0.000 C 
ATOM     23  C   UNL     1      -4.734  13.233  20.402  0.00  0.00    +0.000 C 
ATOM     24  O   UNL     1      -5.313  12.153  20.434  0.00  0.00    +0.000 OA
ATOM     25  N   UNL     1      -3.386  13.439  20.156  0.00  0.00    +0.000 N 
ATOM     26  H   UNL     1      -3.025  14.374  20.322  0.00  0.00    +0.000 HD
ENDBRANCH   1  25
BRANCH   7  27
ATOM     27  O   UNL     1       1.938   8.717  22.129  0.00  0.00    +0.000 OA
ATOM     28  H   UNL     1       1.480   7.961  22.529  0.00  0.00    +0.000 HD
ENDBRANCH   7  27
TORSDOF 4
ENDMDL
MODEL 9
REMARK VINA RESULT:      -8.0      2.128      2.998
REMARK  Name = 
REMARK  5 active torsions:
REMARK  status: ('A' for Active; 'I' for Inactive)
REMARK    1  A    between atoms: C_1  and  C_2
REMARK    2  A    between atoms: N_4  and  C_5
REMARK    3  A    between atoms: C_10  and  C_11
REMARK    4  A    between atoms: C_14  and  C_15
REMARK    5  A    between atoms: C_21  and  O_22
REMARK                            x       y       z     vdW  Elec       q    Type
REMARK                         _______ _______ _______ _____ _____    ______ ____
ROOT
ATOM      1  C   UNL     1      -2.620  12.650  20.670  0.00  0.00    +0.000 A 
ATOM      2  C   UNL     1      -2.543  12.341  19.308  0.00  0.00    +0.000 A 
ATOM      3  C   UNL     1      -1.625  11.399  18.837  0.00  0.00    +0.000 A 
ATOM      4  C   UNL     1      -0.776  10.752  19.727  0.00  0.00    +0.000 A 
ATOM      5  O   UNL     1       0.081   9.828  19.200  0.00  0.00    +0.000 OA
ATOM      6  C   UNL     1       0.932   9.153  20.054  0.00  0.00    +0.000 A 
ATOM      7  C   UNL     1       0.992   9.333  21.388  0.00  0.00    +0.000 A 
ATOM      8  C   UNL     1       0.068  10.338  22.000  0.00  0.00    +0.000 A 
ATOM      9  O   UNL     1       0.038  10.563  23.205  0.00  0.00    +0.000 OA
ATOM     10  C   UNL     1      -0.832  11.056  21.082  0.00  0.00    +0.000 A 
ATOM     11  C   UNL     1      -1.741  12.016  21.557  0.00  0.00    +0.000 A 
ENDROOT
BRANCH   6  12
ATOM     12  C   UNL     1       1.774   8.185  19.340  0.00  0.00    +0.000 A 
ATOM     13  C   UNL     1       2.279   8.494  18.072  0.00  0.00    +0.000 A 
ATOM     14  C   UNL     1       3.115   7.592  17.406  0.00  0.00    +0.000 A 
ATOM     15  C   UNL     1       3.459   6.369  17.997  0.00  0.00    +0.000 A 
ATOM     16  C   UNL     1       2.937   6.058  19.263  0.00  0.00    +0.000 A 
ATOM     17  C   UNL     1       2.101   6.959  19.930  0.00  0.00    +0.000 A 
BRANCH  15  18
ATOM     18  C   UNL     1       4.388   5.399  17.304  0.00  0.00    +0.000 C 
ATOM     19  F   UNL     1       5.470   5.050  18.054  0.00  0.00    +0.000 F 
ATOM     20  F   UNL     1       3.768   4.230  16.978  0.00  0.00    +0.000 F 
ATOM     21  F   UNL     1       4.884   5.898  16.139  0.00  0.00    +0.000 F 
ENDBRANCH  15  18
ENDBRANCH   6  12
BRANCH   1  25
ATOM     22  C   UNL     1      -5.547  14.529  22.139  0.00  0.00    +0.000 C 
ATOM     23  C   UNL     1      -4.760  13.297  21.778  0.00  0.00    +0.000 C 
ATOM     24  O   UNL     1      -5.212  12.180  22.009  0.00  0.00    +0.000 OA
ATOM     25  N   UNL     1      -3.539  13.588  21.191  0.00  0.00    +0.000 N 
ATOM     26  H   UNL     1      -3.236  14.556  21.214  0.00  0.00    +0.000 HD
ENDBRANCH   1  25
BRANCH   7  27
ATOM     27  O   UNL     1       1.848   8.646  22.232  0.00  0.00    +0.000 OA
ATOM     28  H   UNL     1       2.760   8.942  22.075  0.00  0.00    +0.000 HD
ENDBRANCH   7  27
TORSDOF 4
ENDMDL
