MODEL 1
REMARK VINA RESULT:      -7.7      0.000      0.000
REMARK  Name = 
REMARK  10 active torsions:
REMARK  status: ('A' for Active; 'I' for Inactive)
REMARK    1  A    between atoms: C_1  and  C_2
REMARK    2  A    between atoms: C_6  and  C_7
REMARK    3  A    between atoms: C_7  and  C_8
REMARK    4  A    between atoms: C_8  and  N_9
REMARK    5  A    between atoms: C_10  and  C_12
REMARK    6  A    between atoms: C_12  and  C_13
REMARK    7  A    between atoms: C_13  and  C_14
REMARK    8  A    between atoms: C_13  and  C_15
REMARK    9  A    between atoms: C_16  and  O_17
REMARK   10  A    between atoms: C_21  and  C_22
REMARK                            x       y       z     vdW  Elec       q    Type
REMARK                         _______ _______ _______ _____ _____    ______ ____
ROOT
ATOM      1  C   UNL     1       0.394   2.389  18.725  0.00  0.00    +0.000 C 
ATOM      2  C   UNL     1       1.743   2.981  19.014  0.00  0.00    +0.000 A 
ATOM      3  C   UNL     1       2.494   3.525  17.968  0.00  0.00    +0.000 A 
ATOM      4  C   UNL     1       3.720   4.162  18.222  0.00  0.00    +0.000 A 
ATOM      5  C   UNL     1       4.425   4.793  17.205  0.00  0.00    +0.000 A 
ATOM      6  C   UNL     1       5.610   5.492  17.455  0.00  0.00    +0.000 A 
ATOM      7  C   UNL     1       6.084   5.415  18.761  0.00  0.00    +0.000 A 
ATOM      8  N   UNL     1       5.436   4.806  19.774  0.00  0.00    +0.000 NA
ATOM      9  C   UNL     1       4.259   4.214  19.517  0.00  0.00    +0.000 A 
ATOM     10  C   UNL     1       3.517   3.644  20.540  0.00  0.00    +0.000 A 
ATOM     11  C   UNL     1       2.257   3.051  20.321  0.00  0.00    +0.000 A 
ATOM     12  C   UNL     1       1.474   2.550  21.503  0.00  0.00    +0.000 C 
ENDROOT
BRANCH   7  13
ATOM     13  O   UNL     1       7.301   5.919  19.111  0.00  0.00    +0.000 OA
ATOM     14  H   UNL     1       7.431   5.686  20.044  0.00  0.00    +0.000 HD
ENDBRANCH   7  13
BRANCH   6  15
ATOM     15  C   UNL     1       6.310   6.221  16.330  0.00  0.00    +0.000 C 
BRANCH  15  16
ATOM     16  C   UNL     1       7.367   5.348  15.623  0.00  0.00    +0.000 C 
BRANCH  16  17
ATOM     17  N   UNL     1       7.096   5.125  14.225  0.00  0.00    +0.000 N 
ATOM     18  C   UNL     1       6.423   3.994  13.833  0.00  0.00    +0.000 C 
ATOM     19  O   UNL     1       5.919   3.204  14.638  0.00  0.00    +0.000 OA
ATOM     20  H   UNL     1       7.419   5.795  13.539  0.00  0.00    +0.000 HD
BRANCH  18  21
ATOM     21  C   UNL     1       6.332   3.774  12.348  0.00  0.00    +0.000 C 
BRANCH  21  22
ATOM     22  C   UNL     1       5.385   2.634  11.948  0.00  0.00    +0.000 C 
ATOM     23  C   UNL     1       4.183   3.128  11.139  0.00  0.00    +0.000 C 
ATOM     24  C   UNL     1       6.155   1.591  11.136  0.00  0.00    +0.000 C 
ENDBRANCH  21  22
ENDBRANCH  18  21
ENDBRANCH  16  17
ENDBRANCH  15  16
ENDBRANCH   6  15
TORSDOF 6
ENDMDL
MODEL 2
REMARK VINA RESULT:      -7.2      4.057      6.664
REMARK  Name = 
REMARK  10 active torsions:
REMARK  status: ('A' for Active; 'I' for Inactive)
REMARK    1  A    between atoms: C_1  and  C_2
REMARK    2  A    between atoms: C_6  and  C_7
REMARK    3  A    between atoms: C_7  and  C_8
REMARK    4  A    between atoms: C_8  and  N_9
REMARK    5  A    between atoms: C_10  and  C_12
REMARK    6  A    between atoms: C_12  and  C_13
REMARK    7  A    between atoms: C_13  and  C_14
REMARK    8  A    between atoms: C_13  and  C_15
REMARK    9  A    between atoms: C_16  and  O_17
REMARK   10  A    between atoms: C_21  and  C_22
REMARK                            x       y       z     vdW  Elec       q    Type
REMARK                         _______ _______ _______ _____ _____    ______ ____
ROOT
ATOM      1  C   UNL     1       1.800   3.711  21.247  0.00  0.00    +0.000 C 
ATOM      2  C   UNL     1       2.500   4.052  19.963  0.00  0.00    +0.000 A 
ATOM      3  C   UNL     1       3.693   4.780  20.003  0.00  0.00    +0.000 A 
ATOM      4  C   UNL     1       4.414   5.038  18.825  0.00  0.00    +0.000 A 
ATOM      5  C   UNL     1       5.648   5.674  18.865  0.00  0.00    +0.000 A 
ATOM      6  C   UNL     1       6.411   5.874  17.710  0.00  0.00    +0.000 A 
ATOM      7  C   UNL     1       5.799   5.495  16.519  0.00  0.00    +0.000 A 
ATOM      8  N   UNL     1       4.600   4.884  16.436  0.00  0.00    +0.000 NA
ATOM      9  C   UNL     1       3.931   4.632  17.572  0.00  0.00    +0.000 A 
ATOM     10  C   UNL     1       2.732   3.936  17.545  0.00  0.00    +0.000 A 
ATOM     11  C   UNL     1       2.018   3.614  18.717  0.00  0.00    +0.000 A 
ATOM     12  C   UNL     1       0.781   2.766  18.605  0.00  0.00    +0.000 C 
ENDROOT
BRANCH   7  13
ATOM     13  O   UNL     1       6.360   5.770  15.307  0.00  0.00    +0.000 OA
ATOM     14  H   UNL     1       7.002   6.480  15.463  0.00  0.00    +0.000 HD
ENDBRANCH   7  13
BRANCH   6  15
ATOM     15  C   UNL     1       7.779   6.510  17.806  0.00  0.00    +0.000 C 
BRANCH  15  16
ATOM     16  C   UNL     1       7.719   8.052  17.810  0.00  0.00    +0.000 C 
BRANCH  16  17
ATOM     17  N   UNL     1       8.517   8.662  18.844  0.00  0.00    +0.000 N 
ATOM     18  C   UNL     1       8.874   9.984  18.739  0.00  0.00    +0.000 C 
ATOM     19  O   UNL     1       8.436  10.725  17.854  0.00  0.00    +0.000 OA
ATOM     20  H   UNL     1       8.825   8.107  19.632  0.00  0.00    +0.000 HD
BRANCH  18  21
ATOM     21  C   UNL     1       9.837  10.480  19.782  0.00  0.00    +0.000 C 
BRANCH  21  22
ATOM     22  C   UNL     1      10.476  11.833  19.438  0.00  0.00    +0.000 C 
ATOM     23  C   UNL     1      10.200  12.898  20.503  0.00  0.00    +0.000 C 
ATOM     24  C   UNL     1      11.986  11.658  19.269  0.00  0.00    +0.000 C 
ENDBRANCH  21  22
ENDBRANCH  18  21
ENDBRANCH  16  17
ENDBRANCH  15  16
ENDBRANCH   6  15
TORSDOF 6
ENDMDL
MODEL 3
REMARK VINA RESULT:      -7.2      3.879      6.247
REMARK  Name = 
REMARK  10 active torsions:
REMARK  status: ('A' for Active; 'I' for Inactive)
REMARK    1  A    between atoms: C_1  and  C_2
REMARK    2  A    between atoms: C_6  and  C_7
REMARK    3  A    between atoms: C_7  and  C_8
REMARK    4  A    between atoms: C_8  and  N_9
REMARK    5  A    between atoms: C_10  and  C_12
REMARK    6  A    between atoms: C_12  and  C_13
REMARK    7  A    between atoms: C_13  and  C_14
REMARK    8  A    between atoms: C_13  and  C_15
REMARK    9  A    between atoms: C_16  and  O_17
REMARK   10  A    between atoms: C_21  and  C_22
REMARK                            x       y       z     vdW  Elec       q    Type
REMARK                         _______ _______ _______ _____ _____    ______ ____
ROOT
ATOM      1  C   UNL     1       0.112   8.646  21.628  0.00  0.00    +0.000 C 
ATOM      2  C   UNL     1       1.007   8.525  20.429  0.00  0.00    +0.000 A 
ATOM      3  C   UNL     1       1.917   7.466  20.355  0.00  0.00    +0.000 A 
ATOM      4  C   UNL     1       2.705   7.279  19.207  0.00  0.00    +0.000 A 
ATOM      5  C   UNL     1       3.539   6.175  19.083  0.00  0.00    +0.000 A 
ATOM      6  C   UNL     1       4.276   5.936  17.919  0.00  0.00    +0.000 A 
ATOM      7  C   UNL     1       4.199   6.932  16.950  0.00  0.00    +0.000 A 
ATOM      8  N   UNL     1       3.409   8.022  17.036  0.00  0.00    +0.000 NA
ATOM      9  C   UNL     1       2.652   8.178  18.133  0.00  0.00    +0.000 A 
ATOM     10  C   UNL     1       1.766   9.240  18.233  0.00  0.00    +0.000 A 
ATOM     11  C   UNL     1       0.922   9.418  19.347  0.00  0.00    +0.000 A 
ATOM     12  C   UNL     1      -0.083  10.537  19.327  0.00  0.00    +0.000 C 
ENDROOT
BRANCH   7  13
ATOM     13  O   UNL     1       4.980   6.906  15.833  0.00  0.00    +0.000 OA
ATOM     14  H   UNL     1       4.831   7.750  15.381  0.00  0.00    +0.000 HD
ENDBRANCH   7  13
BRANCH   6  15
ATOM     15  C   UNL     1       5.120   4.687  17.799  0.00  0.00    +0.000 C 
BRANCH  15  16
ATOM     16  C   UNL     1       4.354   3.513  17.155  0.00  0.00    +0.000 C 
BRANCH  16  17
ATOM     17  N   UNL     1       3.105   3.207  17.806  0.00  0.00    +0.000 N 
ATOM     18  C   UNL     1       3.072   2.273  18.812  0.00  0.00    +0.000 C 
ATOM     19  O   UNL     1       4.093   1.763  19.284  0.00  0.00    +0.000 OA
ATOM     20  H   UNL     1       2.256   3.669  17.504  0.00  0.00    +0.000 HD
BRANCH  18  21
ATOM     21  C   UNL     1       1.701   1.909  19.315  0.00  0.00    +0.000 C 
BRANCH  21  22
ATOM     22  C   UNL     1       1.284   2.673  20.579  0.00  0.00    +0.000 C 
ATOM     23  C   UNL     1       2.408   2.747  21.616  0.00  0.00    +0.000 C 
ATOM     24  C   UNL     1       0.844   4.087  20.199  0.00  0.00    +0.000 C 
ENDBRANCH  21  22
ENDBRANCH  18  21
ENDBRANCH  16  17
ENDBRANCH  15  16
ENDBRANCH   6  15
TORSDOF 6
ENDMDL
MODEL 4
REMARK VINA RESULT:      -7.1      3.443      5.348
REMARK  Name = 
REMARK  10 active torsions:
REMARK  status: ('A' for Active; 'I' for Inactive)
REMARK    1  A    between atoms: C_1  and  C_2
REMARK    2  A    between atoms: C_6  and  C_7
REMARK    3  A    between atoms: C_7  and  C_8
REMARK    4  A    between atoms: C_8  and  N_9
REMARK    5  A    between atoms: C_10  and  C_12
REMARK    6  A    between atoms: C_12  and  C_13
REMARK    7  A    between atoms: C_13  and  C_14
REMARK    8  A    between atoms: C_13  and  C_15
REMARK    9  A    between atoms: C_16  and  O_17
REMARK   10  A    between atoms: C_21  and  C_22
REMARK                            x       y       z     vdW  Elec       q    Type
REMARK                         _______ _______ _______ _____ _____    ______ ____
ROOT
ATOM      1  C   UNL     1       1.843   9.827  17.923  0.00  0.00    +0.000 C 
ATOM      2  C   UNL     1       1.797   8.578  18.756  0.00  0.00    +0.000 A 
ATOM      3  C   UNL     1       2.197   7.362  18.194  0.00  0.00    +0.000 A 
ATOM      4  C   UNL     1       2.246   6.195  18.975  0.00  0.00    +0.000 A 
ATOM      5  C   UNL     1       2.735   5.004  18.454  0.00  0.00    +0.000 A 
ATOM      6  C   UNL     1       2.857   3.852  19.238  0.00  0.00    +0.000 A 
ATOM      7  C   UNL     1       2.354   3.956  20.531  0.00  0.00    +0.000 A 
ATOM      8  N   UNL     1       1.863   5.090  21.072  0.00  0.00    +0.000 NA
ATOM      9  C   UNL     1       1.837   6.199  20.317  0.00  0.00    +0.000 A 
ATOM     10  C   UNL     1       1.415   7.406  20.852  0.00  0.00    +0.000 A 
ATOM     11  C   UNL     1       1.412   8.603  20.108  0.00  0.00    +0.000 A 
ATOM     12  C   UNL     1       1.039   9.887  20.797  0.00  0.00    +0.000 C 
ENDROOT
BRANCH   7  13
ATOM     13  O   UNL     1       2.269   2.872  21.354  0.00  0.00    +0.000 OA
ATOM     14  H   UNL     1       1.571   2.309  20.986  0.00  0.00    +0.000 HD
ENDBRANCH   7  13
BRANCH   6  15
ATOM     15  C   UNL     1       3.457   2.595  18.649  0.00  0.00    +0.000 C 
BRANCH  15  16
ATOM     16  C   UNL     1       4.321   2.877  17.402  0.00  0.00    +0.000 C 
BRANCH  16  17
ATOM     17  N   UNL     1       5.424   3.773  17.650  0.00  0.00    +0.000 N 
ATOM     18  C   UNL     1       6.254   4.133  16.618  0.00  0.00    +0.000 C 
ATOM     19  O   UNL     1       6.031   3.826  15.443  0.00  0.00    +0.000 OA
ATOM     20  H   UNL     1       5.589   4.116  18.588  0.00  0.00    +0.000 HD
BRANCH  18  21
ATOM     21  C   UNL     1       7.464   4.938  17.009  0.00  0.00    +0.000 C 
BRANCH  21  22
ATOM     22  C   UNL     1       7.171   6.025  18.052  0.00  0.00    +0.000 C 
ATOM     23  C   UNL     1       7.889   5.770  19.380  0.00  0.00    +0.000 C 
ATOM     24  C   UNL     1       7.587   7.389  17.499  0.00  0.00    +0.000 C 
ENDBRANCH  21  22
ENDBRANCH  18  21
ENDBRANCH  16  17
ENDBRANCH  15  16
ENDBRANCH   6  15
TORSDOF 6
ENDMDL
MODEL 5
REMARK VINA RESULT:      -7.0      2.830      3.236
REMARK  Name = 
REMARK  10 active torsions:
REMARK  status: ('A' for Active; 'I' for Inactive)
REMARK    1  A    between atoms: C_1  and  C_2
REMARK    2  A    between atoms: C_6  and  C_7
REMARK    3  A    between atoms: C_7  and  C_8
REMARK    4  A    between atoms: C_8  and  N_9
REMARK    5  A    between atoms: C_10  and  C_12
REMARK    6  A    between atoms: C_12  and  C_13
REMARK    7  A    between atoms: C_13  and  C_14
REMARK    8  A    between atoms: C_13  and  C_15
REMARK    9  A    between atoms: C_16  and  O_17
REMARK   10  A    between atoms: C_21  and  C_22
REMARK                            x       y       z     vdW  Elec       q    Type
REMARK                         _______ _______ _______ _____ _____    ______ ____
ROOT
ATOM      1  C   UNL     1       0.864   9.832  18.571  0.00  0.00    +0.000 C 
ATOM      2  C   UNL     1       1.721   8.615  18.762  0.00  0.00    +0.000 A 
ATOM      3  C   UNL     1       2.742   8.342  17.847  0.00  0.00    +0.000 A 
ATOM      4  C   UNL     1       3.614   7.258  18.049  0.00  0.00    +0.000 A 
ATOM      5  C   UNL     1       4.691   7.038  17.201  0.00  0.00    +0.000 A 
ATOM      6  C   UNL     1       5.609   6.007  17.429  0.00  0.00    +0.000 A 
ATOM      7  C   UNL     1       5.303   5.162  18.491  0.00  0.00    +0.000 A 
ATOM      8  N   UNL     1       4.264   5.336  19.332  0.00  0.00    +0.000 NA
ATOM      9  C   UNL     1       3.449   6.383  19.133  0.00  0.00    +0.000 A 
ATOM     10  C   UNL     1       2.414   6.650  20.016  0.00  0.00    +0.000 A 
ATOM     11  C   UNL     1       1.562   7.762  19.869  0.00  0.00    +0.000 A 
ATOM     12  C   UNL     1       0.531   8.035  20.930  0.00  0.00    +0.000 C 
ENDROOT
BRANCH   7  13
ATOM     13  O   UNL     1       6.024   4.030  18.735  0.00  0.00    +0.000 OA
ATOM     14  H   UNL     1       6.932   4.322  18.911  0.00  0.00    +0.000 HD
ENDBRANCH   7  13
BRANCH   6  15
ATOM     15  C   UNL     1       6.806   5.843  16.519  0.00  0.00    +0.000 C 
BRANCH  15  16
ATOM     16  C   UNL     1       7.062   4.371  16.135  0.00  0.00    +0.000 C 
BRANCH  16  17
ATOM     17  N   UNL     1       6.039   3.804  15.292  0.00  0.00    +0.000 N 
ATOM     18  C   UNL     1       6.079   4.016  13.936  0.00  0.00    +0.000 C 
ATOM     19  O   UNL     1       7.029   4.569  13.374  0.00  0.00    +0.000 OA
ATOM     20  H   UNL     1       5.287   3.270  15.708  0.00  0.00    +0.000 HD
BRANCH  18  21
ATOM     21  C   UNL     1       4.884   3.522  13.167  0.00  0.00    +0.000 C 
BRANCH  21  22
ATOM     22  C   UNL     1       5.180   3.221  11.691  0.00  0.00    +0.000 C 
ATOM     23  C   UNL     1       5.734   1.808  11.482  0.00  0.00    +0.000 C 
ATOM     24  C   UNL     1       3.904   3.397  10.867  0.00  0.00    +0.000 C 
ENDBRANCH  21  22
ENDBRANCH  18  21
ENDBRANCH  16  17
ENDBRANCH  15  16
ENDBRANCH   6  15
TORSDOF 6
ENDMDL
MODEL 6
REMARK VINA RESULT:      -7.0      4.463      6.914
REMARK  Name = 
REMARK  10 active torsions:
REMARK  status: ('A' for Active; 'I' for Inactive)
REMARK    1  A    between atoms: C_1  and  C_2
REMARK    2  A    between atoms: C_6  and  C_7
REMARK    3  A    between atoms: C_7  and  C_8
REMARK    4  A    between atoms: C_8  and  N_9
REMARK    5  A    between atoms: C_10  and  C_12
REMARK    6  A    between atoms: C_12  and  C_13
REMARK    7  A    between atoms: C_13  and  C_14
REMARK    8  A    between atoms: C_13  and  C_15
REMARK    9  A    between atoms: C_16  and  O_17
REMARK   10  A    between atoms: C_21  and  C_22
REMARK                            x       y       z     vdW  Elec       q    Type
REMARK                         _______ _______ _______ _____ _____    ______ ____
ROOT
ATOM      1  C   UNL     1       1.142   4.836  17.552  0.00  0.00    +0.000 C 
ATOM      2  C   UNL     1       2.542   4.782  18.091  0.00  0.00    +0.000 A 
ATOM      3  C   UNL     1       3.541   5.553  17.489  0.00  0.00    +0.000 A 
ATOM      4  C   UNL     1       4.840   5.588  18.024  0.00  0.00    +0.000 A 
ATOM      5  C   UNL     1       5.811   6.426  17.494  0.00  0.00    +0.000 A 
ATOM      6  C   UNL     1       7.087   6.525  18.060  0.00  0.00    +0.000 A 
ATOM      7  C   UNL     1       7.342   5.651  19.111  0.00  0.00    +0.000 A 
ATOM      8  N   UNL     1       6.430   4.816  19.650  0.00  0.00    +0.000 NA
ATOM      9  C   UNL     1       5.190   4.805  19.135  0.00  0.00    +0.000 A 
ATOM     10  C   UNL     1       4.197   4.023  19.703  0.00  0.00    +0.000 A 
ATOM     11  C   UNL     1       2.873   4.014  19.222  0.00  0.00    +0.000 A 
ATOM     12  C   UNL     1       1.834   3.217  19.962  0.00  0.00    +0.000 C 
ENDROOT
BRANCH   7  13
ATOM     13  O   UNL     1       8.586   5.531  19.657  0.00  0.00    +0.000 OA
ATOM     14  H   UNL     1       9.211   5.601  18.919  0.00  0.00    +0.000 HD
ENDBRANCH   7  13
BRANCH   6  15
ATOM     15  C   UNL     1       8.094   7.500  17.492  0.00  0.00    +0.000 C 
BRANCH  15  16
ATOM     16  C   UNL     1       7.800   8.960  17.895  0.00  0.00    +0.000 C 
BRANCH  16  17
ATOM     17  N   UNL     1       8.832   9.558  18.706  0.00  0.00    +0.000 N 
ATOM     18  C   UNL     1       9.184  10.869  18.503  0.00  0.00    +0.000 C 
ATOM     19  O   UNL     1       8.567  11.615  17.736  0.00  0.00    +0.000 OA
ATOM     20  H   UNL     1       9.304   9.000  19.406  0.00  0.00    +0.000 HD
BRANCH  18  21
ATOM     21  C   UNL     1      10.376  11.349  19.285  0.00  0.00    +0.000 C 
BRANCH  21  22
ATOM     22  C   UNL     1      10.397  12.867  19.510  0.00  0.00    +0.000 C 
ATOM     23  C   UNL     1      10.255  13.242  20.988  0.00  0.00    +0.000 C 
ATOM     24  C   UNL     1      11.699  13.449  18.958  0.00  0.00    +0.000 C 
ENDBRANCH  21  22
ENDBRANCH  18  21
ENDBRANCH  16  17
ENDBRANCH  15  16
ENDBRANCH   6  15
TORSDOF 6
ENDMDL
MODEL 7
REMARK VINA RESULT:      -7.0      3.456      5.222
REMARK  Name = 
REMARK  10 active torsions:
REMARK  status: ('A' for Active; 'I' for Inactive)
REMARK    1  A    between atoms: C_1  and  C_2
REMARK    2  A    between atoms: C_6  and  C_7
REMARK    3  A    between atoms: C_7  and  C_8
REMARK    4  A    between atoms: C_8  and  N_9
REMARK    5  A    between atoms: C_10  and  C_12
REMARK    6  A    between atoms: C_12  and  C_13
REMARK    7  A    between atoms: C_13  and  C_14
REMARK    8  A    between atoms: C_13  and  C_15
REMARK    9  A    between atoms: C_16  and  O_17
REMARK   10  A    between atoms: C_21  and  C_22
REMARK                            x       y       z     vdW  Elec       q    Type
REMARK                         _______ _______ _______ _____ _____    ______ ____
ROOT
ATOM      1  C   UNL     1       1.479  10.285  18.154  0.00  0.00    +0.000 C 
ATOM      2  C   UNL     1       1.712   8.926  18.747  0.00  0.00    +0.000 A 
ATOM      3  C   UNL     1       2.303   7.928  17.967  0.00  0.00    +0.000 A 
ATOM      4  C   UNL     1       2.612   6.674  18.521  0.00  0.00    +0.000 A 
ATOM      5  C   UNL     1       3.288   5.711  17.784  0.00  0.00    +0.000 A 
ATOM      6  C   UNL     1       3.666   4.486  18.343  0.00  0.00    +0.000 A 
ATOM      7  C   UNL     1       3.221   4.262  19.642  0.00  0.00    +0.000 A 
ATOM      8  N   UNL     1       2.555   5.166  20.389  0.00  0.00    +0.000 NA
ATOM      9  C   UNL     1       2.280   6.364  19.848  0.00  0.00    +0.000 A 
ATOM     10  C   UNL     1       1.668   7.354  20.601  0.00  0.00    +0.000 A 
ATOM     11  C   UNL     1       1.400   8.638  20.088  0.00  0.00    +0.000 A 
ATOM     12  C   UNL     1       0.829   9.685  21.004  0.00  0.00    +0.000 C 
ENDROOT
BRANCH   7  13
ATOM     13  O   UNL     1       3.384   3.056  20.256  0.00  0.00    +0.000 OA
ATOM     14  H   UNL     1       4.224   3.111  20.738  0.00  0.00    +0.000 HD
ENDBRANCH   7  13
BRANCH   6  15
ATOM     15  C   UNL     1       4.460   3.493  17.525  0.00  0.00    +0.000 C 
BRANCH  15  16
ATOM     16  C   UNL     1       4.867   4.050  16.145  0.00  0.00    +0.000 C 
BRANCH  16  17
ATOM     17  N   UNL     1       5.547   5.319  16.209  0.00  0.00    +0.000 N 
ATOM     18  C   UNL     1       6.920   5.356  16.231  0.00  0.00    +0.000 C 
ATOM     19  O   UNL     1       7.618   4.350  16.070  0.00  0.00    +0.000 OA
ATOM     20  H   UNL     1       5.009   6.175  16.256  0.00  0.00    +0.000 HD
BRANCH  18  21
ATOM     21  C   UNL     1       7.529   6.712  16.461  0.00  0.00    +0.000 C 
BRANCH  21  22
ATOM     22  C   UNL     1       7.385   7.217  17.904  0.00  0.00    +0.000 C 
ATOM     23  C   UNL     1       7.851   6.185  18.934  0.00  0.00    +0.000 C 
ATOM     24  C   UNL     1       8.186   8.509  18.076  0.00  0.00    +0.000 C 
ENDBRANCH  21  22
ENDBRANCH  18  21
ENDBRANCH  16  17
ENDBRANCH  15  16
ENDBRANCH   6  15
TORSDOF 6
ENDMDL
MODEL 8
REMARK VINA RESULT:      -6.9      6.083      7.680
REMARK  Name = 
REMARK  10 active torsions:
REMARK  status: ('A' for Active; 'I' for Inactive)
REMARK    1  A    between atoms: C_1  and  C_2
REMARK    2  A    between atoms: C_6  and  C_7
REMARK    3  A    between atoms: C_7  and  C_8
REMARK    4  A    between atoms: C_8  and  N_9
REMARK    5  A    between atoms: C_10  and  C_12
REMARK    6  A    between atoms: C_12  and  C_13
REMARK    7  A    between atoms: C_13  and  C_14
REMARK    8  A    between atoms: C_13  and  C_15
REMARK    9  A    between atoms: C_16  and  O_17
REMARK   10  A    between atoms: C_21  and  C_22
REMARK                            x       y       z     vdW  Elec       q    Type
REMARK                         _______ _______ _______ _____ _____    ______ ____
ROOT
ATOM      1  C   UNL     1       2.508   2.435  17.670  0.00  0.00    +0.000 C 
ATOM      2  C   UNL     1       2.299   3.663  18.508  0.00  0.00    +0.000 A 
ATOM      3  C   UNL     1       2.514   4.924  17.945  0.00  0.00    +0.000 A 
ATOM      4  C   UNL     1       2.243   6.091  18.679  0.00  0.00    +0.000 A 
ATOM      5  C   UNL     1       2.358   7.347  18.097  0.00  0.00    +0.000 A 
ATOM      6  C   UNL     1       2.024   8.514  18.791  0.00  0.00    +0.000 A 
ATOM      7  C   UNL     1       1.680   8.334  20.127  0.00  0.00    +0.000 A 
ATOM      8  N   UNL     1       1.565   7.135  20.732  0.00  0.00    +0.000 NA
ATOM      9  C   UNL     1       1.814   6.029  20.013  0.00  0.00    +0.000 A 
ATOM     10  C   UNL     1       1.634   4.771  20.568  0.00  0.00    +0.000 A 
ATOM     11  C   UNL     1       1.841   3.585  19.836  0.00  0.00    +0.000 A 
ATOM     12  C   UNL     1       1.522   2.266  20.482  0.00  0.00    +0.000 C 
ENDROOT
BRANCH   7  13
ATOM     13  O   UNL     1       1.478   9.393  20.963  0.00  0.00    +0.000 OA
ATOM     14  H   UNL     1       1.045  10.078  20.430  0.00  0.00    +0.000 HD
ENDBRANCH   7  13
BRANCH   6  15
ATOM     15  C   UNL     1       2.099   9.856  18.098  0.00  0.00    +0.000 C 
BRANCH  15  16
ATOM     16  C   UNL     1       0.896  10.763  18.427  0.00  0.00    +0.000 C 
BRANCH  16  17
ATOM     17  N   UNL     1      -0.311  10.406  17.723  0.00  0.00    +0.000 N 
ATOM     18  C   UNL     1      -1.520  10.465  18.371  0.00  0.00    +0.000 C 
ATOM     19  O   UNL     1      -1.648  10.936  19.505  0.00  0.00    +0.000 OA
ATOM     20  H   UNL     1      -0.256  10.096  16.762  0.00  0.00    +0.000 HD
BRANCH  18  21
ATOM     21  C   UNL     1      -2.694   9.920  17.604  0.00  0.00    +0.000 C 
BRANCH  21  22
ATOM     22  C   UNL     1      -3.087  10.772  16.388  0.00  0.00    +0.000 C 
ATOM     23  C   UNL     1      -2.999   9.992  15.074  0.00  0.00    +0.000 C 
ATOM     24  C   UNL     1      -4.509  11.303  16.574  0.00  0.00    +0.000 C 
ENDBRANCH  21  22
ENDBRANCH  18  21
ENDBRANCH  16  17
ENDBRANCH  15  16
ENDBRANCH   6  15
TORSDOF 6
ENDMDL
MODEL 9
REMARK VINA RESULT:      -6.9      3.539      6.173
REMARK  Name = 
REMARK  10 active torsions:
REMARK  status: ('A' for Active; 'I' for Inactive)
REMARK    1  A    between atoms: C_1  and  C_2
REMARK    2  A    between atoms: C_6  and  C_7
REMARK    3  A    between atoms: C_7  and  C_8
REMARK    4  A    between atoms: C_8  and  N_9
REMARK    5  A    between atoms: C_10  and  C_12
REMARK    6  A    between atoms: C_12  and  C_13
REMARK    7  A    between atoms: C_13  and  C_14
REMARK    8  A    between atoms: C_13  and  C_15
REMARK    9  A    between atoms: C_16  and  O_17
REMARK   10  A    between atoms: C_21  and  C_22
REMARK                            x       y       z     vdW  Elec       q    Type
REMARK                         _______ _______ _______ _____ _____    ______ ____
ROOT
ATOM      1  C   UNL     1       1.077   4.751  20.451  0.00  0.00    +0.000 C 
ATOM      2  C   UNL     1       2.074   4.536  19.349  0.00  0.00    +0.000 A 
ATOM      3  C   UNL     1       3.142   5.426  19.206  0.00  0.00    +0.000 A 
ATOM      4  C   UNL     1       4.137   5.201  18.239  0.00  0.00    +0.000 A 
ATOM      5  C   UNL     1       5.253   6.023  18.155  0.00  0.00    +0.000 A 
ATOM      6  C   UNL     1       6.286   5.771  17.246  0.00  0.00    +0.000 A 
ATOM      7  C   UNL     1       6.063   4.715  16.369  0.00  0.00    +0.000 A 
ATOM      8  N   UNL     1       4.990   3.898  16.412  0.00  0.00    +0.000 NA
ATOM      9  C   UNL     1       4.056   4.119  17.350  0.00  0.00    +0.000 A 
ATOM     10  C   UNL     1       2.976   3.261  17.486  0.00  0.00    +0.000 A 
ATOM     11  C   UNL     1       1.996   3.431  18.484  0.00  0.00    +0.000 A 
ATOM     12  C   UNL     1       0.915   2.395  18.625  0.00  0.00    +0.000 C 
ENDROOT
BRANCH   7  13
ATOM     13  O   UNL     1       6.913   4.451  15.336  0.00  0.00    +0.000 OA
ATOM     14  H   UNL     1       6.440   3.844  14.746  0.00  0.00    +0.000 HD
ENDBRANCH   7  13
BRANCH   6  15
ATOM     15  C   UNL     1       7.515   6.652  17.233  0.00  0.00    +0.000 C 
BRANCH  15  16
ATOM     16  C   UNL     1       8.041   6.960  18.650  0.00  0.00    +0.000 C 
BRANCH  16  17
ATOM     17  N   UNL     1       8.786   8.191  18.739  0.00  0.00    +0.000 N 
ATOM     18  C   UNL     1       8.299   9.326  18.138  0.00  0.00    +0.000 C 
ATOM     19  O   UNL     1       7.179   9.381  17.623  0.00  0.00    +0.000 OA
ATOM     20  H   UNL     1       9.671   8.207  19.228  0.00  0.00    +0.000 HD
BRANCH  18  21
ATOM     21  C   UNL     1       9.224  10.513  18.150  0.00  0.00    +0.000 C 
BRANCH  21  22
ATOM     22  C   UNL     1      10.014  10.668  19.457  0.00  0.00    +0.000 C 
ATOM     23  C   UNL     1      11.278  11.513  19.279  0.00  0.00    +0.000 C 
ATOM     24  C   UNL     1       9.119  11.303  20.522  0.00  0.00    +0.000 C 
ENDBRANCH  21  22
ENDBRANCH  18  21
ENDBRANCH  16  17
ENDBRANCH  15  16
ENDBRANCH   6  15
TORSDOF 6
ENDMDL
