MODEL 1
REMARK VINA RESULT:      -7.6      0.000      0.000
REMARK  Name = 
REMARK  8 active torsions:
REMARK  status: ('A' for Active; 'I' for Inactive)
REMARK    1  A    between atoms: C_1  and  C_2
REMARK    2  A    between atoms: C_2  and  O_3
REMARK    3  A    between atoms: O_3  and  C_4
REMARK    4  A    between atoms: C_7  and  C_8
REMARK    5  A    between atoms: C_8  and  O_9
REMARK    6  A    between atoms: C_8  and  C_10
REMARK    7  A    between atoms: C_12  and  O_13
REMARK    8  A    between atoms: C_16  and  O_17
REMARK                            x       y       z     vdW  Elec       q    Type
REMARK                         _______ _______ _______ _____ _____    ______ ____
ROOT
ATOM      1  C   UNL     1       4.554   5.697  17.137  0.00  0.00    +0.000 A 
ATOM      2  C   UNL     1       4.246   7.065  17.180  0.00  0.00    +0.000 A 
ATOM      3  C   UNL     1       3.068   7.471  17.799  0.00  0.00    +0.000 A 
ATOM      4  C   UNL     1       2.207   6.516  18.324  0.00  0.00    +0.000 A 
ATOM      5  C   UNL     1       2.258   5.266  17.741  0.00  0.00    +0.000 A 
ATOM      6  C   UNL     1       3.527   4.786  17.417  0.00  0.00    +0.000 A 
ATOM      7  C   UNL     1       1.164   4.386  18.148  0.00  0.00    +0.000 C 
ATOM      8  O   UNL     1       0.379   3.894  17.368  0.00  0.00    +0.000 OA
ATOM      9  C   UNL     1       1.243   4.038  19.567  0.00  0.00    +0.000 A 
ATOM     10  C   UNL     1       1.042   2.702  19.910  0.00  0.00    +0.000 A 
ATOM     11  C   UNL     1       1.707   2.215  21.024  0.00  0.00    +0.000 A 
ATOM     12  C   UNL     1       2.526   3.069  21.776  0.00  0.00    +0.000 A 
ATOM     13  C   UNL     1       2.623   4.441  21.473  0.00  0.00    +0.000 A 
ATOM     14  C   UNL     1       1.951   4.944  20.363  0.00  0.00    +0.000 A 
ATOM     15  C   UNL     1       2.154   6.346  19.843  0.00  0.00    +0.000 C 
ATOM     16  O   UNL     1       2.393   7.261  20.623  0.00  0.00    +0.000 OA
ENDROOT
BRANCH   3  17
ATOM     17  O   UNL     1       2.706   8.784  17.807  0.00  0.00    +0.000 OA
ATOM     18  H   UNL     1       2.072   8.928  18.531  0.00  0.00    +0.000 HD
ENDBRANCH   3  17
BRANCH   6  19
ATOM     19  O   UNL     1       3.854   3.460  17.481  0.00  0.00    +0.000 OA
ATOM     20  H   UNL     1       4.670   3.328  17.995  0.00  0.00    +0.000 HD
ENDBRANCH   6  19
BRANCH   1  21
ATOM     21  C   UNL     1       5.951   5.216  16.812  0.00  0.00    +0.000 C 
BRANCH  21  25
ATOM     22  C   UNL     1       6.843   4.031  12.746  0.00  0.00    +0.000 A 
ATOM     23  C   UNL     1       7.719   4.831  13.471  0.00  0.00    +0.000 A 
ATOM     24  C   UNL     1       7.414   5.205  14.772  0.00  0.00    +0.000 A 
ATOM     25  C   UNL     1       6.201   4.813  15.373  0.00  0.00    +0.000 A 
ATOM     26  C   UNL     1       5.315   4.031  14.620  0.00  0.00    +0.000 A 
ATOM     27  C   UNL     1       5.639   3.637  13.321  0.00  0.00    +0.000 A 
BRANCH  22  28
ATOM     28  O   UNL     1       7.063   3.576  11.472  0.00  0.00    +0.000 OA
BRANCH  28  30
ATOM     29  C   UNL     1       6.432   1.313  10.994  0.00  0.00    +0.000 C 
ATOM     30  C   UNL     1       7.563   2.243  11.376  0.00  0.00    +0.000 C 
ENDBRANCH  28  30
ENDBRANCH  22  28
ENDBRANCH  21  25
BRANCH  21  31
ATOM     31  O   UNL     1       6.892   6.217  17.218  0.00  0.00    +0.000 OA
ATOM     32  H   UNL     1       6.759   6.991  16.648  0.00  0.00    +0.000 HD
ENDBRANCH  21  31
ENDBRANCH   1  21
TORSDOF 7
ENDMDL
MODEL 2
REMARK VINA RESULT:      -7.5      2.930      4.661
REMARK  Name = 
REMARK  8 active torsions:
REMARK  status: ('A' for Active; 'I' for Inactive)
REMARK    1  A    between atoms: C_1  and  C_2
REMARK    2  A    between atoms: C_2  and  O_3
REMARK    3  A    between atoms: O_3  and  C_4
REMARK    4  A    between atoms: C_7  and  C_8
REMARK    5  A    between atoms: C_8  and  O_9
REMARK    6  A    between atoms: C_8  and  C_10
REMARK    7  A    between atoms: C_12  and  O_13
REMARK    8  A    between atoms: C_16  and  O_17
REMARK                            x       y       z     vdW  Elec       q    Type
REMARK                         _______ _______ _______ _____ _____    ______ ____
ROOT
ATOM      1  C   UNL     1       4.732   5.785  17.483  0.00  0.00    +0.000 A 
ATOM      2  C   UNL     1       4.224   7.087  17.366  0.00  0.00    +0.000 A 
ATOM      3  C   UNL     1       2.915   7.338  17.763  0.00  0.00    +0.000 A 
ATOM      4  C   UNL     1       2.129   6.292  18.228  0.00  0.00    +0.000 A 
ATOM      5  C   UNL     1       2.456   5.033  17.765  0.00  0.00    +0.000 A 
ATOM      6  C   UNL     1       3.817   4.741  17.678  0.00  0.00    +0.000 A 
ATOM      7  C   UNL     1       1.450   4.018  18.072  0.00  0.00    +0.000 C 
ATOM      8  O   UNL     1       0.883   3.364  17.225  0.00  0.00    +0.000 OA
ATOM      9  C   UNL     1       1.348   3.769  19.510  0.00  0.00    +0.000 A 
ATOM     10  C   UNL     1       1.290   2.441  19.928  0.00  0.00    +0.000 A 
ATOM     11  C   UNL     1       1.829   2.130  21.166  0.00  0.00    +0.000 A 
ATOM     12  C   UNL     1       2.381   3.145  21.961  0.00  0.00    +0.000 A 
ATOM     13  C   UNL     1       2.324   4.495  21.565  0.00  0.00    +0.000 A 
ATOM     14  C   UNL     1       1.776   4.821  20.328  0.00  0.00    +0.000 A 
ATOM     15  C   UNL     1       1.854   6.204  19.731  0.00  0.00    +0.000 C 
ATOM     16  O   UNL     1       1.827   7.189  20.459  0.00  0.00    +0.000 OA
ENDROOT
BRANCH   3  17
ATOM     17  O   UNL     1       2.369   8.576  17.608  0.00  0.00    +0.000 OA
ATOM     18  H   UNL     1       2.413   8.820  16.667  0.00  0.00    +0.000 HD
ENDBRANCH   3  17
BRANCH   6  19
ATOM     19  O   UNL     1       4.319   3.489  17.900  0.00  0.00    +0.000 OA
ATOM     20  H   UNL     1       5.140   3.349  17.395  0.00  0.00    +0.000 HD
ENDBRANCH   6  19
BRANCH   1  21
ATOM     21  C   UNL     1       6.218   5.511  17.415  0.00  0.00    +0.000 C 
BRANCH  21  25
ATOM     22  C   UNL     1       8.674   8.881  18.577  0.00  0.00    +0.000 A 
ATOM     23  C   UNL     1       7.860   8.937  17.450  0.00  0.00    +0.000 A 
ATOM     24  C   UNL     1       7.083   7.845  17.091  0.00  0.00    +0.000 A 
ATOM     25  C   UNL     1       7.126   6.649  17.835  0.00  0.00    +0.000 A 
ATOM     26  C   UNL     1       7.972   6.597  18.951  0.00  0.00    +0.000 A 
ATOM     27  C   UNL     1       8.732   7.708  19.322  0.00  0.00    +0.000 A 
BRANCH  22  28
ATOM     28  O   UNL     1       9.450   9.910  19.040  0.00  0.00    +0.000 OA
BRANCH  28  30
ATOM     29  C   UNL     1      10.946  11.643  18.328  0.00  0.00    +0.000 C 
ATOM     30  C   UNL     1       9.573  11.028  18.162  0.00  0.00    +0.000 C 
ENDBRANCH  28  30
ENDBRANCH  22  28
ENDBRANCH  21  25
BRANCH  21  31
ATOM     31  O   UNL     1       6.508   4.336  18.181  0.00  0.00    +0.000 OA
ATOM     32  H   UNL     1       7.463   4.327  18.352  0.00  0.00    +0.000 HD
ENDBRANCH  21  31
ENDBRANCH   1  21
TORSDOF 7
ENDMDL
MODEL 3
REMARK VINA RESULT:      -7.2      3.222      7.893
REMARK  Name = 
REMARK  8 active torsions:
REMARK  status: ('A' for Active; 'I' for Inactive)
REMARK    1  A    between atoms: C_1  and  C_2
REMARK    2  A    between atoms: C_2  and  O_3
REMARK    3  A    between atoms: O_3  and  C_4
REMARK    4  A    between atoms: C_7  and  C_8
REMARK    5  A    between atoms: C_8  and  O_9
REMARK    6  A    between atoms: C_8  and  C_10
REMARK    7  A    between atoms: C_12  and  O_13
REMARK    8  A    between atoms: C_16  and  O_17
REMARK                            x       y       z     vdW  Elec       q    Type
REMARK                         _______ _______ _______ _____ _____    ______ ____
ROOT
ATOM      1  C   UNL     1       2.433   6.826  19.109  0.00  0.00    +0.000 A 
ATOM      2  C   UNL     1       1.905   5.527  19.115  0.00  0.00    +0.000 A 
ATOM      3  C   UNL     1       2.604   4.513  18.469  0.00  0.00    +0.000 A 
ATOM      4  C   UNL     1       3.784   4.813  17.802  0.00  0.00    +0.000 A 
ATOM      5  C   UNL     1       3.909   6.108  17.340  0.00  0.00    +0.000 A 
ATOM      6  C   UNL     1       3.452   7.114  18.190  0.00  0.00    +0.000 A 
ATOM      7  C   UNL     1       5.037   6.297  16.430  0.00  0.00    +0.000 C 
ATOM      8  O   UNL     1       4.916   6.699  15.293  0.00  0.00    +0.000 OA
ATOM      9  C   UNL     1       6.320   6.117  17.107  0.00  0.00    +0.000 A 
ATOM     10  C   UNL     1       7.317   7.057  16.852  0.00  0.00    +0.000 A 
ATOM     11  C   UNL     1       8.225   7.326  17.863  0.00  0.00    +0.000 A 
ATOM     12  C   UNL     1       8.135   6.639  19.082  0.00  0.00    +0.000 A 
ATOM     13  C   UNL     1       7.189   5.613  19.273  0.00  0.00    +0.000 A 
ATOM     14  C   UNL     1       6.279   5.326  18.260  0.00  0.00    +0.000 A 
ATOM     15  C   UNL     1       5.108   4.394  18.445  0.00  0.00    +0.000 C 
ATOM     16  O   UNL     1       5.206   3.425  19.189  0.00  0.00    +0.000 OA
ENDROOT
BRANCH   3  17
ATOM     17  O   UNL     1       2.092   3.252  18.402  0.00  0.00    +0.000 OA
ATOM     18  H   UNL     1       2.273   2.797  19.243  0.00  0.00    +0.000 HD
ENDBRANCH   3  17
BRANCH   6  19
ATOM     19  O   UNL     1       4.040   8.347  18.259  0.00  0.00    +0.000 OA
ATOM     20  H   UNL     1       3.465   8.981  18.724  0.00  0.00    +0.000 HD
ENDBRANCH   6  19
BRANCH   1  21
ATOM     21  C   UNL     1       1.933   7.883  20.069  0.00  0.00    +0.000 C 
BRANCH  21  25
ATOM     22  C   UNL     1      -0.948  10.778  18.636  0.00  0.00    +0.000 A 
ATOM     23  C   UNL     1      -0.820  10.500  19.992  0.00  0.00    +0.000 A 
ATOM     24  C   UNL     1       0.106   9.565  20.432  0.00  0.00    +0.000 A 
ATOM     25  C   UNL     1       0.910   8.855  19.519  0.00  0.00    +0.000 A 
ATOM     26  C   UNL     1       0.750   9.125  18.153  0.00  0.00    +0.000 A 
ATOM     27  C   UNL     1      -0.165  10.084  17.717  0.00  0.00    +0.000 A 
BRANCH  22  28
ATOM     28  O   UNL     1      -1.801  11.705  18.098  0.00  0.00    +0.000 OA
BRANCH  28  30
ATOM     29  C   UNL     1      -3.790  10.444  17.651  0.00  0.00    +0.000 C 
ATOM     30  C   UNL     1      -2.643  11.228  17.050  0.00  0.00    +0.000 C 
ENDBRANCH  28  30
ENDBRANCH  22  28
ENDBRANCH  21  25
BRANCH  21  31
ATOM     31  O   UNL     1       1.425   7.238  21.243  0.00  0.00    +0.000 OA
ATOM     32  H   UNL     1       2.150   6.722  21.630  0.00  0.00    +0.000 HD
ENDBRANCH  21  31
ENDBRANCH   1  21
TORSDOF 7
ENDMDL
MODEL 4
REMARK VINA RESULT:      -7.2      3.062      7.453
REMARK  Name = 
REMARK  8 active torsions:
REMARK  status: ('A' for Active; 'I' for Inactive)
REMARK    1  A    between atoms: C_1  and  C_2
REMARK    2  A    between atoms: C_2  and  O_3
REMARK    3  A    between atoms: O_3  and  C_4
REMARK    4  A    between atoms: C_7  and  C_8
REMARK    5  A    between atoms: C_8  and  O_9
REMARK    6  A    between atoms: C_8  and  C_10
REMARK    7  A    between atoms: C_12  and  O_13
REMARK    8  A    between atoms: C_16  and  O_17
REMARK                            x       y       z     vdW  Elec       q    Type
REMARK                         _______ _______ _______ _____ _____    ______ ____
ROOT
ATOM      1  C   UNL     1       2.066   6.415  20.033  0.00  0.00    +0.000 A 
ATOM      2  C   UNL     1       1.681   5.484  21.008  0.00  0.00    +0.000 A 
ATOM      3  C   UNL     1       1.954   4.136  20.798  0.00  0.00    +0.000 A 
ATOM      4  C   UNL     1       2.563   3.738  19.616  0.00  0.00    +0.000 A 
ATOM      5  C   UNL     1       2.362   4.557  18.523  0.00  0.00    +0.000 A 
ATOM      6  C   UNL     1       2.404   5.930  18.762  0.00  0.00    +0.000 A 
ATOM      7  C   UNL     1       2.800   3.963  17.260  0.00  0.00    +0.000 C 
ATOM      8  O   UNL     1       2.061   3.781  16.318  0.00  0.00    +0.000 OA
ATOM      9  C   UNL     1       4.251   3.787  17.215  0.00  0.00    +0.000 A 
ATOM     10  C   UNL     1       4.906   4.171  16.046  0.00  0.00    +0.000 A 
ATOM     11  C   UNL     1       6.208   4.633  16.158  0.00  0.00    +0.000 A 
ATOM     12  C   UNL     1       6.827   4.676  17.416  0.00  0.00    +0.000 A 
ATOM     13  C   UNL     1       6.183   4.177  18.564  0.00  0.00    +0.000 A 
ATOM     14  C   UNL     1       4.879   3.699  18.462  0.00  0.00    +0.000 A 
ATOM     15  C   UNL     1       4.039   3.336  19.661  0.00  0.00    +0.000 C 
ATOM     16  O   UNL     1       4.568   2.864  20.661  0.00  0.00    +0.000 OA
ENDROOT
BRANCH   3  17
ATOM     17  O   UNL     1       1.540   3.198  21.695  0.00  0.00    +0.000 OA
ATOM     18  H   UNL     1       0.785   2.715  21.314  0.00  0.00    +0.000 HD
ENDBRANCH   3  17
BRANCH   6  19
ATOM     19  O   UNL     1       2.883   6.825  17.846  0.00  0.00    +0.000 OA
ATOM     20  H   UNL     1       3.549   6.409  17.270  0.00  0.00    +0.000 HD
ENDBRANCH   6  19
BRANCH   1  21
ATOM     21  C   UNL     1       2.130   7.895  20.340  0.00  0.00    +0.000 C 
BRANCH  21  25
ATOM     22  C   UNL     1      -0.844  10.487  18.560  0.00  0.00    +0.000 A 
ATOM     23  C   UNL     1      -0.902  10.144  19.906  0.00  0.00    +0.000 A 
ATOM     24  C   UNL     1       0.058   9.308  20.458  0.00  0.00    +0.000 A 
ATOM     25  C   UNL     1       1.088   8.763  19.665  0.00  0.00    +0.000 A 
ATOM     26  C   UNL     1       1.116   9.095  18.304  0.00  0.00    +0.000 A 
ATOM     27  C   UNL     1       0.163   9.957  17.759  0.00  0.00    +0.000 A 
BRANCH  22  28
ATOM     28  O   UNL     1      -1.716  11.331  17.924  0.00  0.00    +0.000 OA
BRANCH  28  30
ATOM     29  C   UNL     1      -3.475   9.852  17.240  0.00  0.00    +0.000 C 
ATOM     30  C   UNL     1      -2.375  10.786  16.782  0.00  0.00    +0.000 C 
ENDBRANCH  28  30
ENDBRANCH  22  28
ENDBRANCH  21  25
BRANCH  21  31
ATOM     31  O   UNL     1       2.082   8.075  21.760  0.00  0.00    +0.000 OA
ATOM     32  H   UNL     1       1.224   7.742  22.069  0.00  0.00    +0.000 HD
ENDBRANCH  21  31
ENDBRANCH   1  21
TORSDOF 7
ENDMDL
MODEL 5
REMARK VINA RESULT:      -7.1      8.714     12.146
REMARK  Name = 
REMARK  8 active torsions:
REMARK  status: ('A' for Active; 'I' for Inactive)
REMARK    1  A    between atoms: C_1  and  C_2
REMARK    2  A    between atoms: C_2  and  O_3
REMARK    3  A    between atoms: O_3  and  C_4
REMARK    4  A    between atoms: C_7  and  C_8
REMARK    5  A    between atoms: C_8  and  O_9
REMARK    6  A    between atoms: C_8  and  C_10
REMARK    7  A    between atoms: C_12  and  O_13
REMARK    8  A    between atoms: C_16  and  O_17
REMARK                            x       y       z     vdW  Elec       q    Type
REMARK                         _______ _______ _______ _____ _____    ______ ____
ROOT
ATOM      1  C   UNL     1      -0.904  11.021  18.827  0.00  0.00    +0.000 A 
ATOM      2  C   UNL     1      -0.372  10.368  19.949  0.00  0.00    +0.000 A 
ATOM      3  C   UNL     1       0.465  11.074  20.806  0.00  0.00    +0.000 A 
ATOM      4  C   UNL     1       0.787  12.392  20.515  0.00  0.00    +0.000 A 
ATOM      5  C   UNL     1       0.743  12.749  19.181  0.00  0.00    +0.000 A 
ATOM      6  C   UNL     1      -0.320  12.234  18.439  0.00  0.00    +0.000 A 
ATOM      7  C   UNL     1       1.337  14.056  18.906  0.00  0.00    +0.000 C 
ATOM      8  O   UNL     1       2.266  14.219  18.146  0.00  0.00    +0.000 OA
ATOM      9  C   UNL     1       0.568  15.143  19.513  0.00  0.00    +0.000 A 
ATOM     10  C   UNL     1       0.316  16.265  18.726  0.00  0.00    +0.000 A 
ATOM     11  C   UNL     1      -0.858  16.965  18.956  0.00  0.00    +0.000 A 
ATOM     12  C   UNL     1      -1.729  16.549  19.973  0.00  0.00    +0.000 A 
ATOM     13  C   UNL     1      -1.397  15.480  20.827  0.00  0.00    +0.000 A 
ATOM     14  C   UNL     1      -0.216  14.776  20.612  0.00  0.00    +0.000 A 
ATOM     15  C   UNL     1       0.126  13.499  21.339  0.00  0.00    +0.000 C 
ATOM     16  O   UNL     1      -0.239  13.335  22.497  0.00  0.00    +0.000 OA
ENDROOT
BRANCH   3  17
ATOM     17  O   UNL     1       1.048  10.455  21.870  0.00  0.00    +0.000 OA
ATOM     18  H   UNL     1       0.396   9.859  22.279  0.00  0.00    +0.000 HD
ENDBRANCH   3  17
BRANCH   6  19
ATOM     19  O   UNL     1      -0.907  12.924  17.414  0.00  0.00    +0.000 OA
ATOM     20  H   UNL     1      -1.125  12.328  16.675  0.00  0.00    +0.000 HD
ENDBRANCH   6  19
BRANCH   1  21
ATOM     21  C   UNL     1      -2.078  10.447  18.066  0.00  0.00    +0.000 C 
BRANCH  21  25
ATOM     22  C   UNL     1      -5.719  12.752  18.484  0.00  0.00    +0.000 A 
ATOM     23  C   UNL     1      -4.794  12.672  19.520  0.00  0.00    +0.000 A 
ATOM     24  C   UNL     1      -3.635  11.925  19.369  0.00  0.00    +0.000 A 
ATOM     25  C   UNL     1      -3.385  11.205  18.183  0.00  0.00    +0.000 A 
ATOM     26  C   UNL     1      -4.339  11.272  17.159  0.00  0.00    +0.000 A 
ATOM     27  C   UNL     1      -5.491  12.046  17.307  0.00  0.00    +0.000 A 
BRANCH  22  28
ATOM     28  O   UNL     1      -6.874  13.488  18.514  0.00  0.00    +0.000 OA
BRANCH  28  30
ATOM     29  C   UNL     1      -6.929  15.472  17.170  0.00  0.00    +0.000 C 
ATOM     30  C   UNL     1      -7.302  14.007  17.257  0.00  0.00    +0.000 C 
ENDBRANCH  28  30
ENDBRANCH  22  28
ENDBRANCH  21  25
BRANCH  21  31
ATOM     31  O   UNL     1      -1.711  10.300  16.689  0.00  0.00    +0.000 OA
ATOM     32  H   UNL     1      -2.499  10.004  16.207  0.00  0.00    +0.000 HD
ENDBRANCH  21  31
ENDBRANCH   1  21
TORSDOF 7
ENDMDL
MODEL 6
REMARK VINA RESULT:      -7.1      8.453     11.378
REMARK  Name = 
REMARK  8 active torsions:
REMARK  status: ('A' for Active; 'I' for Inactive)
REMARK    1  A    between atoms: C_1  and  C_2
REMARK    2  A    between atoms: C_2  and  O_3
REMARK    3  A    between atoms: O_3  and  C_4
REMARK    4  A    between atoms: C_7  and  C_8
REMARK    5  A    between atoms: C_8  and  O_9
REMARK    6  A    between atoms: C_8  and  C_10
REMARK    7  A    between atoms: C_12  and  O_13
REMARK    8  A    between atoms: C_16  and  O_17
REMARK                            x       y       z     vdW  Elec       q    Type
REMARK                         _______ _______ _______ _____ _____    ______ ____
ROOT
ATOM      1  C   UNL     1      -2.902  11.946  18.588  0.00  0.00    +0.000 A 
ATOM      2  C   UNL     1      -3.228  11.436  17.322  0.00  0.00    +0.000 A 
ATOM      3  C   UNL     1      -4.564  11.379  16.942  0.00  0.00    +0.000 A 
ATOM      4  C   UNL     1      -5.546  11.790  17.833  0.00  0.00    +0.000 A 
ATOM      5  C   UNL     1      -5.229  11.696  19.174  0.00  0.00    +0.000 A 
ATOM      6  C   UNL     1      -3.933  12.066  19.529  0.00  0.00    +0.000 A 
ATOM      7  C   UNL     1      -6.376  11.889  20.060  0.00  0.00    +0.000 C 
ATOM      8  O   UNL     1      -6.748  11.058  20.859  0.00  0.00    +0.000 OA
ATOM      9  C   UNL     1      -6.894  13.255  19.990  0.00  0.00    +0.000 A 
ATOM     10  C   UNL     1      -7.195  13.888  21.195  0.00  0.00    +0.000 A 
ATOM     11  C   UNL     1      -7.052  15.265  21.254  0.00  0.00    +0.000 A 
ATOM     12  C   UNL     1      -6.644  15.973  20.114  0.00  0.00    +0.000 A 
ATOM     13  C   UNL     1      -6.456  15.323  18.879  0.00  0.00    +0.000 A 
ATOM     14  C   UNL     1      -6.607  13.941  18.806  0.00  0.00    +0.000 A 
ATOM     15  C   UNL     1      -6.233  13.135  17.586  0.00  0.00    +0.000 C 
ATOM     16  O   UNL     1      -6.363  13.618  16.468  0.00  0.00    +0.000 OA
ENDROOT
BRANCH   3  17
ATOM     17  O   UNL     1      -4.922  10.834  15.746  0.00  0.00    +0.000 OA
ATOM     18  H   UNL     1      -4.120  10.708  15.209  0.00  0.00    +0.000 HD
ENDBRANCH   3  17
BRANCH   6  19
ATOM     19  O   UNL     1      -3.637  12.664  20.723  0.00  0.00    +0.000 OA
ATOM     20  H   UNL     1      -4.109  13.511  20.814  0.00  0.00    +0.000 HD
ENDBRANCH   6  19
BRANCH   1  21
ATOM     21  C   UNL     1      -1.489  12.367  18.926  0.00  0.00    +0.000 C 
BRANCH  21  25
ATOM     22  C   UNL     1       0.986   9.186  20.503  0.00  0.00    +0.000 A 
ATOM     23  C   UNL     1       0.108   9.888  21.321  0.00  0.00    +0.000 A 
ATOM     24  C   UNL     1      -0.674  10.907  20.799  0.00  0.00    +0.000 A 
ATOM     25  C   UNL     1      -0.573  11.277  19.442  0.00  0.00    +0.000 A 
ATOM     26  C   UNL     1       0.337  10.580  18.636  0.00  0.00    +0.000 A 
ATOM     27  C   UNL     1       1.103   9.537  19.161  0.00  0.00    +0.000 A 
BRANCH  22  28
ATOM     28  O   UNL     1       1.775   8.141  20.906  0.00  0.00    +0.000 OA
BRANCH  28  30
ATOM     29  C   UNL     1       1.861   5.783  20.481  0.00  0.00    +0.000 C 
ATOM     30  C   UNL     1       2.063   7.167  19.904  0.00  0.00    +0.000 C 
ENDBRANCH  28  30
ENDBRANCH  22  28
ENDBRANCH  21  25
BRANCH  21  31
ATOM     31  O   UNL     1      -0.909  13.003  17.781  0.00  0.00    +0.000 OA
ATOM     32  H   UNL     1      -1.021  13.961  17.891  0.00  0.00    +0.000 HD
ENDBRANCH  21  31
ENDBRANCH   1  21
TORSDOF 7
ENDMDL
MODEL 7
REMARK VINA RESULT:      -7.0      7.701     10.560
REMARK  Name = 
REMARK  8 active torsions:
REMARK  status: ('A' for Active; 'I' for Inactive)
REMARK    1  A    between atoms: C_1  and  C_2
REMARK    2  A    between atoms: C_2  and  O_3
REMARK    3  A    between atoms: O_3  and  C_4
REMARK    4  A    between atoms: C_7  and  C_8
REMARK    5  A    between atoms: C_8  and  O_9
REMARK    6  A    between atoms: C_8  and  C_10
REMARK    7  A    between atoms: C_12  and  O_13
REMARK    8  A    between atoms: C_16  and  O_17
REMARK                            x       y       z     vdW  Elec       q    Type
REMARK                         _______ _______ _______ _____ _____    ______ ____
ROOT
ATOM      1  C   UNL     1      -1.172  12.080  20.827  0.00  0.00    +0.000 A 
ATOM      2  C   UNL     1      -2.094  12.113  19.770  0.00  0.00    +0.000 A 
ATOM      3  C   UNL     1      -3.368  12.619  20.003  0.00  0.00    +0.000 A 
ATOM      4  C   UNL     1      -3.713  13.042  21.280  0.00  0.00    +0.000 A 
ATOM      5  C   UNL     1      -3.029  12.449  22.322  0.00  0.00    +0.000 A 
ATOM      6  C   UNL     1      -1.664  12.244  22.129  0.00  0.00    +0.000 A 
ATOM      7  C   UNL     1      -3.605  12.733  23.635  0.00  0.00    +0.000 C 
ATOM      8  O   UNL     1      -3.999  11.872  24.391  0.00  0.00    +0.000 OA
ATOM      9  C   UNL     1      -3.484  14.147  23.989  0.00  0.00    +0.000 A 
ATOM     10  C   UNL     1      -3.055  14.449  25.281  0.00  0.00    +0.000 A 
ATOM     11  C   UNL     1      -2.329  15.615  25.464  0.00  0.00    +0.000 A 
ATOM     12  C   UNL     1      -2.075  16.457  24.371  0.00  0.00    +0.000 A 
ATOM     13  C   UNL     1      -2.616  16.186  23.100  0.00  0.00    +0.000 A 
ATOM     14  C   UNL     1      -3.356  15.023  22.906  0.00  0.00    +0.000 A 
ATOM     15  C   UNL     1      -3.800  14.547  21.546  0.00  0.00    +0.000 C 
ATOM     16  O   UNL     1      -4.086  15.359  20.674  0.00  0.00    +0.000 OA
ENDROOT
BRANCH   3  17
ATOM     17  O   UNL     1      -4.308  12.611  19.017  0.00  0.00    +0.000 OA
ATOM     18  H   UNL     1      -3.895  12.915  18.190  0.00  0.00    +0.000 HD
ENDBRANCH   3  17
BRANCH   6  19
ATOM     19  O   UNL     1      -0.754  12.320  23.147  0.00  0.00    +0.000 OA
ATOM     20  H   UNL     1      -1.196  12.510  23.994  0.00  0.00    +0.000 HD
ENDBRANCH   6  19
BRANCH   1  21
ATOM     21  C   UNL     1       0.307  11.887  20.574  0.00  0.00    +0.000 C 
BRANCH  21  25
ATOM     22  C   UNL     1       1.771   7.862  19.945  0.00  0.00    +0.000 A 
ATOM     23  C   UNL     1       1.653   8.759  18.889  0.00  0.00    +0.000 A 
ATOM     24  C   UNL     1       1.177  10.044  19.109  0.00  0.00    +0.000 A 
ATOM     25  C   UNL     1       0.772  10.456  20.394  0.00  0.00    +0.000 A 
ATOM     26  C   UNL     1       0.870   9.533  21.444  0.00  0.00    +0.000 A 
ATOM     27  C   UNL     1       1.373   8.250  21.221  0.00  0.00    +0.000 A 
BRANCH  22  28
ATOM     28  O   UNL     1       2.261   6.587  19.845  0.00  0.00    +0.000 OA
BRANCH  28  30
ATOM     29  C   UNL     1       2.093   5.066  18.000  0.00  0.00    +0.000 C 
ATOM     30  C   UNL     1       2.836   6.249  18.584  0.00  0.00    +0.000 C 
ENDBRANCH  28  30
ENDBRANCH  22  28
ENDBRANCH  21  25
BRANCH  21  31
ATOM     31  O   UNL     1       0.691  12.680  19.446  0.00  0.00    +0.000 OA
ATOM     32  H   UNL     1       0.580  13.612  19.692  0.00  0.00    +0.000 HD
ENDBRANCH  21  31
ENDBRANCH   1  21
TORSDOF 7
ENDMDL
MODEL 8
REMARK VINA RESULT:      -7.0      8.717     12.247
REMARK  Name = 
REMARK  8 active torsions:
REMARK  status: ('A' for Active; 'I' for Inactive)
REMARK    1  A    between atoms: C_1  and  C_2
REMARK    2  A    between atoms: C_2  and  O_3
REMARK    3  A    between atoms: O_3  and  C_4
REMARK    4  A    between atoms: C_7  and  C_8
REMARK    5  A    between atoms: C_8  and  O_9
REMARK    6  A    between atoms: C_8  and  C_10
REMARK    7  A    between atoms: C_12  and  O_13
REMARK    8  A    between atoms: C_16  and  O_17
REMARK                            x       y       z     vdW  Elec       q    Type
REMARK                         _______ _______ _______ _____ _____    ______ ____
ROOT
ATOM      1  C   UNL     1      -0.844  11.104  18.785  0.00  0.00    +0.000 A 
ATOM      2  C   UNL     1      -0.292  10.435  19.886  0.00  0.00    +0.000 A 
ATOM      3  C   UNL     1       0.565  11.127  20.736  0.00  0.00    +0.000 A 
ATOM      4  C   UNL     1       0.885  12.448  20.455  0.00  0.00    +0.000 A 
ATOM      5  C   UNL     1       0.815  12.822  19.128  0.00  0.00    +0.000 A 
ATOM      6  C   UNL     1      -0.264  12.320  18.401  0.00  0.00    +0.000 A 
ATOM      7  C   UNL     1       1.407  14.131  18.858  0.00  0.00    +0.000 C 
ATOM      8  O   UNL     1       2.321  14.302  18.081  0.00  0.00    +0.000 OA
ATOM      9  C   UNL     1       0.654  15.212  19.494  0.00  0.00    +0.000 A 
ATOM     10  C   UNL     1       0.391  16.345  18.727  0.00  0.00    +0.000 A 
ATOM     11  C   UNL     1      -0.777  17.045  18.990  0.00  0.00    +0.000 A 
ATOM     12  C   UNL     1      -1.629  16.618  20.019  0.00  0.00    +0.000 A 
ATOM     13  C   UNL     1      -1.283  15.538  20.852  0.00  0.00    +0.000 A 
ATOM     14  C   UNL     1      -0.108  14.833  20.604  0.00  0.00    +0.000 A 
ATOM     15  C   UNL     1       0.245  13.546  21.307  0.00  0.00    +0.000 C 
ATOM     16  O   UNL     1      -0.097  13.368  22.470  0.00  0.00    +0.000 OA
ENDROOT
BRANCH   3  17
ATOM     17  O   UNL     1       1.167  10.492  21.780  0.00  0.00    +0.000 OA
ATOM     18  H   UNL     1       0.748  10.787  22.607  0.00  0.00    +0.000 HD
ENDBRANCH   3  17
BRANCH   6  19
ATOM     19  O   UNL     1      -0.869  13.025  17.397  0.00  0.00    +0.000 OA
ATOM     20  H   UNL     1      -0.785  12.559  16.546  0.00  0.00    +0.000 HD
ENDBRANCH   6  19
BRANCH   1  21
ATOM     21  C   UNL     1      -2.035  10.544  18.040  0.00  0.00    +0.000 C 
BRANCH  21  25
ATOM     22  C   UNL     1      -5.956  12.114  18.987  0.00  0.00    +0.000 A 
ATOM     23  C   UNL     1      -5.780  11.185  17.967  0.00  0.00    +0.000 A 
ATOM     24  C   UNL     1      -4.514  10.697  17.675  0.00  0.00    +0.000 A 
ATOM     25  C   UNL     1      -3.381  11.153  18.378  0.00  0.00    +0.000 A 
ATOM     26  C   UNL     1      -3.570  12.111  19.383  0.00  0.00    +0.000 A 
ATOM     27  C   UNL     1      -4.849  12.580  19.690  0.00  0.00    +0.000 A 
BRANCH  22  28
ATOM     28  O   UNL     1      -7.162  12.632  19.380  0.00  0.00    +0.000 OA
BRANCH  28  30
ATOM     29  C   UNL     1      -7.917  11.678  21.446  0.00  0.00    +0.000 C 
ATOM     30  C   UNL     1      -7.293  12.885  20.778  0.00  0.00    +0.000 C 
ENDBRANCH  28  30
ENDBRANCH  22  28
ENDBRANCH  21  25
BRANCH  21  31
ATOM     31  O   UNL     1      -1.787  10.636  16.632  0.00  0.00    +0.000 OA
ATOM     32  H   UNL     1      -2.501  11.166  16.244  0.00  0.00    +0.000 HD
ENDBRANCH  21  31
ENDBRANCH   1  21
TORSDOF 7
ENDMDL
MODEL 9
REMARK VINA RESULT:      -7.0      6.393      9.933
REMARK  Name = 
REMARK  8 active torsions:
REMARK  status: ('A' for Active; 'I' for Inactive)
REMARK    1  A    between atoms: C_1  and  C_2
REMARK    2  A    between atoms: C_2  and  O_3
REMARK    3  A    between atoms: O_3  and  C_4
REMARK    4  A    between atoms: C_7  and  C_8
REMARK    5  A    between atoms: C_8  and  O_9
REMARK    6  A    between atoms: C_8  and  C_10
REMARK    7  A    between atoms: C_12  and  O_13
REMARK    8  A    between atoms: C_16  and  O_17
REMARK                            x       y       z     vdW  Elec       q    Type
REMARK                         _______ _______ _______ _____ _____    ______ ____
ROOT
ATOM      1  C   UNL     1       0.396  11.530  19.752  0.00  0.00    +0.000 A 
ATOM      2  C   UNL     1      -0.773  11.328  20.500  0.00  0.00    +0.000 A 
ATOM      3  C   UNL     1      -1.237  12.353  21.317  0.00  0.00    +0.000 A 
ATOM      4  C   UNL     1      -0.514  13.535  21.406  0.00  0.00    +0.000 A 
ATOM      5  C   UNL     1       0.840  13.441  21.156  0.00  0.00    +0.000 A 
ATOM      6  C   UNL     1       1.218  12.609  20.103  0.00  0.00    +0.000 A 
ATOM      7  C   UNL     1       1.586  14.646  21.516  0.00  0.00    +0.000 C 
ATOM      8  O   UNL     1       2.494  14.654  22.317  0.00  0.00    +0.000 OA
ATOM      9  C   UNL     1       1.224  15.783  20.670  0.00  0.00    +0.000 A 
ATOM     10  C   UNL     1       2.263  16.564  20.168  0.00  0.00    +0.000 A 
ATOM     11  C   UNL     1       2.075  17.175  18.938  0.00  0.00    +0.000 A 
ATOM     12  C   UNL     1       0.858  17.017  18.260  0.00  0.00    +0.000 A 
ATOM     13  C   UNL     1      -0.216  16.317  18.842  0.00  0.00    +0.000 A 
ATOM     14  C   UNL     1      -0.043  15.708  20.082  0.00  0.00    +0.000 A 
ATOM     15  C   UNL     1      -1.059  14.773  20.689  0.00  0.00    +0.000 C 
ATOM     16  O   UNL     1      -2.254  14.951  20.488  0.00  0.00    +0.000 OA
ENDROOT
BRANCH   3  17
ATOM     17  O   UNL     1      -2.334  12.170  22.103  0.00  0.00    +0.000 OA
ATOM     18  H   UNL     1      -2.396  11.228  22.337  0.00  0.00    +0.000 HD
ENDBRANCH   3  17
BRANCH   6  19
ATOM     19  O   UNL     1       2.299  12.871  19.307  0.00  0.00    +0.000 OA
ATOM     20  H   UNL     1       2.139  12.570  18.394  0.00  0.00    +0.000 HD
ENDBRANCH   6  19
BRANCH   1  21
ATOM     21  C   UNL     1       0.756  10.625  18.595  0.00  0.00    +0.000 C 
BRANCH  21  25
ATOM     22  C   UNL     1       2.442   6.750  19.532  0.00  0.00    +0.000 A 
ATOM     23  C   UNL     1       2.485   7.260  18.239  0.00  0.00    +0.000 A 
ATOM     24  C   UNL     1       1.935   8.502  17.957  0.00  0.00    +0.000 A 
ATOM     25  C   UNL     1       1.294   9.256  18.960  0.00  0.00    +0.000 A 
ATOM     26  C   UNL     1       1.234   8.717  20.252  0.00  0.00    +0.000 A 
ATOM     27  C   UNL     1       1.811   7.478  20.536  0.00  0.00    +0.000 A 
BRANCH  22  28
ATOM     28  O   UNL     1       2.985   5.555  19.925  0.00  0.00    +0.000 OA
BRANCH  28  30
ATOM     29  C   UNL     1       1.199   3.963  20.072  0.00  0.00    +0.000 C 
ATOM     30  C   UNL     1       2.199   4.798  20.844  0.00  0.00    +0.000 C 
ENDBRANCH  28  30
ENDBRANCH  22  28
ENDBRANCH  21  25
BRANCH  21  31
ATOM     31  O   UNL     1      -0.382  10.498  17.734  0.00  0.00    +0.000 OA
ATOM     32  H   UNL     1      -0.213  11.037  16.946  0.00  0.00    +0.000 HD
ENDBRANCH  21  31
ENDBRANCH   1  21
TORSDOF 7
ENDMDL
