MODEL 1
REMARK VINA RESULT:      -7.4      0.000      0.000
REMARK  Name = 
REMARK  6 active torsions:
REMARK  status: ('A' for Active; 'I' for Inactive)
REMARK    1  A    between atoms: C_4  and  C_5
REMARK    2  A    between atoms: C_5  and  N_6
REMARK    3  A    between atoms: C_7  and  S_8
REMARK    4  A    between atoms: S_8  and  C_9
REMARK    5  A    between atoms: C_9  and  C_10
REMARK    6  A    between atoms: C_18  and  C_19
REMARK                            x       y       z     vdW  Elec       q    Type
REMARK                         _______ _______ _______ _____ _____    ______ ____
ROOT
ATOM      1  N   UNL     1       3.097   5.980  17.795  0.00  0.00    +0.000 N 
ATOM      2  C   UNL     1       4.269   5.642  17.155  0.00  0.00    +0.000 A 
ATOM      3  N   UNL     1       4.962   6.726  16.897  0.00  0.00    +0.000 NA
ATOM      4  N   UNL     1       4.235   7.802  17.342  0.00  0.00    +0.000 NA
ATOM      5  C   UNL     1       3.148   7.354  17.941  0.00  0.00    +0.000 A 
ENDROOT
BRANCH   5   6
ATOM      6  C   UNL     1       2.146   8.256  18.593  0.00  0.00    +0.000 A 
ATOM      7  C   UNL     1       1.755   8.257  19.965  0.00  0.00    +0.000 A 
ATOM      8  C   UNL     1       0.796   9.212  20.234  0.00  0.00    +0.000 A 
ATOM      9  S   UNL     1       0.366  10.102  18.839  0.00  0.00    +0.000 S 
ATOM     10  C   UNL     1       1.501   9.247  17.882  0.00  0.00    +0.000 A 
ENDBRANCH   5   6
BRANCH   1  11
ATOM     11  C   UNL     1       1.898   5.168  17.925  0.00  0.00    +0.000 C 
BRANCH  11  15
ATOM     12  C   UNL     1       1.724   2.758  21.510  0.00  0.00    +0.000 A 
ATOM     13  C   UNL     1       1.087   2.342  20.344  0.00  0.00    +0.000 A 
ATOM     14  C   UNL     1       1.126   3.144  19.201  0.00  0.00    +0.000 A 
ATOM     15  C   UNL     1       1.787   4.389  19.215  0.00  0.00    +0.000 A 
ATOM     16  C   UNL     1       2.414   4.789  20.400  0.00  0.00    +0.000 A 
ATOM     17  C   UNL     1       2.386   3.981  21.538  0.00  0.00    +0.000 A 
ENDBRANCH  11  15
ENDBRANCH   1  11
BRANCH   2  18
ATOM     18  S   UNL     1       4.739   4.030  16.707  0.00  0.00    +0.000 S 
BRANCH  18  19
ATOM     19  C   UNL     1       6.461   4.314  16.181  0.00  0.00    +0.000 C 
BRANCH  19  20
ATOM     20  C   UNL     1       6.631   4.312  14.677  0.00  0.00    +0.000 A 
ATOM     21  C   UNL     1       7.573   5.145  14.066  0.00  0.00    +0.000 A 
ATOM     22  C   UNL     1       7.738   5.079  12.689  0.00  0.00    +0.000 A 
ATOM     23  N   UNL     1       7.032   4.256  11.887  0.00  0.00    +0.000 NA
ATOM     24  C   UNL     1       6.117   3.467  12.490  0.00  0.00    +0.000 A 
ATOM     25  C   UNL     1       5.881   3.460  13.859  0.00  0.00    +0.000 A 
ENDBRANCH  19  20
ENDBRANCH  18  19
ENDBRANCH   2  18
TORSDOF 6
ENDMDL
MODEL 2
REMARK VINA RESULT:      -7.3      0.504      1.255
REMARK  Name = 
REMARK  6 active torsions:
REMARK  status: ('A' for Active; 'I' for Inactive)
REMARK    1  A    between atoms: C_4  and  C_5
REMARK    2  A    between atoms: C_5  and  N_6
REMARK    3  A    between atoms: C_7  and  S_8
REMARK    4  A    between atoms: S_8  and  C_9
REMARK    5  A    between atoms: C_9  and  C_10
REMARK    6  A    between atoms: C_18  and  C_19
REMARK                            x       y       z     vdW  Elec       q    Type
REMARK                         _______ _______ _______ _____ _____    ______ ____
ROOT
ATOM      1  N   UNL     1       2.983   6.056  17.828  0.00  0.00    +0.000 N 
ATOM      2  C   UNL     1       4.171   5.704  17.224  0.00  0.00    +0.000 A 
ATOM      3  N   UNL     1       4.879   6.780  16.979  0.00  0.00    +0.000 NA
ATOM      4  N   UNL     1       4.148   7.866  17.395  0.00  0.00    +0.000 NA
ATOM      5  C   UNL     1       3.041   7.430  17.966  0.00  0.00    +0.000 A 
ENDROOT
BRANCH   5   6
ATOM      6  C   UNL     1       2.028   8.345  18.582  0.00  0.00    +0.000 A 
ATOM      7  C   UNL     1       1.240   9.330  17.915  0.00  0.00    +0.000 A 
ATOM      8  C   UNL     1       0.410  10.010  18.782  0.00  0.00    +0.000 A 
ATOM      9  S   UNL     1       0.582   9.467  20.394  0.00  0.00    +0.000 S 
ATOM     10  C   UNL     1       1.729   8.283  19.927  0.00  0.00    +0.000 A 
ENDBRANCH   5   6
BRANCH   1  11
ATOM     11  C   UNL     1       1.774   5.254  17.928  0.00  0.00    +0.000 C 
BRANCH  11  15
ATOM     12  C   UNL     1       1.720   2.580  21.326  0.00  0.00    +0.000 A 
ATOM     13  C   UNL     1       1.290   2.146  20.075  0.00  0.00    +0.000 A 
ATOM     14  C   UNL     1       1.284   3.029  18.992  0.00  0.00    +0.000 A 
ATOM     15  C   UNL     1       1.691   4.369  19.151  0.00  0.00    +0.000 A 
ATOM     16  C   UNL     1       2.113   4.784  20.418  0.00  0.00    +0.000 A 
ATOM     17  C   UNL     1       2.130   3.898  21.497  0.00  0.00    +0.000 A 
ENDBRANCH  11  15
ENDBRANCH   1  11
BRANCH   2  18
ATOM     18  S   UNL     1       4.640   4.085  16.802  0.00  0.00    +0.000 S 
BRANCH  18  19
ATOM     19  C   UNL     1       6.382   4.351  16.332  0.00  0.00    +0.000 C 
BRANCH  19  20
ATOM     20  C   UNL     1       6.607   4.306  14.835  0.00  0.00    +0.000 A 
ATOM     21  C   UNL     1       5.819   3.487  14.021  0.00  0.00    +0.000 A 
ATOM     22  C   UNL     1       6.019   3.511  12.648  0.00  0.00    +0.000 A 
ATOM     23  N   UNL     1       6.944   4.279  12.036  0.00  0.00    +0.000 NA
ATOM     24  C   UNL     1       7.706   5.055  12.837  0.00  0.00    +0.000 A 
ATOM     25  C   UNL     1       7.580   5.101  14.220  0.00  0.00    +0.000 A 
ENDBRANCH  19  20
ENDBRANCH  18  19
ENDBRANCH   2  18
TORSDOF 6
ENDMDL
MODEL 3
REMARK VINA RESULT:      -7.3      0.156      1.345
REMARK  Name = 
REMARK  6 active torsions:
REMARK  status: ('A' for Active; 'I' for Inactive)
REMARK    1  A    between atoms: C_4  and  C_5
REMARK    2  A    between atoms: C_5  and  N_6
REMARK    3  A    between atoms: C_7  and  S_8
REMARK    4  A    between atoms: S_8  and  C_9
REMARK    5  A    between atoms: C_9  and  C_10
REMARK    6  A    between atoms: C_18  and  C_19
REMARK                            x       y       z     vdW  Elec       q    Type
REMARK                         _______ _______ _______ _____ _____    ______ ____
ROOT
ATOM      1  N   UNL     1       3.071   6.053  17.824  0.00  0.00    +0.000 N 
ATOM      2  C   UNL     1       4.246   5.713  17.191  0.00  0.00    +0.000 A 
ATOM      3  N   UNL     1       4.936   6.796  16.925  0.00  0.00    +0.000 NA
ATOM      4  N   UNL     1       4.204   7.875  17.358  0.00  0.00    +0.000 NA
ATOM      5  C   UNL     1       3.117   7.429  17.957  0.00  0.00    +0.000 A 
ENDROOT
BRANCH   5   6
ATOM      6  C   UNL     1       2.110   8.334  18.598  0.00  0.00    +0.000 A 
ATOM      7  C   UNL     1       1.729   8.359  19.973  0.00  0.00    +0.000 A 
ATOM      8  C   UNL     1       0.762   9.309  20.229  0.00  0.00    +0.000 A 
ATOM      9  S   UNL     1       0.313  10.166  18.819  0.00  0.00    +0.000 S 
ATOM     10  C   UNL     1       1.449   9.303  17.871  0.00  0.00    +0.000 A 
ENDBRANCH   5   6
BRANCH   1  11
ATOM     11  C   UNL     1       1.873   5.239  17.958  0.00  0.00    +0.000 C 
BRANCH  11  15
ATOM     12  C   UNL     1       1.684   2.652  21.417  0.00  0.00    +0.000 A 
ATOM     13  C   UNL     1       2.143   3.961  21.535  0.00  0.00    +0.000 A 
ATOM     14  C   UNL     1       2.227   4.777  20.404  0.00  0.00    +0.000 A 
ATOM     15  C   UNL     1       1.873   4.287  19.131  0.00  0.00    +0.000 A 
ATOM     16  C   UNL     1       1.421   2.966  19.037  0.00  0.00    +0.000 A 
ATOM     17  C   UNL     1       1.325   2.155  20.169  0.00  0.00    +0.000 A 
ENDBRANCH  11  15
ENDBRANCH   1  11
BRANCH   2  18
ATOM     18  S   UNL     1       4.722   4.098  16.760  0.00  0.00    +0.000 S 
BRANCH  18  19
ATOM     19  C   UNL     1       6.460   4.374  16.286  0.00  0.00    +0.000 C 
BRANCH  19  20
ATOM     20  C   UNL     1       6.681   4.341  14.789  0.00  0.00    +0.000 A 
ATOM     21  C   UNL     1       5.918   3.498  13.975  0.00  0.00    +0.000 A 
ATOM     22  C   UNL     1       6.112   3.532  12.601  0.00  0.00    +0.000 A 
ATOM     23  N   UNL     1       7.008   4.332  11.988  0.00  0.00    +0.000 NA
ATOM     24  C   UNL     1       7.746   5.132  12.788  0.00  0.00    +0.000 A 
ATOM     25  C   UNL     1       7.624   5.170  14.172  0.00  0.00    +0.000 A 
ENDBRANCH  19  20
ENDBRANCH  18  19
ENDBRANCH   2  18
TORSDOF 6
ENDMDL
MODEL 4
REMARK VINA RESULT:      -7.2      0.806      1.057
REMARK  Name = 
REMARK  6 active torsions:
REMARK  status: ('A' for Active; 'I' for Inactive)
REMARK    1  A    between atoms: C_4  and  C_5
REMARK    2  A    between atoms: C_5  and  N_6
REMARK    3  A    between atoms: C_7  and  S_8
REMARK    4  A    between atoms: S_8  and  C_9
REMARK    5  A    between atoms: C_9  and  C_10
REMARK    6  A    between atoms: C_18  and  C_19
REMARK                            x       y       z     vdW  Elec       q    Type
REMARK                         _______ _______ _______ _____ _____    ______ ____
ROOT
ATOM      1  N   UNL     1       3.249   5.858  17.789  0.00  0.00    +0.000 N 
ATOM      2  C   UNL     1       4.377   5.598  17.042  0.00  0.00    +0.000 A 
ATOM      3  N   UNL     1       4.969   6.725  16.726  0.00  0.00    +0.000 NA
ATOM      4  N   UNL     1       4.216   7.752  17.241  0.00  0.00    +0.000 NA
ATOM      5  C   UNL     1       3.222   7.233  17.936  0.00  0.00    +0.000 A 
ENDROOT
BRANCH   5   6
ATOM      6  C   UNL     1       2.227   8.067  18.682  0.00  0.00    +0.000 A 
ATOM      7  C   UNL     1       1.439   9.137  18.161  0.00  0.00    +0.000 A 
ATOM      8  C   UNL     1       0.629   9.705  19.122  0.00  0.00    +0.000 A 
ATOM      9  S   UNL     1       0.819   8.956  20.647  0.00  0.00    +0.000 S 
ATOM     10  C   UNL     1       1.947   7.834  20.013  0.00  0.00    +0.000 A 
ENDBRANCH   5   6
BRANCH   1  11
ATOM     11  C   UNL     1       2.124   4.968  18.025  0.00  0.00    +0.000 C 
BRANCH  11  15
ATOM     12  C   UNL     1       2.158   2.527  21.594  0.00  0.00    +0.000 A 
ATOM     13  C   UNL     1       1.019   3.243  21.235  0.00  0.00    +0.000 A 
ATOM     14  C   UNL     1       1.031   4.052  20.096  0.00  0.00    +0.000 A 
ATOM     15  C   UNL     1       2.193   4.172  19.308  0.00  0.00    +0.000 A 
ATOM     16  C   UNL     1       3.327   3.448  19.692  0.00  0.00    +0.000 A 
ATOM     17  C   UNL     1       3.311   2.631  20.823  0.00  0.00    +0.000 A 
ENDBRANCH  11  15
ENDBRANCH   1  11
BRANCH   2  18
ATOM     18  S   UNL     1       4.909   4.020  16.546  0.00  0.00    +0.000 S 
BRANCH  18  19
ATOM     19  C   UNL     1       6.608   4.394  15.998  0.00  0.00    +0.000 C 
BRANCH  19  20
ATOM     20  C   UNL     1       6.760   4.391  14.492  0.00  0.00    +0.000 A 
ATOM     21  C   UNL     1       7.655   5.264  13.865  0.00  0.00    +0.000 A 
ATOM     22  C   UNL     1       7.807   5.198  12.487  0.00  0.00    +0.000 A 
ATOM     23  N   UNL     1       7.132   4.338  11.698  0.00  0.00    +0.000 NA
ATOM     24  C   UNL     1       6.263   3.509  12.315  0.00  0.00    +0.000 A 
ATOM     25  C   UNL     1       6.043   3.500  13.687  0.00  0.00    +0.000 A 
ENDBRANCH  19  20
ENDBRANCH  18  19
ENDBRANCH   2  18
TORSDOF 6
ENDMDL
MODEL 5
REMARK VINA RESULT:      -7.2      2.448      7.688
REMARK  Name = 
REMARK  6 active torsions:
REMARK  status: ('A' for Active; 'I' for Inactive)
REMARK    1  A    between atoms: C_4  and  C_5
REMARK    2  A    between atoms: C_5  and  N_6
REMARK    3  A    between atoms: C_7  and  S_8
REMARK    4  A    between atoms: S_8  and  C_9
REMARK    5  A    between atoms: C_9  and  C_10
REMARK    6  A    between atoms: C_18  and  C_19
REMARK                            x       y       z     vdW  Elec       q    Type
REMARK                         _______ _______ _______ _____ _____    ______ ____
ROOT
ATOM      1  N   UNL     1       3.407   6.469  18.664  0.00  0.00    +0.000 N 
ATOM      2  C   UNL     1       2.609   7.576  18.857  0.00  0.00    +0.000 A 
ATOM      3  N   UNL     1       2.747   8.402  17.847  0.00  0.00    +0.000 NA
ATOM      4  N   UNL     1       3.666   7.858  16.984  0.00  0.00    +0.000 NA
ATOM      5  C   UNL     1       4.013   6.669  17.438  0.00  0.00    +0.000 A 
ENDROOT
BRANCH   5   6
ATOM      6  C   UNL     1       4.966   5.768  16.715  0.00  0.00    +0.000 A 
ATOM      7  C   UNL     1       4.650   4.561  16.022  0.00  0.00    +0.000 A 
ATOM      8  C   UNL     1       5.768   3.965  15.476  0.00  0.00    +0.000 A 
ATOM      9  S   UNL     1       7.193   4.852  15.799  0.00  0.00    +0.000 S 
ATOM     10  C   UNL     1       6.310   6.065  16.627  0.00  0.00    +0.000 A 
ENDBRANCH   5   6
BRANCH   1  11
ATOM     11  C   UNL     1       3.844   5.512  19.668  0.00  0.00    +0.000 C 
BRANCH  11  15
ATOM     12  C   UNL     1       1.062   2.245  20.198  0.00  0.00    +0.000 A 
ATOM     13  C   UNL     1       1.309   3.141  21.235  0.00  0.00    +0.000 A 
ATOM     14  C   UNL     1       2.233   4.175  21.060  0.00  0.00    +0.000 A 
ATOM     15  C   UNL     1       2.940   4.314  19.850  0.00  0.00    +0.000 A 
ATOM     16  C   UNL     1       2.679   3.398  18.825  0.00  0.00    +0.000 A 
ATOM     17  C   UNL     1       1.747   2.373  18.995  0.00  0.00    +0.000 A 
ENDBRANCH  11  15
ENDBRANCH   1  11
BRANCH   2  18
ATOM     18  S   UNL     1       1.611   7.863  20.250  0.00  0.00    +0.000 S 
BRANCH  18  19
ATOM     19  C   UNL     1       0.786   9.413  19.760  0.00  0.00    +0.000 C 
BRANCH  19  20
ATOM     20  C   UNL     1       0.191  10.165  20.931  0.00  0.00    +0.000 A 
ATOM     21  C   UNL     1      -0.258   9.480  22.064  0.00  0.00    +0.000 A 
ATOM     22  C   UNL     1      -0.750  10.206  23.140  0.00  0.00    +0.000 A 
ATOM     23  N   UNL     1      -0.832  11.552  23.162  0.00  0.00    +0.000 NA
ATOM     24  C   UNL     1      -0.406  12.200  22.057  0.00  0.00    +0.000 A 
ATOM     25  C   UNL     1       0.102  11.562  20.932  0.00  0.00    +0.000 A 
ENDBRANCH  19  20
ENDBRANCH  18  19
ENDBRANCH   2  18
TORSDOF 6
ENDMDL
MODEL 6
REMARK VINA RESULT:      -7.2      4.300      7.378
REMARK  Name = 
REMARK  6 active torsions:
REMARK  status: ('A' for Active; 'I' for Inactive)
REMARK    1  A    between atoms: C_4  and  C_5
REMARK    2  A    between atoms: C_5  and  N_6
REMARK    3  A    between atoms: C_7  and  S_8
REMARK    4  A    between atoms: S_8  and  C_9
REMARK    5  A    between atoms: C_9  and  C_10
REMARK    6  A    between atoms: C_18  and  C_19
REMARK                            x       y       z     vdW  Elec       q    Type
REMARK                         _______ _______ _______ _____ _____    ______ ____
ROOT
ATOM      1  N   UNL     1       0.372  10.146  20.800  0.00  0.00    +0.000 N 
ATOM      2  C   UNL     1       1.088   8.993  21.035  0.00  0.00    +0.000 A 
ATOM      3  N   UNL     1       1.223   8.811  22.327  0.00  0.00    +0.000 NA
ATOM      4  N   UNL     1       0.618   9.867  22.963  0.00  0.00    +0.000 NA
ATOM      5  C   UNL     1       0.049  10.633  22.053  0.00  0.00    +0.000 A 
ENDROOT
BRANCH   5   6
ATOM      6  C   UNL     1      -0.748  11.853  22.397  0.00  0.00    +0.000 A 
ATOM      7  C   UNL     1      -0.383  13.213  22.161  0.00  0.00    +0.000 A 
ATOM      8  C   UNL     1      -1.342  14.097  22.614  0.00  0.00    +0.000 A 
ATOM      9  S   UNL     1      -2.673  13.293  23.323  0.00  0.00    +0.000 S 
ATOM     10  C   UNL     1      -1.995  11.757  22.979  0.00  0.00    +0.000 A 
ENDBRANCH   5   6
BRANCH   1  11
ATOM     11  C   UNL     1       0.312  10.910  19.564  0.00  0.00    +0.000 C 
BRANCH  11  15
ATOM     12  C   UNL     1      -3.300  10.672  17.199  0.00  0.00    +0.000 A 
ATOM     13  C   UNL     1      -3.226  11.526  18.296  0.00  0.00    +0.000 A 
ATOM     14  C   UNL     1      -2.063  11.571  19.070  0.00  0.00    +0.000 A 
ATOM     15  C   UNL     1      -0.962  10.745  18.768  0.00  0.00    +0.000 A 
ATOM     16  C   UNL     1      -1.063   9.890  17.665  0.00  0.00    +0.000 A 
ATOM     17  C   UNL     1      -2.220   9.854  16.885  0.00  0.00    +0.000 A 
ENDBRANCH  11  15
ENDBRANCH   1  11
BRANCH   2  18
ATOM     18  S   UNL     1       1.758   7.961  19.808  0.00  0.00    +0.000 S 
BRANCH  18  19
ATOM     19  C   UNL     1       1.835   6.376  20.706  0.00  0.00    +0.000 C 
BRANCH  19  20
ATOM     20  C   UNL     1       1.695   5.172  19.800  0.00  0.00    +0.000 A 
ATOM     21  C   UNL     1       1.069   4.007  20.255  0.00  0.00    +0.000 A 
ATOM     22  C   UNL     1       0.912   2.941  19.380  0.00  0.00    +0.000 A 
ATOM     23  N   UNL     1       1.338   2.950  18.101  0.00  0.00    +0.000 NA
ATOM     24  C   UNL     1       1.951   4.077  17.679  0.00  0.00    +0.000 A 
ATOM     25  C   UNL     1       2.153   5.195  18.478  0.00  0.00    +0.000 A 
ENDBRANCH  19  20
ENDBRANCH  18  19
ENDBRANCH   2  18
TORSDOF 6
ENDMDL
MODEL 7
REMARK VINA RESULT:      -7.1      4.398      7.292
REMARK  Name = 
REMARK  6 active torsions:
REMARK  status: ('A' for Active; 'I' for Inactive)
REMARK    1  A    between atoms: C_4  and  C_5
REMARK    2  A    between atoms: C_5  and  N_6
REMARK    3  A    between atoms: C_7  and  S_8
REMARK    4  A    between atoms: S_8  and  C_9
REMARK    5  A    between atoms: C_9  and  C_10
REMARK    6  A    between atoms: C_18  and  C_19
REMARK                            x       y       z     vdW  Elec       q    Type
REMARK                         _______ _______ _______ _____ _____    ______ ____
ROOT
ATOM      1  N   UNL     1       0.344  10.241  20.231  0.00  0.00    +0.000 N 
ATOM      2  C   UNL     1       1.146   9.121  20.219  0.00  0.00    +0.000 A 
ATOM      3  N   UNL     1       1.471   8.797  21.448  0.00  0.00    +0.000 NA
ATOM      4  N   UNL     1       0.907   9.724  22.289  0.00  0.00    +0.000 NA
ATOM      5  C   UNL     1       0.176  10.551  21.568  0.00  0.00    +0.000 A 
ENDROOT
BRANCH   5   6
ATOM      6  C   UNL     1      -0.627  11.664  22.169  0.00  0.00    +0.000 A 
ATOM      7  C   UNL     1      -1.820  11.542  22.945  0.00  0.00    +0.000 A 
ATOM      8  C   UNL     1      -2.315  12.768  23.336  0.00  0.00    +0.000 A 
ATOM      9  S   UNL     1      -1.352  14.062  22.769  0.00  0.00    +0.000 S 
ATOM     10  C   UNL     1      -0.238  12.981  22.043  0.00  0.00    +0.000 A 
ENDBRANCH   5   6
BRANCH   1  11
ATOM     11  C   UNL     1       0.069  11.141  19.122  0.00  0.00    +0.000 C 
BRANCH  11  15
ATOM     12  C   UNL     1      -3.935  10.620  17.577  0.00  0.00    +0.000 A 
ATOM     13  C   UNL     1      -2.898   9.798  17.148  0.00  0.00    +0.000 A 
ATOM     14  C   UNL     1      -1.602   9.996  17.632  0.00  0.00    +0.000 A 
ATOM     15  C   UNL     1      -1.322  11.037  18.541  0.00  0.00    +0.000 A 
ATOM     16  C   UNL     1      -2.380  11.854  18.952  0.00  0.00    +0.000 A 
ATOM     17  C   UNL     1      -3.676  11.648  18.478  0.00  0.00    +0.000 A 
ENDBRANCH  11  15
ENDBRANCH   1  11
BRANCH   2  18
ATOM     18  S   UNL     1       1.689   8.292  18.792  0.00  0.00    +0.000 S 
BRANCH  18  19
ATOM     19  C   UNL     1       2.732   6.994  19.534  0.00  0.00    +0.000 C 
BRANCH  19  20
ATOM     20  C   UNL     1       2.141   5.606  19.399  0.00  0.00    +0.000 A 
ATOM     21  C   UNL     1       1.581   4.961  20.506  0.00  0.00    +0.000 A 
ATOM     22  C   UNL     1       1.002   3.711  20.334  0.00  0.00    +0.000 A 
ATOM     23  N   UNL     1       0.950   3.063  19.152  0.00  0.00    +0.000 NA
ATOM     24  C   UNL     1       1.505   3.694  18.095  0.00  0.00    +0.000 A 
ATOM     25  C   UNL     1       2.106   4.944  18.167  0.00  0.00    +0.000 A 
ENDBRANCH  19  20
ENDBRANCH  18  19
ENDBRANCH   2  18
TORSDOF 6
ENDMDL
MODEL 8
REMARK VINA RESULT:      -7.1      2.641      7.181
REMARK  Name = 
REMARK  6 active torsions:
REMARK  status: ('A' for Active; 'I' for Inactive)
REMARK    1  A    between atoms: C_4  and  C_5
REMARK    2  A    between atoms: C_5  and  N_6
REMARK    3  A    between atoms: C_7  and  S_8
REMARK    4  A    between atoms: S_8  and  C_9
REMARK    5  A    between atoms: C_9  and  C_10
REMARK    6  A    between atoms: C_18  and  C_19
REMARK                            x       y       z     vdW  Elec       q    Type
REMARK                         _______ _______ _______ _____ _____    ______ ____
ROOT
ATOM      1  N   UNL     1       2.847   7.077  18.678  0.00  0.00    +0.000 N 
ATOM      2  C   UNL     1       2.124   8.239  18.519  0.00  0.00    +0.000 A 
ATOM      3  N   UNL     1       2.561   8.892  17.469  0.00  0.00    +0.000 NA
ATOM      4  N   UNL     1       3.606   8.177  16.936  0.00  0.00    +0.000 NA
ATOM      5  C   UNL     1       3.736   7.056  17.618  0.00  0.00    +0.000 A 
ENDROOT
BRANCH   5   6
ATOM      6  C   UNL     1       4.750   6.007  17.278  0.00  0.00    +0.000 A 
ATOM      7  C   UNL     1       4.541   4.830  16.499  0.00  0.00    +0.000 A 
ATOM      8  C   UNL     1       5.686   4.068  16.387  0.00  0.00    +0.000 A 
ATOM      9  S   UNL     1       7.006   4.766  17.220  0.00  0.00    +0.000 S 
ATOM     10  C   UNL     1       6.062   6.117  17.689  0.00  0.00    +0.000 A 
ENDBRANCH   5   6
BRANCH   1  11
ATOM     11  C   UNL     1       2.957   6.264  19.879  0.00  0.00    +0.000 C 
BRANCH  11  15
ATOM     12  C   UNL     1       0.851   2.492  19.704  0.00  0.00    +0.000 A 
ATOM     13  C   UNL     1       1.060   3.241  18.550  0.00  0.00    +0.000 A 
ATOM     14  C   UNL     1       1.715   4.473  18.625  0.00  0.00    +0.000 A 
ATOM     15  C   UNL     1       2.154   4.983  19.863  0.00  0.00    +0.000 A 
ATOM     16  C   UNL     1       1.927   4.215  21.010  0.00  0.00    +0.000 A 
ATOM     17  C   UNL     1       1.284   2.979  20.933  0.00  0.00    +0.000 A 
ENDBRANCH  11  15
ENDBRANCH   1  11
BRANCH   2  18
ATOM     18  S   UNL     1       0.858   8.785  19.577  0.00  0.00    +0.000 S 
BRANCH  18  19
ATOM     19  C   UNL     1       0.494  10.417  18.851  0.00  0.00    +0.000 C 
BRANCH  19  20
ATOM     20  C   UNL     1      -0.950  10.568  18.421  0.00  0.00    +0.000 A 
ATOM     21  C   UNL     1      -1.799  11.461  19.080  0.00  0.00    +0.000 A 
ATOM     22  C   UNL     1      -3.102  11.611  18.626  0.00  0.00    +0.000 A 
ATOM     23  N   UNL     1      -3.615  10.934  17.578  0.00  0.00    +0.000 NA
ATOM     24  C   UNL     1      -2.786  10.066  16.959  0.00  0.00    +0.000 A 
ATOM     25  C   UNL     1      -1.468   9.848  17.339  0.00  0.00    +0.000 A 
ENDBRANCH  19  20
ENDBRANCH  18  19
ENDBRANCH   2  18
TORSDOF 6
ENDMDL
MODEL 9
REMARK VINA RESULT:      -7.1      2.490      7.185
REMARK  Name = 
REMARK  6 active torsions:
REMARK  status: ('A' for Active; 'I' for Inactive)
REMARK    1  A    between atoms: C_4  and  C_5
REMARK    2  A    between atoms: C_5  and  N_6
REMARK    3  A    between atoms: C_7  and  S_8
REMARK    4  A    between atoms: S_8  and  C_9
REMARK    5  A    between atoms: C_9  and  C_10
REMARK    6  A    between atoms: C_18  and  C_19
REMARK                            x       y       z     vdW  Elec       q    Type
REMARK                         _______ _______ _______ _____ _____    ______ ____
ROOT
ATOM      1  N   UNL     1       2.997   6.919  18.679  0.00  0.00    +0.000 N 
ATOM      2  C   UNL     1       2.254   8.077  18.598  0.00  0.00    +0.000 A 
ATOM      3  N   UNL     1       2.605   8.754  17.531  0.00  0.00    +0.000 NA
ATOM      4  N   UNL     1       3.612   8.060  16.907  0.00  0.00    +0.000 NA
ATOM      5  C   UNL     1       3.802   6.927  17.555  0.00  0.00    +0.000 A 
ENDROOT
BRANCH   5   6
ATOM      6  C   UNL     1       4.796   5.895  17.119  0.00  0.00    +0.000 A 
ATOM      7  C   UNL     1       4.531   4.706  16.374  0.00  0.00    +0.000 A 
ATOM      8  C   UNL     1       5.672   3.966  16.149  0.00  0.00    +0.000 A 
ATOM      9  S   UNL     1       7.058   4.696  16.835  0.00  0.00    +0.000 S 
ATOM     10  C   UNL     1       6.142   6.033  17.389  0.00  0.00    +0.000 A 
ENDBRANCH   5   6
BRANCH   1  11
ATOM     11  C   UNL     1       3.204   6.085  19.853  0.00  0.00    +0.000 C 
BRANCH  11  15
ATOM     12  C   UNL     1       0.792   2.500  20.019  0.00  0.00    +0.000 A 
ATOM     13  C   UNL     1       1.374   3.018  21.173  0.00  0.00    +0.000 A 
ATOM     14  C   UNL     1       2.175   4.160  21.100  0.00  0.00    +0.000 A 
ATOM     15  C   UNL     1       2.424   4.790  19.865  0.00  0.00    +0.000 A 
ATOM     16  C   UNL     1       1.835   4.248  18.718  0.00  0.00    +0.000 A 
ATOM     17  C   UNL     1       1.024   3.114  18.792  0.00  0.00    +0.000 A 
ENDBRANCH  11  15
ENDBRANCH   1  11
BRANCH   2  18
ATOM     18  S   UNL     1       1.068   8.591  19.760  0.00  0.00    +0.000 S 
BRANCH  18  19
ATOM     19  C   UNL     1       0.839  10.329  19.260  0.00  0.00    +0.000 C 
BRANCH  19  20
ATOM     20  C   UNL     1      -0.553  10.619  18.739  0.00  0.00    +0.000 A 
ATOM     21  C   UNL     1      -1.068   9.908  17.651  0.00  0.00    +0.000 A 
ATOM     22  C   UNL     1      -2.367  10.165  17.232  0.00  0.00    +0.000 A 
ATOM     23  N   UNL     1      -3.176  11.075  17.811  0.00  0.00    +0.000 NA
ATOM     24  C   UNL     1      -2.660  11.763  18.853  0.00  0.00    +0.000 A 
ATOM     25  C   UNL     1      -1.374  11.576  19.344  0.00  0.00    +0.000 A 
ENDBRANCH  19  20
ENDBRANCH  18  19
ENDBRANCH   2  18
TORSDOF 6
ENDMDL
