MODEL 1
REMARK VINA RESULT:      -6.9      0.000      0.000
REMARK  Name = 
REMARK  6 active torsions:
REMARK  status: ('A' for Active; 'I' for Inactive)
REMARK    1  A    between atoms: C_1  and  O_2
REMARK    2  A    between atoms: O_2  and  C_3
REMARK    3  A    between atoms: C_3  and  C_5
REMARK    4  A    between atoms: C_5  and  O_6
REMARK    5  A    between atoms: O_6  and  C_7
REMARK    6  A    between atoms: C_11  and  N_12
REMARK                            x       y       z     vdW  Elec       q    Type
REMARK                         _______ _______ _______ _____ _____    ______ ____
ROOT
ATOM      1  C   UNL     1       3.037   5.737  19.752  0.00  0.00    +0.000 A 
ATOM      2  C   UNL     1       2.269   6.797  19.268  0.00  0.00    +0.000 A 
ATOM      3  C   UNL     1       2.688   7.530  18.161  0.00  0.00    +0.000 A 
ATOM      4  C   UNL     1       3.873   7.192  17.509  0.00  0.00    +0.000 A 
ATOM      5  C   UNL     1       4.636   6.107  17.964  0.00  0.00    +0.000 A 
ATOM      6  C   UNL     1       4.219   5.384  19.099  0.00  0.00    +0.000 A 
ENDROOT
BRANCH   5   7
ATOM      7  N   UNL     1       5.807   5.712  17.274  0.00  0.00    +0.000 N 
ATOM      8  C   UNL     1       6.628   4.633  17.489  0.00  0.00    +0.000 A 
ATOM      9  N   UNL     1       7.626   4.667  16.638  0.00  0.00    +0.000 NA
ATOM     10  N   UNL     1       7.422   5.784  15.871  0.00  0.00    +0.000 NA
ATOM     11  N   UNL     1       6.320   6.420  16.240  0.00  0.00    +0.000 NA
ENDBRANCH   5   7
BRANCH   1  12
ATOM     12  O   UNL     1       2.493   5.077  20.816  0.00  0.00    +0.000 OA
BRANCH  12  13
ATOM     13  C   UNL     1       1.295   4.343  20.578  0.00  0.00    +0.000 C 
BRANCH  13  14
ATOM     14  C   UNL     1       1.511   2.898  21.004  0.00  0.00    +0.000 C 
ATOM     15  O   UNL     1       1.486   2.474  22.153  0.00  0.00    +0.000 OA
BRANCH  14  17
ATOM     16  C   UNL     1       0.881   2.446  18.796  0.00  0.00    +0.000 C 
ATOM     17  O   UNL     1       1.727   2.119  19.901  0.00  0.00    +0.000 OA
ENDBRANCH  14  17
ENDBRANCH  13  14
ENDBRANCH  12  13
ENDBRANCH   1  12
TORSDOF 5
ENDMDL
MODEL 2
REMARK VINA RESULT:      -6.8      0.853      1.120
REMARK  Name = 
REMARK  6 active torsions:
REMARK  status: ('A' for Active; 'I' for Inactive)
REMARK    1  A    between atoms: C_1  and  O_2
REMARK    2  A    between atoms: O_2  and  C_3
REMARK    3  A    between atoms: C_3  and  C_5
REMARK    4  A    between atoms: C_5  and  O_6
REMARK    5  A    between atoms: O_6  and  C_7
REMARK    6  A    between atoms: C_11  and  N_12
REMARK                            x       y       z     vdW  Elec       q    Type
REMARK                         _______ _______ _______ _____ _____    ______ ____
ROOT
ATOM      1  C   UNL     1       3.138   5.850  19.632  0.00  0.00    +0.000 A 
ATOM      2  C   UNL     1       2.579   6.883  18.878  0.00  0.00    +0.000 A 
ATOM      3  C   UNL     1       3.243   7.387  17.763  0.00  0.00    +0.000 A 
ATOM      4  C   UNL     1       4.467   6.842  17.374  0.00  0.00    +0.000 A 
ATOM      5  C   UNL     1       5.021   5.781  18.104  0.00  0.00    +0.000 A 
ATOM      6  C   UNL     1       4.356   5.291  19.244  0.00  0.00    +0.000 A 
ENDROOT
BRANCH   5   7
ATOM      7  N   UNL     1       6.230   5.176  17.683  0.00  0.00    +0.000 N 
ATOM      8  C   UNL     1       6.648   4.843  16.419  0.00  0.00    +0.000 A 
ATOM      9  N   UNL     1       7.825   4.265  16.487  0.00  0.00    +0.000 NA
ATOM     10  N   UNL     1       8.152   4.243  17.816  0.00  0.00    +0.000 NA
ATOM     11  N   UNL     1       7.199   4.800  18.551  0.00  0.00    +0.000 NA
ENDBRANCH   5   7
BRANCH   1  12
ATOM     12  O   UNL     1       2.366   5.422  20.673  0.00  0.00    +0.000 OA
BRANCH  12  13
ATOM     13  C   UNL     1       1.346   4.473  20.376  0.00  0.00    +0.000 C 
BRANCH  13  14
ATOM     14  C   UNL     1       1.691   3.152  21.048  0.00  0.00    +0.000 C 
ATOM     15  O   UNL     1       2.097   3.013  22.196  0.00  0.00    +0.000 OA
BRANCH  14  17
ATOM     16  C   UNL     1       1.937   2.376  18.854  0.00  0.00    +0.000 C 
ATOM     17  O   UNL     1       1.468   2.120  20.180  0.00  0.00    +0.000 OA
ENDBRANCH  14  17
ENDBRANCH  13  14
ENDBRANCH  12  13
ENDBRANCH   1  12
TORSDOF 5
ENDMDL
MODEL 3
REMARK VINA RESULT:      -6.6      1.307      1.443
REMARK  Name = 
REMARK  6 active torsions:
REMARK  status: ('A' for Active; 'I' for Inactive)
REMARK    1  A    between atoms: C_1  and  O_2
REMARK    2  A    between atoms: O_2  and  C_3
REMARK    3  A    between atoms: C_3  and  C_5
REMARK    4  A    between atoms: C_5  and  O_6
REMARK    5  A    between atoms: O_6  and  C_7
REMARK    6  A    between atoms: C_11  and  N_12
REMARK                            x       y       z     vdW  Elec       q    Type
REMARK                         _______ _______ _______ _____ _____    ______ ____
ROOT
ATOM      1  C   UNL     1       2.516   4.940  18.207  0.00  0.00    +0.000 A 
ATOM      2  C   UNL     1       2.146   6.272  18.393  0.00  0.00    +0.000 A 
ATOM      3  C   UNL     1       2.987   7.306  17.989  0.00  0.00    +0.000 A 
ATOM      4  C   UNL     1       4.201   7.014  17.367  0.00  0.00    +0.000 A 
ATOM      5  C   UNL     1       4.567   5.679  17.143  0.00  0.00    +0.000 A 
ATOM      6  C   UNL     1       3.724   4.638  17.576  0.00  0.00    +0.000 A 
ENDROOT
BRANCH   5   7
ATOM      7  N   UNL     1       5.766   5.370  16.456  0.00  0.00    +0.000 N 
ATOM      8  C   UNL     1       6.800   4.547  16.829  0.00  0.00    +0.000 A 
ATOM      9  N   UNL     1       7.735   4.577  15.908  0.00  0.00    +0.000 NA
ATOM     10  N   UNL     1       7.274   5.427  14.938  0.00  0.00    +0.000 NA
ATOM     11  N   UNL     1       6.079   5.907  15.254  0.00  0.00    +0.000 NA
ENDBRANCH   5   7
BRANCH   1  12
ATOM     12  O   UNL     1       1.584   4.027  18.611  0.00  0.00    +0.000 OA
BRANCH  12  13
ATOM     13  C   UNL     1       1.138   4.112  19.962  0.00  0.00    +0.000 C 
BRANCH  13  14
ATOM     14  C   UNL     1       2.057   3.274  20.837  0.00  0.00    +0.000 C 
ATOM     15  O   UNL     1       2.223   3.409  22.044  0.00  0.00    +0.000 OA
BRANCH  14  17
ATOM     16  C   UNL     1       4.090   2.261  20.274  0.00  0.00    +0.000 C 
ATOM     17  O   UNL     1       2.675   2.320  20.077  0.00  0.00    +0.000 OA
ENDBRANCH  14  17
ENDBRANCH  13  14
ENDBRANCH  12  13
ENDBRANCH   1  12
TORSDOF 5
ENDMDL
MODEL 4
REMARK VINA RESULT:      -6.5      0.993      1.056
REMARK  Name = 
REMARK  6 active torsions:
REMARK  status: ('A' for Active; 'I' for Inactive)
REMARK    1  A    between atoms: C_1  and  O_2
REMARK    2  A    between atoms: O_2  and  C_3
REMARK    3  A    between atoms: C_3  and  C_5
REMARK    4  A    between atoms: C_5  and  O_6
REMARK    5  A    between atoms: O_6  and  C_7
REMARK    6  A    between atoms: C_11  and  N_12
REMARK                            x       y       z     vdW  Elec       q    Type
REMARK                         _______ _______ _______ _____ _____    ______ ____
ROOT
ATOM      1  C   UNL     1       3.234   5.354  19.769  0.00  0.00    +0.000 A 
ATOM      2  C   UNL     1       2.417   6.398  19.334  0.00  0.00    +0.000 A 
ATOM      3  C   UNL     1       2.786   7.181  18.243  0.00  0.00    +0.000 A 
ATOM      4  C   UNL     1       3.970   6.908  17.558  0.00  0.00    +0.000 A 
ATOM      5  C   UNL     1       4.782   5.840  17.965  0.00  0.00    +0.000 A 
ATOM      6  C   UNL     1       4.415   5.067  19.083  0.00  0.00    +0.000 A 
ENDROOT
BRANCH   5   7
ATOM      7  N   UNL     1       5.953   5.513  17.240  0.00  0.00    +0.000 N 
ATOM      8  C   UNL     1       6.904   4.558  17.500  0.00  0.00    +0.000 A 
ATOM      9  N   UNL     1       7.846   4.619  16.588  0.00  0.00    +0.000 NA
ATOM     10  N   UNL     1       7.474   5.626  15.737  0.00  0.00    +0.000 NA
ATOM     11  N   UNL     1       6.325   6.170  16.116  0.00  0.00    +0.000 NA
ENDBRANCH   5   7
BRANCH   1  12
ATOM     12  O   UNL     1       2.736   4.641  20.821  0.00  0.00    +0.000 OA
BRANCH  12  13
ATOM     13  C   UNL     1       2.871   3.223  20.764  0.00  0.00    +0.000 C 
BRANCH  13  14
ATOM     14  C   UNL     1       1.840   2.669  19.793  0.00  0.00    +0.000 C 
ATOM     15  O   UNL     1       0.636   2.899  19.812  0.00  0.00    +0.000 OA
BRANCH  14  17
ATOM     16  C   UNL     1       2.478   2.436  17.554  0.00  0.00    +0.000 C 
ATOM     17  O   UNL     1       2.457   1.874  18.868  0.00  0.00    +0.000 OA
ENDBRANCH  14  17
ENDBRANCH  13  14
ENDBRANCH  12  13
ENDBRANCH   1  12
TORSDOF 5
ENDMDL
MODEL 5
REMARK VINA RESULT:      -6.4      2.159      2.840
REMARK  Name = 
REMARK  6 active torsions:
REMARK  status: ('A' for Active; 'I' for Inactive)
REMARK    1  A    between atoms: C_1  and  O_2
REMARK    2  A    between atoms: O_2  and  C_3
REMARK    3  A    between atoms: C_3  and  C_5
REMARK    4  A    between atoms: C_5  and  O_6
REMARK    5  A    between atoms: O_6  and  C_7
REMARK    6  A    between atoms: C_11  and  N_12
REMARK                            x       y       z     vdW  Elec       q    Type
REMARK                         _______ _______ _______ _____ _____    ______ ____
ROOT
ATOM      1  C   UNL     1       5.069   4.452  18.596  0.00  0.00    +0.000 A 
ATOM      2  C   UNL     1       5.955   5.174  19.397  0.00  0.00    +0.000 A 
ATOM      3  C   UNL     1       7.116   5.722  18.857  0.00  0.00    +0.000 A 
ATOM      4  C   UNL     1       7.389   5.574  17.497  0.00  0.00    +0.000 A 
ATOM      5  C   UNL     1       6.489   4.881  16.676  0.00  0.00    +0.000 A 
ATOM      6  C   UNL     1       5.329   4.309  17.232  0.00  0.00    +0.000 A 
ENDROOT
BRANCH   5   7
ATOM      7  N   UNL     1       6.721   4.779  15.283  0.00  0.00    +0.000 N 
ATOM      8  C   UNL     1       6.136   3.951  14.357  0.00  0.00    +0.000 A 
ATOM      9  N   UNL     1       6.676   4.162  13.180  0.00  0.00    +0.000 NA
ATOM     10  N   UNL     1       7.611   5.144  13.371  0.00  0.00    +0.000 NA
ATOM     11  N   UNL     1       7.643   5.532  14.638  0.00  0.00    +0.000 NA
ENDBRANCH   5   7
BRANCH   1  12
ATOM     12  O   UNL     1       3.952   4.005  19.241  0.00  0.00    +0.000 OA
BRANCH  12  13
ATOM     13  C   UNL     1       4.047   2.748  19.904  0.00  0.00    +0.000 C 
BRANCH  13  14
ATOM     14  C   UNL     1       2.815   2.556  20.775  0.00  0.00    +0.000 C 
ATOM     15  O   UNL     1       2.766   2.688  21.993  0.00  0.00    +0.000 OA
BRANCH  14  17
ATOM     16  C   UNL     1       0.747   3.244  19.924  0.00  0.00    +0.000 C 
ATOM     17  O   UNL     1       1.744   2.222  19.993  0.00  0.00    +0.000 OA
ENDBRANCH  14  17
ENDBRANCH  13  14
ENDBRANCH  12  13
ENDBRANCH   1  12
TORSDOF 5
ENDMDL
MODEL 6
REMARK VINA RESULT:      -6.4      1.988      2.988
REMARK  Name = 
REMARK  6 active torsions:
REMARK  status: ('A' for Active; 'I' for Inactive)
REMARK    1  A    between atoms: C_1  and  O_2
REMARK    2  A    between atoms: O_2  and  C_3
REMARK    3  A    between atoms: C_3  and  C_5
REMARK    4  A    between atoms: C_5  and  O_6
REMARK    5  A    between atoms: O_6  and  C_7
REMARK    6  A    between atoms: C_11  and  N_12
REMARK                            x       y       z     vdW  Elec       q    Type
REMARK                         _______ _______ _______ _____ _____    ______ ____
ROOT
ATOM      1  C   UNL     1       4.395   5.284  18.312  0.00  0.00    +0.000 A 
ATOM      2  C   UNL     1       5.340   5.367  19.336  0.00  0.00    +0.000 A 
ATOM      3  C   UNL     1       6.700   5.257  19.057  0.00  0.00    +0.000 A 
ATOM      4  C   UNL     1       7.130   5.089  17.741  0.00  0.00    +0.000 A 
ATOM      5  C   UNL     1       6.192   5.039  16.701  0.00  0.00    +0.000 A 
ATOM      6  C   UNL     1       4.817   5.126  16.991  0.00  0.00    +0.000 A 
ENDROOT
BRANCH   5   7
ATOM      7  N   UNL     1       6.618   4.932  15.354  0.00  0.00    +0.000 N 
ATOM      8  C   UNL     1       6.093   4.188  14.327  0.00  0.00    +0.000 A 
ATOM      9  N   UNL     1       6.823   4.356  13.249  0.00  0.00    +0.000 NA
ATOM     10  N   UNL     1       7.818   5.227  13.606  0.00  0.00    +0.000 NA
ATOM     11  N   UNL     1       7.700   5.590  14.876  0.00  0.00    +0.000 NA
ENDBRANCH   5   7
BRANCH   1  12
ATOM     12  O   UNL     1       3.101   5.447  18.716  0.00  0.00    +0.000 OA
BRANCH  12  13
ATOM     13  C   UNL     1       2.460   4.321  19.308  0.00  0.00    +0.000 C 
BRANCH  13  14
ATOM     14  C   UNL     1       1.785   3.507  18.215  0.00  0.00    +0.000 C 
ATOM     15  O   UNL     1       1.185   3.958  17.247  0.00  0.00    +0.000 OA
BRANCH  14  17
ATOM     16  C   UNL     1       3.306   1.730  18.290  0.00  0.00    +0.000 C 
ATOM     17  O   UNL     1       1.958   2.173  18.460  0.00  0.00    +0.000 OA
ENDBRANCH  14  17
ENDBRANCH  13  14
ENDBRANCH  12  13
ENDBRANCH   1  12
TORSDOF 5
ENDMDL
MODEL 7
REMARK VINA RESULT:      -6.4      4.086      5.814
REMARK  Name = 
REMARK  6 active torsions:
REMARK  status: ('A' for Active; 'I' for Inactive)
REMARK    1  A    between atoms: C_1  and  O_2
REMARK    2  A    between atoms: O_2  and  C_3
REMARK    3  A    between atoms: C_3  and  C_5
REMARK    4  A    between atoms: C_5  and  O_6
REMARK    5  A    between atoms: O_6  and  C_7
REMARK    6  A    between atoms: C_11  and  N_12
REMARK                            x       y       z     vdW  Elec       q    Type
REMARK                         _______ _______ _______ _____ _____    ______ ____
ROOT
ATOM      1  C   UNL     1       4.198   5.601  17.184  0.00  0.00    +0.000 A 
ATOM      2  C   UNL     1       3.858   6.947  17.325  0.00  0.00    +0.000 A 
ATOM      3  C   UNL     1       2.994   7.359  18.336  0.00  0.00    +0.000 A 
ATOM      4  C   UNL     1       2.479   6.426  19.236  0.00  0.00    +0.000 A 
ATOM      5  C   UNL     1       2.841   5.077  19.126  0.00  0.00    +0.000 A 
ATOM      6  C   UNL     1       3.697   4.662  18.087  0.00  0.00    +0.000 A 
ENDROOT
BRANCH   5   7
ATOM      7  N   UNL     1       2.377   4.129  20.071  0.00  0.00    +0.000 N 
ATOM      8  C   UNL     1       2.360   4.199  21.442  0.00  0.00    +0.000 A 
ATOM      9  N   UNL     1       1.876   3.080  21.929  0.00  0.00    +0.000 NA
ATOM     10  N   UNL     1       1.578   2.300  20.843  0.00  0.00    +0.000 NA
ATOM     11  N   UNL     1       1.868   2.927  19.712  0.00  0.00    +0.000 NA
ENDBRANCH   5   7
BRANCH   1  12
ATOM     12  O   UNL     1       5.085   5.339  16.180  0.00  0.00    +0.000 OA
BRANCH  12  13
ATOM     13  C   UNL     1       6.081   4.352  16.437  0.00  0.00    +0.000 C 
BRANCH  13  14
ATOM     14  C   UNL     1       7.240   5.003  17.177  0.00  0.00    +0.000 C 
ATOM     15  O   UNL     1       7.837   4.531  18.137  0.00  0.00    +0.000 OA
BRANCH  14  17
ATOM     16  C   UNL     1       7.600   7.287  17.535  0.00  0.00    +0.000 C 
ATOM     17  O   UNL     1       7.537   6.207  16.601  0.00  0.00    +0.000 OA
ENDBRANCH  14  17
ENDBRANCH  13  14
ENDBRANCH  12  13
ENDBRANCH   1  12
TORSDOF 5
ENDMDL
MODEL 8
REMARK VINA RESULT:      -6.4      1.356      1.504
REMARK  Name = 
REMARK  6 active torsions:
REMARK  status: ('A' for Active; 'I' for Inactive)
REMARK    1  A    between atoms: C_1  and  O_2
REMARK    2  A    between atoms: O_2  and  C_3
REMARK    3  A    between atoms: C_3  and  C_5
REMARK    4  A    between atoms: C_5  and  O_6
REMARK    5  A    between atoms: O_6  and  C_7
REMARK    6  A    between atoms: C_11  and  N_12
REMARK                            x       y       z     vdW  Elec       q    Type
REMARK                         _______ _______ _______ _____ _____    ______ ____
ROOT
ATOM      1  C   UNL     1       3.824   4.814  18.851  0.00  0.00    +0.000 A 
ATOM      2  C   UNL     1       3.147   6.033  18.918  0.00  0.00    +0.000 A 
ATOM      3  C   UNL     1       3.420   7.047  18.004  0.00  0.00    +0.000 A 
ATOM      4  C   UNL     1       4.358   6.841  16.992  0.00  0.00    +0.000 A 
ATOM      5  C   UNL     1       5.018   5.608  16.894  0.00  0.00    +0.000 A 
ATOM      6  C   UNL     1       4.756   4.595  17.836  0.00  0.00    +0.000 A 
ENDROOT
BRANCH   5   7
ATOM      7  N   UNL     1       5.926   5.362  15.835  0.00  0.00    +0.000 N 
ATOM      8  C   UNL     1       5.769   4.590  14.710  0.00  0.00    +0.000 A 
ATOM      9  N   UNL     1       6.878   4.611  14.008  0.00  0.00    +0.000 NA
ATOM     10  N   UNL     1       7.741   5.417  14.702  0.00  0.00    +0.000 NA
ATOM     11  N   UNL     1       7.174   5.885  15.805  0.00  0.00    +0.000 NA
ENDBRANCH   5   7
BRANCH   1  12
ATOM     12  O   UNL     1       3.433   3.893  19.780  0.00  0.00    +0.000 OA
BRANCH  12  13
ATOM     13  C   UNL     1       2.599   4.356  20.838  0.00  0.00    +0.000 C 
BRANCH  13  14
ATOM     14  C   UNL     1       1.506   3.328  21.089  0.00  0.00    +0.000 C 
ATOM     15  O   UNL     1       1.411   2.603  22.072  0.00  0.00    +0.000 OA
BRANCH  14  17
ATOM     16  C   UNL     1       0.791   2.243  19.143  0.00  0.00    +0.000 C 
ATOM     17  O   UNL     1       0.618   3.335  20.049  0.00  0.00    +0.000 OA
ENDBRANCH  14  17
ENDBRANCH  13  14
ENDBRANCH  12  13
ENDBRANCH   1  12
TORSDOF 5
ENDMDL
MODEL 9
REMARK VINA RESULT:      -6.4      4.593      6.382
REMARK  Name = 
REMARK  6 active torsions:
REMARK  status: ('A' for Active; 'I' for Inactive)
REMARK    1  A    between atoms: C_1  and  O_2
REMARK    2  A    between atoms: O_2  and  C_3
REMARK    3  A    between atoms: C_3  and  C_5
REMARK    4  A    between atoms: C_5  and  O_6
REMARK    5  A    between atoms: O_6  and  C_7
REMARK    6  A    between atoms: C_11  and  N_12
REMARK                            x       y       z     vdW  Elec       q    Type
REMARK                         _______ _______ _______ _____ _____    ______ ____
ROOT
ATOM      1  C   UNL     1       4.631   4.318  17.069  0.00  0.00    +0.000 A 
ATOM      2  C   UNL     1       4.479   5.701  16.960  0.00  0.00    +0.000 A 
ATOM      3  C   UNL     1       3.654   6.396  17.840  0.00  0.00    +0.000 A 
ATOM      4  C   UNL     1       2.990   5.714  18.859  0.00  0.00    +0.000 A 
ATOM      5  C   UNL     1       3.163   4.330  19.000  0.00  0.00    +0.000 A 
ATOM      6  C   UNL     1       3.980   3.629  18.093  0.00  0.00    +0.000 A 
ENDROOT
BRANCH   5   7
ATOM      7  N   UNL     1       2.547   3.635  20.069  0.00  0.00    +0.000 N 
ATOM      8  C   UNL     1       1.225   3.593  20.438  0.00  0.00    +0.000 A 
ATOM      9  N   UNL     1       1.096   2.853  21.514  0.00  0.00    +0.000 NA
ATOM     10  N   UNL     1       2.358   2.418  21.820  0.00  0.00    +0.000 NA
ATOM     11  N   UNL     1       3.244   2.877  20.948  0.00  0.00    +0.000 NA
ENDBRANCH   5   7
BRANCH   1  12
ATOM     12  O   UNL     1       5.499   3.767  16.170  0.00  0.00    +0.000 OA
BRANCH  12  13
ATOM     13  C   UNL     1       6.736   4.444  15.966  0.00  0.00    +0.000 C 
BRANCH  13  14
ATOM     14  C   UNL     1       6.902   4.730  14.481  0.00  0.00    +0.000 C 
ATOM     15  O   UNL     1       7.769   5.434  13.976  0.00  0.00    +0.000 OA
BRANCH  14  17
ATOM     16  C   UNL     1       6.392   3.580  12.509  0.00  0.00    +0.000 C 
ATOM     17  O   UNL     1       5.938   4.068  13.773  0.00  0.00    +0.000 OA
ENDBRANCH  14  17
ENDBRANCH  13  14
ENDBRANCH  12  13
ENDBRANCH   1  12
TORSDOF 5
ENDMDL
