MODEL 1
REMARK VINA RESULT:      -8.3      0.000      0.000
REMARK  Name = 
REMARK  8 active torsions:
REMARK  status: ('A' for Active; 'I' for Inactive)
REMARK    1  A    between atoms: C_1  and  O_2
REMARK    2  A    between atoms: O_2  and  C_3
REMARK    3  A    between atoms: C_7  and  C_8
REMARK    4  A    between atoms: C_8  and  N_9
REMARK    5  A    between atoms: C_10  and  C_12
REMARK    6  A    between atoms: C_15  and  N_16
REMARK    7  A    between atoms: C_17  and  C_18
REMARK    8  A    between atoms: C_24  and  C_25
REMARK                            x       y       z     vdW  Elec       q    Type
REMARK                         _______ _______ _______ _____ _____    ______ ____
ROOT
ATOM      1  C   UNL     1       2.215   7.465  19.015  0.00  0.00    +0.000 A 
ATOM      2  C   UNL     1       1.668   8.005  20.183  0.00  0.00    +0.000 A 
ATOM      3  C   UNL     1       0.965   9.212  20.140  0.00  0.00    +0.000 A 
ATOM      4  C   UNL     1       0.856   9.930  18.941  0.00  0.00    +0.000 A 
ATOM      5  C   UNL     1       1.450   9.401  17.786  0.00  0.00    +0.000 A 
ATOM      6  C   UNL     1       2.110   8.169  17.816  0.00  0.00    +0.000 A 
ENDROOT
BRANCH   4   7
ATOM      7  N   UNL     1       0.153  11.181  18.908  0.00  0.00    +0.000 N 
ATOM      8  C   UNL     1      -1.177  11.377  18.511  0.00  0.00    +0.000 A 
ATOM      9  C   UNL     1      -2.180  10.318  18.189  0.00  0.00    +0.000 C 
ATOM     10  C   UNL     1      -1.442  12.733  18.554  0.00  0.00    +0.000 A 
ATOM     11  C   UNL     1      -0.296  13.398  19.020  0.00  0.00    +0.000 A 
ATOM     12  C   UNL     1       0.670  12.442  19.238  0.00  0.00    +0.000 A 
ATOM     13  C   UNL     1       2.074  12.738  19.625  0.00  0.00    +0.000 C 
ATOM     14  C   UNL     1       2.369  14.219  19.885  0.00  0.00    +0.000 C 
ATOM     15  C   UNL     1       1.317  15.301  19.554  0.00  0.00    +0.000 C 
ATOM     16  C   UNL     1       1.845  16.233  18.458  0.00  0.00    +0.000 C 
ATOM     17  C   UNL     1      -0.123  14.849  19.246  0.00  0.00    +0.000 C 
ENDBRANCH   4   7
BRANCH   1  19
ATOM     18  N   UNL     1       2.955   5.482  17.843  0.00  0.00    +0.000 N 
ATOM     19  C   UNL     1       2.947   6.170  19.036  0.00  0.00    +0.000 C 
ATOM     20  O   UNL     1       3.499   5.783  20.059  0.00  0.00    +0.000 OA
ATOM     21  H   UNL     1       2.692   5.967  16.998  0.00  0.00    +0.000 HD
BRANCH  18  22
ATOM     22  C   UNL     1       3.614   4.209  17.695  0.00  0.00    +0.000 C 
BRANCH  22  27
ATOM     23  C   UNL     1       6.457   4.478  15.165  0.00  0.00    +0.000 A 
ATOM     24  C   UNL     1       7.556   4.587  16.022  0.00  0.00    +0.000 A 
ATOM     25  C   UNL     1       7.379   4.607  17.406  0.00  0.00    +0.000 A 
ATOM     26  C   UNL     1       6.101   4.498  17.944  0.00  0.00    +0.000 A 
ATOM     27  C   UNL     1       4.989   4.360  17.102  0.00  0.00    +0.000 A 
ATOM     28  C   UNL     1       5.174   4.375  15.708  0.00  0.00    +0.000 A 
BRANCH  23  30
ATOM     29  C   UNL     1       6.008   3.615  12.995  0.00  0.00    +0.000 C 
ATOM     30  O   UNL     1       6.770   4.471  13.834  0.00  0.00    +0.000 OA
ENDBRANCH  23  30
ENDBRANCH  22  27
ENDBRANCH  18  22
ENDBRANCH   1  19
TORSDOF 5
ENDMDL
MODEL 2
REMARK VINA RESULT:      -8.2      1.365      1.937
REMARK  Name = 
REMARK  8 active torsions:
REMARK  status: ('A' for Active; 'I' for Inactive)
REMARK    1  A    between atoms: C_1  and  O_2
REMARK    2  A    between atoms: O_2  and  C_3
REMARK    3  A    between atoms: C_7  and  C_8
REMARK    4  A    between atoms: C_8  and  N_9
REMARK    5  A    between atoms: C_10  and  C_12
REMARK    6  A    between atoms: C_15  and  N_16
REMARK    7  A    between atoms: C_17  and  C_18
REMARK    8  A    between atoms: C_24  and  C_25
REMARK                            x       y       z     vdW  Elec       q    Type
REMARK                         _______ _______ _______ _____ _____    ______ ____
ROOT
ATOM      1  C   UNL     1       1.808   8.177  19.261  0.00  0.00    +0.000 A 
ATOM      2  C   UNL     1       1.300   8.821  20.394  0.00  0.00    +0.000 A 
ATOM      3  C   UNL     1       0.861  10.145  20.317  0.00  0.00    +0.000 A 
ATOM      4  C   UNL     1       0.985  10.867  19.123  0.00  0.00    +0.000 A 
ATOM      5  C   UNL     1       1.539  10.226  18.006  0.00  0.00    +0.000 A 
ATOM      6  C   UNL     1       1.932   8.886  18.066  0.00  0.00    +0.000 A 
ENDROOT
BRANCH   4   7
ATOM      7  N   UNL     1       0.554  12.235  19.056  0.00  0.00    +0.000 N 
ATOM      8  C   UNL     1      -0.770  12.685  18.971  0.00  0.00    +0.000 A 
ATOM      9  C   UNL     1      -2.007  11.856  19.084  0.00  0.00    +0.000 C 
ATOM     10  C   UNL     1      -0.748  14.063  18.851  0.00  0.00    +0.000 A 
ATOM     11  C   UNL     1       0.588  14.494  18.905  0.00  0.00    +0.000 A 
ATOM     12  C   UNL     1       1.374  13.372  19.035  0.00  0.00    +0.000 A 
ATOM     13  C   UNL     1       2.860  13.379  19.011  0.00  0.00    +0.000 C 
ATOM     14  C   UNL     1       3.493  14.772  18.942  0.00  0.00    +0.000 C 
ATOM     15  C   UNL     1       2.619  16.023  18.703  0.00  0.00    +0.000 C 
ATOM     16  C   UNL     1       2.994  16.685  17.373  0.00  0.00    +0.000 C 
ATOM     17  C   UNL     1       1.092  15.883  18.838  0.00  0.00    +0.000 C 
ENDBRANCH   4   7
BRANCH   1  19
ATOM     18  N   UNL     1       2.854   6.290  18.169  0.00  0.00    +0.000 N 
ATOM     19  C   UNL     1       2.258   6.761  19.317  0.00  0.00    +0.000 C 
ATOM     20  O   UNL     1       2.102   6.098  20.335  0.00  0.00    +0.000 OA
ATOM     21  H   UNL     1       3.160   6.951  17.470  0.00  0.00    +0.000 HD
BRANCH  18  22
ATOM     22  C   UNL     1       3.342   4.939  18.055  0.00  0.00    +0.000 C 
BRANCH  22  27
ATOM     23  C   UNL     1       6.741   5.834  16.572  0.00  0.00    +0.000 A 
ATOM     24  C   UNL     1       6.938   4.754  15.707  0.00  0.00    +0.000 A 
ATOM     25  C   UNL     1       5.998   3.727  15.626  0.00  0.00    +0.000 A 
ATOM     26  C   UNL     1       4.840   3.783  16.397  0.00  0.00    +0.000 A 
ATOM     27  C   UNL     1       4.612   4.871  17.250  0.00  0.00    +0.000 A 
ATOM     28  C   UNL     1       5.582   5.885  17.349  0.00  0.00    +0.000 A 
BRANCH  23  30
ATOM     29  C   UNL     1       7.701   7.775  17.557  0.00  0.00    +0.000 C 
ATOM     30  O   UNL     1       7.739   6.769  16.554  0.00  0.00    +0.000 OA
ENDBRANCH  23  30
ENDBRANCH  22  27
ENDBRANCH  18  22
ENDBRANCH   1  19
TORSDOF 5
ENDMDL
MODEL 3
REMARK VINA RESULT:      -8.2      1.101      2.081
REMARK  Name = 
REMARK  8 active torsions:
REMARK  status: ('A' for Active; 'I' for Inactive)
REMARK    1  A    between atoms: C_1  and  O_2
REMARK    2  A    between atoms: O_2  and  C_3
REMARK    3  A    between atoms: C_7  and  C_8
REMARK    4  A    between atoms: C_8  and  N_9
REMARK    5  A    between atoms: C_10  and  C_12
REMARK    6  A    between atoms: C_15  and  N_16
REMARK    7  A    between atoms: C_17  and  C_18
REMARK    8  A    between atoms: C_24  and  C_25
REMARK                            x       y       z     vdW  Elec       q    Type
REMARK                         _______ _______ _______ _____ _____    ______ ____
ROOT
ATOM      1  C   UNL     1       2.136   7.681  19.008  0.00  0.00    +0.000 A 
ATOM      2  C   UNL     1       2.094   8.420  17.822  0.00  0.00    +0.000 A 
ATOM      3  C   UNL     1       1.531   9.699  17.807  0.00  0.00    +0.000 A 
ATOM      4  C   UNL     1       0.942  10.231  18.962  0.00  0.00    +0.000 A 
ATOM      5  C   UNL     1       0.949   9.461  20.134  0.00  0.00    +0.000 A 
ATOM      6  C   UNL     1       1.557   8.202  20.164  0.00  0.00    +0.000 A 
ENDROOT
BRANCH   4   7
ATOM      7  N   UNL     1       0.344  11.535  18.935  0.00  0.00    +0.000 N 
ATOM      8  C   UNL     1      -0.995  11.829  18.645  0.00  0.00    +0.000 A 
ATOM      9  C   UNL     1      -2.106  10.849  18.455  0.00  0.00    +0.000 C 
ATOM     10  C   UNL     1      -1.144  13.204  18.650  0.00  0.00    +0.000 A 
ATOM     11  C   UNL     1       0.090  13.785  18.987  0.00  0.00    +0.000 A 
ATOM     12  C   UNL     1       0.990  12.759  19.164  0.00  0.00    +0.000 A 
ATOM     13  C   UNL     1       2.442  12.948  19.416  0.00  0.00    +0.000 C 
ATOM     14  C   UNL     1       2.879  14.407  19.585  0.00  0.00    +0.000 C 
ATOM     15  C   UNL     1       1.893  15.561  19.297  0.00  0.00    +0.000 C 
ATOM     16  C   UNL     1       2.397  16.405  18.121  0.00  0.00    +0.000 C 
ATOM     17  C   UNL     1       0.400  15.223  19.134  0.00  0.00    +0.000 C 
ENDBRANCH   4   7
BRANCH   1  19
ATOM     18  N   UNL     1       2.652   5.603  17.882  0.00  0.00    +0.000 N 
ATOM     19  C   UNL     1       2.752   6.328  19.049  0.00  0.00    +0.000 C 
ATOM     20  O   UNL     1       3.309   5.927  20.064  0.00  0.00    +0.000 OA
ATOM     21  H   UNL     1       2.399   6.081  17.030  0.00  0.00    +0.000 HD
BRANCH  18  22
ATOM     22  C   UNL     1       3.192   4.272  17.756  0.00  0.00    +0.000 C 
BRANCH  22  27
ATOM     23  C   UNL     1       6.998   4.515  17.691  0.00  0.00    +0.000 A 
ATOM     24  C   UNL     1       7.243   4.381  16.321  0.00  0.00    +0.000 A 
ATOM     25  C   UNL     1       6.190   4.181  15.428  0.00  0.00    +0.000 A 
ATOM     26  C   UNL     1       4.881   4.133  15.897  0.00  0.00    +0.000 A 
ATOM     27  C   UNL     1       4.614   4.292  17.263  0.00  0.00    +0.000 A 
ATOM     28  C   UNL     1       5.684   4.461  18.160  0.00  0.00    +0.000 A 
BRANCH  23  30
ATOM     29  C   UNL     1       8.073   5.748  19.418  0.00  0.00    +0.000 C 
ATOM     30  O   UNL     1       8.118   4.706  18.454  0.00  0.00    +0.000 OA
ENDBRANCH  23  30
ENDBRANCH  22  27
ENDBRANCH  18  22
ENDBRANCH   1  19
TORSDOF 5
ENDMDL
MODEL 4
REMARK VINA RESULT:      -8.1      5.478      9.963
REMARK  Name = 
REMARK  8 active torsions:
REMARK  status: ('A' for Active; 'I' for Inactive)
REMARK    1  A    between atoms: C_1  and  O_2
REMARK    2  A    between atoms: O_2  and  C_3
REMARK    3  A    between atoms: C_7  and  C_8
REMARK    4  A    between atoms: C_8  and  N_9
REMARK    5  A    between atoms: C_10  and  C_12
REMARK    6  A    between atoms: C_15  and  N_16
REMARK    7  A    between atoms: C_17  and  C_18
REMARK    8  A    between atoms: C_24  and  C_25
REMARK                            x       y       z     vdW  Elec       q    Type
REMARK                         _______ _______ _______ _____ _____    ______ ____
ROOT
ATOM      1  C   UNL     1       8.339   8.754  18.417  0.00  0.00    +0.000 A 
ATOM      2  C   UNL     1       8.561   7.509  19.016  0.00  0.00    +0.000 A 
ATOM      3  C   UNL     1       7.827   6.391  18.613  0.00  0.00    +0.000 A 
ATOM      4  C   UNL     1       6.813   6.513  17.653  0.00  0.00    +0.000 A 
ATOM      5  C   UNL     1       6.568   7.775  17.094  0.00  0.00    +0.000 A 
ATOM      6  C   UNL     1       7.336   8.886  17.458  0.00  0.00    +0.000 A 
ENDROOT
BRANCH   4   7
ATOM      7  N   UNL     1       6.046   5.365  17.260  0.00  0.00    +0.000 N 
ATOM      8  C   UNL     1       6.164   4.661  16.054  0.00  0.00    +0.000 A 
ATOM      9  C   UNL     1       7.203   4.857  15.000  0.00  0.00    +0.000 C 
ATOM     10  C   UNL     1       5.195   3.673  16.038  0.00  0.00    +0.000 A 
ATOM     11  C   UNL     1       4.490   3.720  17.252  0.00  0.00    +0.000 A 
ATOM     12  C   UNL     1       5.020   4.752  17.993  0.00  0.00    +0.000 A 
ATOM     13  C   UNL     1       4.480   5.215  19.298  0.00  0.00    +0.000 C 
ATOM     14  C   UNL     1       3.322   4.375  19.847  0.00  0.00    +0.000 C 
ATOM     15  C   UNL     1       2.667   3.277  18.980  0.00  0.00    +0.000 C 
ATOM     16  C   UNL     1       1.200   3.627  18.704  0.00  0.00    +0.000 C 
ATOM     17  C   UNL     1       3.382   2.842  17.688  0.00  0.00    +0.000 C 
ENDBRANCH   4   7
BRANCH   1  19
ATOM     18  N   UNL     1       9.506  10.774  17.779  0.00  0.00    +0.000 N 
ATOM     19  C   UNL     1       9.126   9.951  18.816  0.00  0.00    +0.000 C 
ATOM     20  O   UNL     1       9.389  10.159  19.994  0.00  0.00    +0.000 OA
ATOM     21  H   UNL     1       9.055  10.669  16.882  0.00  0.00    +0.000 HD
BRANCH  18  22
ATOM     22  C   UNL     1      10.277  11.973  17.993  0.00  0.00    +0.000 C 
BRANCH  22  27
ATOM     23  C   UNL     1       9.200  15.632  17.920  0.00  0.00    +0.000 A 
ATOM     24  C   UNL     1       7.820  15.492  17.748  0.00  0.00    +0.000 A 
ATOM     25  C   UNL     1       7.244  14.227  17.622  0.00  0.00    +0.000 A 
ATOM     26  C   UNL     1       8.044  13.090  17.689  0.00  0.00    +0.000 A 
ATOM     27  C   UNL     1       9.425  13.209  17.889  0.00  0.00    +0.000 A 
ATOM     28  C   UNL     1      10.001  14.489  17.981  0.00  0.00    +0.000 A 
BRANCH  23  30
ATOM     29  C   UNL     1       8.699  17.880  18.512  0.00  0.00    +0.000 C 
ATOM     30  O   UNL     1       9.633  16.925  18.029  0.00  0.00    +0.000 OA
ENDBRANCH  23  30
ENDBRANCH  22  27
ENDBRANCH  18  22
ENDBRANCH   1  19
TORSDOF 5
ENDMDL
MODEL 5
REMARK VINA RESULT:      -8.1      0.893      1.271
REMARK  Name = 
REMARK  8 active torsions:
REMARK  status: ('A' for Active; 'I' for Inactive)
REMARK    1  A    between atoms: C_1  and  O_2
REMARK    2  A    between atoms: O_2  and  C_3
REMARK    3  A    between atoms: C_7  and  C_8
REMARK    4  A    between atoms: C_8  and  N_9
REMARK    5  A    between atoms: C_10  and  C_12
REMARK    6  A    between atoms: C_15  and  N_16
REMARK    7  A    between atoms: C_17  and  C_18
REMARK    8  A    between atoms: C_24  and  C_25
REMARK                            x       y       z     vdW  Elec       q    Type
REMARK                         _______ _______ _______ _____ _____    ______ ____
ROOT
ATOM      1  C   UNL     1       2.472   7.426  18.959  0.00  0.00    +0.000 A 
ATOM      2  C   UNL     1       1.815   7.880  20.108  0.00  0.00    +0.000 A 
ATOM      3  C   UNL     1       1.034   9.038  20.062  0.00  0.00    +0.000 A 
ATOM      4  C   UNL     1       0.951   9.795  18.886  0.00  0.00    +0.000 A 
ATOM      5  C   UNL     1       1.652   9.355  17.754  0.00  0.00    +0.000 A 
ATOM      6  C   UNL     1       2.392   8.169  17.782  0.00  0.00    +0.000 A 
ENDROOT
BRANCH   4   7
ATOM      7  N   UNL     1       0.166  10.997  18.853  0.00  0.00    +0.000 N 
ATOM      8  C   UNL     1      -1.152  11.115  18.392  0.00  0.00    +0.000 A 
ATOM      9  C   UNL     1      -2.063  10.002  17.987  0.00  0.00    +0.000 C 
ATOM     10  C   UNL     1      -1.513  12.448  18.459  0.00  0.00    +0.000 A 
ATOM     11  C   UNL     1      -0.440  13.173  19.004  0.00  0.00    +0.000 A 
ATOM     12  C   UNL     1       0.578  12.278  19.245  0.00  0.00    +0.000 A 
ATOM     13  C   UNL     1       1.936  12.655  19.714  0.00  0.00    +0.000 C 
ATOM     14  C   UNL     1       2.114  14.144  20.032  0.00  0.00    +0.000 C 
ATOM     15  C   UNL     1       1.008  15.162  19.677  0.00  0.00    +0.000 C 
ATOM     16  C   UNL     1       1.526  16.163  18.638  0.00  0.00    +0.000 C 
ATOM     17  C   UNL     1      -0.379  14.625  19.281  0.00  0.00    +0.000 C 
ENDBRANCH   4   7
BRANCH   1  19
ATOM     18  N   UNL     1       4.579   6.322  18.521  0.00  0.00    +0.000 N 
ATOM     19  C   UNL     1       3.289   6.184  18.981  0.00  0.00    +0.000 C 
ATOM     20  O   UNL     1       2.814   5.134  19.398  0.00  0.00    +0.000 OA
ATOM     21  H   UNL     1       4.966   7.250  18.424  0.00  0.00    +0.000 HD
BRANCH  18  22
ATOM     22  C   UNL     1       5.500   5.215  18.471  0.00  0.00    +0.000 C 
BRANCH  22  27
ATOM     23  C   UNL     1       7.110   5.032  15.017  0.00  0.00    +0.000 A 
ATOM     24  C   UNL     1       6.306   4.065  14.408  0.00  0.00    +0.000 A 
ATOM     25  C   UNL     1       5.271   3.451  15.116  0.00  0.00    +0.000 A 
ATOM     26  C   UNL     1       5.021   3.817  16.435  0.00  0.00    +0.000 A 
ATOM     27  C   UNL     1       5.799   4.804  17.055  0.00  0.00    +0.000 A 
ATOM     28  C   UNL     1       6.861   5.392  16.343  0.00  0.00    +0.000 A 
BRANCH  23  30
ATOM     29  C   UNL     1       7.948   5.344  12.813  0.00  0.00    +0.000 C 
ATOM     30  O   UNL     1       8.086   5.551  14.212  0.00  0.00    +0.000 OA
ENDBRANCH  23  30
ENDBRANCH  22  27
ENDBRANCH  18  22
ENDBRANCH   1  19
TORSDOF 5
ENDMDL
MODEL 6
REMARK VINA RESULT:      -8.0      3.160      9.723
REMARK  Name = 
REMARK  8 active torsions:
REMARK  status: ('A' for Active; 'I' for Inactive)
REMARK    1  A    between atoms: C_1  and  O_2
REMARK    2  A    between atoms: O_2  and  C_3
REMARK    3  A    between atoms: C_7  and  C_8
REMARK    4  A    between atoms: C_8  and  N_9
REMARK    5  A    between atoms: C_10  and  C_12
REMARK    6  A    between atoms: C_15  and  N_16
REMARK    7  A    between atoms: C_17  and  C_18
REMARK    8  A    between atoms: C_24  and  C_25
REMARK                            x       y       z     vdW  Elec       q    Type
REMARK                         _______ _______ _______ _____ _____    ______ ____
ROOT
ATOM      1  C   UNL     1       1.108   9.371  20.024  0.00  0.00    +0.000 A 
ATOM      2  C   UNL     1       1.374   9.230  18.658  0.00  0.00    +0.000 A 
ATOM      3  C   UNL     1       1.876   8.027  18.156  0.00  0.00    +0.000 A 
ATOM      4  C   UNL     1       2.183   6.968  19.022  0.00  0.00    +0.000 A 
ATOM      5  C   UNL     1       1.957   7.137  20.395  0.00  0.00    +0.000 A 
ATOM      6  C   UNL     1       1.406   8.322  20.893  0.00  0.00    +0.000 A 
ENDROOT
BRANCH   4   7
ATOM      7  N   UNL     1       2.722   5.743  18.504  0.00  0.00    +0.000 N 
ATOM      8  C   UNL     1       2.327   4.446  18.860  0.00  0.00    +0.000 A 
ATOM      9  C   UNL     1       1.172   4.068  19.728  0.00  0.00    +0.000 C 
ATOM     10  C   UNL     1       3.141   3.550  18.191  0.00  0.00    +0.000 A 
ATOM     11  C   UNL     1       4.026   4.275  17.375  0.00  0.00    +0.000 A 
ATOM     12  C   UNL     1       3.758   5.611  17.569  0.00  0.00    +0.000 A 
ATOM     13  C   UNL     1       4.550   6.722  16.979  0.00  0.00    +0.000 C 
ATOM     14  C   UNL     1       5.658   6.279  16.017  0.00  0.00    +0.000 C 
ATOM     15  C   UNL     1       6.020   4.784  15.869  0.00  0.00    +0.000 C 
ATOM     16  C   UNL     1       7.459   4.540  16.336  0.00  0.00    +0.000 C 
ATOM     17  C   UNL     1       5.062   3.738  16.467  0.00  0.00    +0.000 C 
ENDBRANCH   4   7
BRANCH   1  19
ATOM     18  N   UNL     1      -0.502  11.168  19.864  0.00  0.00    +0.000 N 
ATOM     19  C   UNL     1       0.552  10.635  20.573  0.00  0.00    +0.000 C 
ATOM     20  O   UNL     1       1.018  11.130  21.592  0.00  0.00    +0.000 OA
ATOM     21  H   UNL     1      -0.979  10.590  19.188  0.00  0.00    +0.000 HD
BRANCH  18  22
ATOM     22  C   UNL     1      -1.152  12.393  20.259  0.00  0.00    +0.000 C 
BRANCH  22  27
ATOM     23  C   UNL     1      -4.422  11.853  18.370  0.00  0.00    +0.000 A 
ATOM     24  C   UNL     1      -5.335  12.419  19.266  0.00  0.00    +0.000 A 
ATOM     25  C   UNL     1      -4.903  12.942  20.485  0.00  0.00    +0.000 A 
ATOM     26  C   UNL     1      -3.549  12.920  20.809  0.00  0.00    +0.000 A 
ATOM     27  C   UNL     1      -2.617  12.382  19.913  0.00  0.00    +0.000 A 
ATOM     28  C   UNL     1      -3.066  11.827  18.701  0.00  0.00    +0.000 A 
BRANCH  23  30
ATOM     29  C   UNL     1      -4.086  11.015  16.170  0.00  0.00    +0.000 C 
ATOM     30  O   UNL     1      -4.978  11.378  17.215  0.00  0.00    +0.000 OA
ENDBRANCH  23  30
ENDBRANCH  22  27
ENDBRANCH  18  22
ENDBRANCH   1  19
TORSDOF 5
ENDMDL
MODEL 7
REMARK VINA RESULT:      -8.0      1.036      1.158
REMARK  Name = 
REMARK  8 active torsions:
REMARK  status: ('A' for Active; 'I' for Inactive)
REMARK    1  A    between atoms: C_1  and  O_2
REMARK    2  A    between atoms: O_2  and  C_3
REMARK    3  A    between atoms: C_7  and  C_8
REMARK    4  A    between atoms: C_8  and  N_9
REMARK    5  A    between atoms: C_10  and  C_12
REMARK    6  A    between atoms: C_15  and  N_16
REMARK    7  A    between atoms: C_17  and  C_18
REMARK    8  A    between atoms: C_24  and  C_25
REMARK                            x       y       z     vdW  Elec       q    Type
REMARK                         _______ _______ _______ _____ _____    ______ ____
ROOT
ATOM      1  C   UNL     1       1.800   7.966  19.693  0.00  0.00    +0.000 A 
ATOM      2  C   UNL     1       1.204   8.693  20.729  0.00  0.00    +0.000 A 
ATOM      3  C   UNL     1       0.733   9.989  20.501  0.00  0.00    +0.000 A 
ATOM      4  C   UNL     1       0.910  10.602  19.254  0.00  0.00    +0.000 A 
ATOM      5  C   UNL     1       1.552   9.880  18.237  0.00  0.00    +0.000 A 
ATOM      6  C   UNL     1       1.978   8.565  18.447  0.00  0.00    +0.000 A 
ENDROOT
BRANCH   4   7
ATOM      7  N   UNL     1       0.446  11.942  19.033  0.00  0.00    +0.000 N 
ATOM      8  C   UNL     1      -0.844  12.319  18.634  0.00  0.00    +0.000 A 
ATOM      9  C   UNL     1      -2.037  11.430  18.504  0.00  0.00    +0.000 C 
ATOM     10  C   UNL     1      -0.856  13.691  18.463  0.00  0.00    +0.000 A 
ATOM     11  C   UNL     1       0.413  14.194  18.796  0.00  0.00    +0.000 A 
ATOM     12  C   UNL     1       1.198  13.120  19.147  0.00  0.00    +0.000 A 
ATOM     13  C   UNL     1       2.649  13.204  19.456  0.00  0.00    +0.000 C 
ATOM     14  C   UNL     1       3.220  14.626  19.469  0.00  0.00    +0.000 C 
ATOM     15  C   UNL     1       2.367  15.821  18.988  0.00  0.00    +0.000 C 
ATOM     16  C   UNL     1       3.004  16.458  17.747  0.00  0.00    +0.000 C 
ATOM     17  C   UNL     1       0.857  15.605  18.783  0.00  0.00    +0.000 C 
ENDBRANCH   4   7
BRANCH   1  19
ATOM     18  N   UNL     1       3.386   6.219  19.162  0.00  0.00    +0.000 N 
ATOM     19  C   UNL     1       2.286   6.578  19.909  0.00  0.00    +0.000 C 
ATOM     20  O   UNL     1       1.728   5.840  20.713  0.00  0.00    +0.000 OA
ATOM     21  H   UNL     1       3.927   6.942  18.711  0.00  0.00    +0.000 HD
BRANCH  18  22
ATOM     22  C   UNL     1       3.979   4.908  19.248  0.00  0.00    +0.000 C 
BRANCH  22  27
ATOM     23  C   UNL     1       6.093   4.134  16.168  0.00  0.00    +0.000 A 
ATOM     24  C   UNL     1       7.366   4.466  16.638  0.00  0.00    +0.000 A 
ATOM     25  C   UNL     1       7.539   4.968  17.929  0.00  0.00    +0.000 A 
ATOM     26  C   UNL     1       6.439   5.122  18.767  0.00  0.00    +0.000 A 
ATOM     27  C   UNL     1       5.158   4.769  18.323  0.00  0.00    +0.000 A 
ATOM     28  C   UNL     1       4.990   4.295  17.009  0.00  0.00    +0.000 A 
BRANCH  23  30
ATOM     29  C   UNL     1       6.719   4.431  13.893  0.00  0.00    +0.000 C 
ATOM     30  O   UNL     1       6.065   3.654  14.887  0.00  0.00    +0.000 OA
ENDBRANCH  23  30
ENDBRANCH  22  27
ENDBRANCH  18  22
ENDBRANCH   1  19
TORSDOF 5
ENDMDL
MODEL 8
REMARK VINA RESULT:      -8.0      0.589      1.109
REMARK  Name = 
REMARK  8 active torsions:
REMARK  status: ('A' for Active; 'I' for Inactive)
REMARK    1  A    between atoms: C_1  and  O_2
REMARK    2  A    between atoms: O_2  and  C_3
REMARK    3  A    between atoms: C_7  and  C_8
REMARK    4  A    between atoms: C_8  and  N_9
REMARK    5  A    between atoms: C_10  and  C_12
REMARK    6  A    between atoms: C_15  and  N_16
REMARK    7  A    between atoms: C_17  and  C_18
REMARK    8  A    between atoms: C_24  and  C_25
REMARK                            x       y       z     vdW  Elec       q    Type
REMARK                         _______ _______ _______ _____ _____    ______ ____
ROOT
ATOM      1  C   UNL     1       2.162   7.512  19.365  0.00  0.00    +0.000 A 
ATOM      2  C   UNL     1       2.117   8.167  18.130  0.00  0.00    +0.000 A 
ATOM      3  C   UNL     1       1.474   9.401  18.009  0.00  0.00    +0.000 A 
ATOM      4  C   UNL     1       0.807   9.968  19.105  0.00  0.00    +0.000 A 
ATOM      5  C   UNL     1       0.819   9.278  20.326  0.00  0.00    +0.000 A 
ATOM      6  C   UNL     1       1.506   8.068  20.463  0.00  0.00    +0.000 A 
ENDROOT
BRANCH   4   7
ATOM      7  N   UNL     1       0.128  11.224  18.968  0.00  0.00    +0.000 N 
ATOM      8  C   UNL     1      -1.169  11.417  18.473  0.00  0.00    +0.000 A 
ATOM      9  C   UNL     1      -2.164  10.356  18.130  0.00  0.00    +0.000 C 
ATOM     10  C   UNL     1      -1.417  12.777  18.436  0.00  0.00    +0.000 A 
ATOM     11  C   UNL     1      -0.295  13.449  18.949  0.00  0.00    +0.000 A 
ATOM     12  C   UNL     1       0.640  12.492  19.275  0.00  0.00    +0.000 A 
ATOM     13  C   UNL     1       2.018  12.789  19.744  0.00  0.00    +0.000 C 
ATOM     14  C   UNL     1       2.316  14.277  19.957  0.00  0.00    +0.000 C 
ATOM     15  C   UNL     1       1.306  15.354  19.506  0.00  0.00    +0.000 C 
ATOM     16  C   UNL     1       1.921  16.230  18.408  0.00  0.00    +0.000 C 
ATOM     17  C   UNL     1      -0.116  14.907  19.121  0.00  0.00    +0.000 C 
ENDBRANCH   4   7
BRANCH   1  19
ATOM     18  N   UNL     1       3.801   5.930  18.552  0.00  0.00    +0.000 N 
ATOM     19  C   UNL     1       2.862   6.209  19.520  0.00  0.00    +0.000 C 
ATOM     20  O   UNL     1       2.602   5.470  20.461  0.00  0.00    +0.000 OA
ATOM     21  H   UNL     1       4.127   6.678  17.957  0.00  0.00    +0.000 HD
BRANCH  18  22
ATOM     22  C   UNL     1       4.565   4.708  18.552  0.00  0.00    +0.000 C 
BRANCH  22  27
ATOM     23  C   UNL     1       5.668   4.245  14.929  0.00  0.00    +0.000 A 
ATOM     24  C   UNL     1       7.056   4.326  15.069  0.00  0.00    +0.000 A 
ATOM     25  C   UNL     1       7.633   4.561  16.318  0.00  0.00    +0.000 A 
ATOM     26  C   UNL     1       6.822   4.698  17.442  0.00  0.00    +0.000 A 
ATOM     27  C   UNL     1       5.430   4.592  17.326  0.00  0.00    +0.000 A 
ATOM     28  C   UNL     1       4.858   4.388  16.057  0.00  0.00    +0.000 A 
BRANCH  23  30
ATOM     29  C   UNL     1       6.205   3.560  12.715  0.00  0.00    +0.000 C 
ATOM     30  O   UNL     1       5.237   4.012  13.652  0.00  0.00    +0.000 OA
ENDBRANCH  23  30
ENDBRANCH  22  27
ENDBRANCH  18  22
ENDBRANCH   1  19
TORSDOF 5
ENDMDL
MODEL 9
REMARK VINA RESULT:      -8.0      0.811      1.306
REMARK  Name = 
REMARK  8 active torsions:
REMARK  status: ('A' for Active; 'I' for Inactive)
REMARK    1  A    between atoms: C_1  and  O_2
REMARK    2  A    between atoms: O_2  and  C_3
REMARK    3  A    between atoms: C_7  and  C_8
REMARK    4  A    between atoms: C_8  and  N_9
REMARK    5  A    between atoms: C_10  and  C_12
REMARK    6  A    between atoms: C_15  and  N_16
REMARK    7  A    between atoms: C_17  and  C_18
REMARK    8  A    between atoms: C_24  and  C_25
REMARK                            x       y       z     vdW  Elec       q    Type
REMARK                         _______ _______ _______ _____ _____    ______ ____
ROOT
ATOM      1  C   UNL     1       1.981   8.037  19.086  0.00  0.00    +0.000 A 
ATOM      2  C   UNL     1       2.055   8.770  17.897  0.00  0.00    +0.000 A 
ATOM      3  C   UNL     1       1.621  10.098  17.858  0.00  0.00    +0.000 A 
ATOM      4  C   UNL     1       1.044  10.691  18.989  0.00  0.00    +0.000 A 
ATOM      5  C   UNL     1       0.932   9.931  20.162  0.00  0.00    +0.000 A 
ATOM      6  C   UNL     1       1.413   8.619  20.218  0.00  0.00    +0.000 A 
ENDROOT
BRANCH   4   7
ATOM      7  N   UNL     1       0.578  12.048  18.937  0.00  0.00    +0.000 N 
ATOM      8  C   UNL     1      -0.754  12.463  18.798  0.00  0.00    +0.000 A 
ATOM      9  C   UNL     1      -1.970  11.597  18.830  0.00  0.00    +0.000 C 
ATOM     10  C   UNL     1      -0.766  13.844  18.715  0.00  0.00    +0.000 A 
ATOM     11  C   UNL     1       0.553  14.310  18.845  0.00  0.00    +0.000 A 
ATOM     12  C   UNL     1       1.364  13.207  18.985  0.00  0.00    +0.000 A 
ATOM     13  C   UNL     1       2.848  13.256  19.035  0.00  0.00    +0.000 C 
ATOM     14  C   UNL     1       3.444  14.668  19.032  0.00  0.00    +0.000 C 
ATOM     15  C   UNL     1       2.546  15.900  18.783  0.00  0.00    +0.000 C 
ATOM     16  C   UNL     1       2.966  16.608  17.490  0.00  0.00    +0.000 C 
ATOM     17  C   UNL     1       1.019  15.714  18.838  0.00  0.00    +0.000 C 
ENDBRANCH   4   7
BRANCH   1  19
ATOM     18  N   UNL     1       2.930   6.115  17.966  0.00  0.00    +0.000 N 
ATOM     19  C   UNL     1       2.460   6.631  19.153  0.00  0.00    +0.000 C 
ATOM     20  O   UNL     1       2.432   6.013  20.210  0.00  0.00    +0.000 OA
ATOM     21  H   UNL     1       3.143   6.747  17.208  0.00  0.00    +0.000 HD
BRANCH  18  22
ATOM     22  C   UNL     1       3.425   4.766  17.857  0.00  0.00    +0.000 C 
BRANCH  22  27
ATOM     23  C   UNL     1       6.470   4.681  15.560  0.00  0.00    +0.000 A 
ATOM     24  C   UNL     1       7.502   4.618  16.501  0.00  0.00    +0.000 A 
ATOM     25  C   UNL     1       7.220   4.636  17.868  0.00  0.00    +0.000 A 
ATOM     26  C   UNL     1       5.900   4.696  18.303  0.00  0.00    +0.000 A 
ATOM     27  C   UNL     1       4.851   4.733  17.376  0.00  0.00    +0.000 A 
ATOM     28  C   UNL     1       5.146   4.748  16.001  0.00  0.00    +0.000 A 
BRANCH  23  30
ATOM     29  C   UNL     1       6.213   3.759  13.383  0.00  0.00    +0.000 C 
ATOM     30  O   UNL     1       6.884   4.656  14.257  0.00  0.00    +0.000 OA
ENDBRANCH  23  30
ENDBRANCH  22  27
ENDBRANCH  18  22
ENDBRANCH   1  19
TORSDOF 5
ENDMDL
