MODEL 1
REMARK VINA RESULT:      -8.2      0.000      0.000
REMARK  Name = 
REMARK  5 active torsions:
REMARK  status: ('A' for Active; 'I' for Inactive)
REMARK    1  A    between atoms: C_1  and  O_2
REMARK    2  A    between atoms: O_2  and  C_3
REMARK    3  A    between atoms: C_6  and  C_7
REMARK    4  A    between atoms: C_9  and  C_10
REMARK    5  A    between atoms: C_20  and  C_21
REMARK                            x       y       z     vdW  Elec       q    Type
REMARK                         _______ _______ _______ _____ _____    ______ ____
ROOT
ATOM      1  C   UNL     1       3.671   5.413  17.933  0.00  0.00    +0.000 A 
ATOM      2  C   UNL     1       3.361   4.462  18.888  0.00  0.00    +0.000 A 
ATOM      3  C   UNL     1       2.554   4.856  19.938  0.00  0.00    +0.000 A 
ATOM      4  N   UNL     1       2.093   6.128  20.038  0.00  0.00    +0.000 NA
ATOM      5  C   UNL     1       2.411   6.990  19.057  0.00  0.00    +0.000 A 
ATOM      6  N   UNL     1       1.890   8.316  19.122  0.00  0.00    +0.000 N 
ATOM      7  C   UNL     1       2.003   9.269  18.130  0.00  0.00    +0.000 A 
ATOM      8  C   UNL     1       1.304  10.362  18.573  0.00  0.00    +0.000 A 
ATOM      9  N   UNL     1       0.797  10.138  19.821  0.00  0.00    +0.000 NA
ATOM     10  C   UNL     1       1.173   8.914  20.150  0.00  0.00    +0.000 A 
ATOM     11  C   UNL     1       0.902   8.284  21.470  0.00  0.00    +0.000 C 
ATOM     12  N   UNL     1       3.178   6.668  17.999  0.00  0.00    +0.000 NA
ENDROOT
BRANCH   1  16
ATOM     13  C   UNL     1       6.236   4.571  14.569  0.00  0.00    +0.000 A 
ATOM     14  C   UNL     1       5.745   3.536  15.362  0.00  0.00    +0.000 A 
ATOM     15  C   UNL     1       4.908   3.811  16.450  0.00  0.00    +0.000 A 
ATOM     16  C   UNL     1       4.560   5.131  16.789  0.00  0.00    +0.000 A 
ATOM     17  C   UNL     1       5.081   6.160  15.983  0.00  0.00    +0.000 A 
ATOM     18  C   UNL     1       5.913   5.886  14.890  0.00  0.00    +0.000 A 
BRANCH  13  20
ATOM     19  C   UNL     1       6.385   3.540  12.449  0.00  0.00    +0.000 C 
ATOM     20  O   UNL     1       7.043   4.187  13.534  0.00  0.00    +0.000 OA
ENDBRANCH  13  20
ENDBRANCH   1  16
BRANCH   3  21
ATOM     21  C   UNL     1       2.161   3.854  21.014  0.00  0.00    +0.000 C 
ATOM     22  F   UNL     1       2.818   2.662  20.903  0.00  0.00    +0.000 F 
ATOM     23  F   UNL     1       2.425   4.301  22.273  0.00  0.00    +0.000 F 
ATOM     24  F   UNL     1       0.835   3.544  20.988  0.00  0.00    +0.000 F 
ENDBRANCH   3  21
TORSDOF 3
ENDMDL
MODEL 2
REMARK VINA RESULT:      -8.2      0.105      1.258
REMARK  Name = 
REMARK  5 active torsions:
REMARK  status: ('A' for Active; 'I' for Inactive)
REMARK    1  A    between atoms: C_1  and  O_2
REMARK    2  A    between atoms: O_2  and  C_3
REMARK    3  A    between atoms: C_6  and  C_7
REMARK    4  A    between atoms: C_9  and  C_10
REMARK    5  A    between atoms: C_20  and  C_21
REMARK                            x       y       z     vdW  Elec       q    Type
REMARK                         _______ _______ _______ _____ _____    ______ ____
ROOT
ATOM      1  C   UNL     1       3.687   5.416  17.900  0.00  0.00    +0.000 A 
ATOM      2  C   UNL     1       3.371   4.468  18.856  0.00  0.00    +0.000 A 
ATOM      3  C   UNL     1       2.561   4.867  19.902  0.00  0.00    +0.000 A 
ATOM      4  N   UNL     1       2.106   6.141  19.999  0.00  0.00    +0.000 NA
ATOM      5  C   UNL     1       2.430   7.000  19.018  0.00  0.00    +0.000 A 
ATOM      6  N   UNL     1       1.914   8.328  19.078  0.00  0.00    +0.000 N 
ATOM      7  C   UNL     1       2.035   9.280  18.085  0.00  0.00    +0.000 A 
ATOM      8  C   UNL     1       1.339  10.376  18.524  0.00  0.00    +0.000 A 
ATOM      9  N   UNL     1       0.826  10.156  19.770  0.00  0.00    +0.000 NA
ATOM     10  C   UNL     1       1.197   8.931  20.103  0.00  0.00    +0.000 A 
ATOM     11  C   UNL     1       0.918   8.304  21.423  0.00  0.00    +0.000 C 
ATOM     12  N   UNL     1       3.199   6.673  17.962  0.00  0.00    +0.000 NA
ENDROOT
BRANCH   1  16
ATOM     13  C   UNL     1       6.324   4.595  14.586  0.00  0.00    +0.000 A 
ATOM     14  C   UNL     1       5.921   5.899  14.865  0.00  0.00    +0.000 A 
ATOM     15  C   UNL     1       5.070   6.163  15.944  0.00  0.00    +0.000 A 
ATOM     16  C   UNL     1       4.579   5.128  16.759  0.00  0.00    +0.000 A 
ATOM     17  C   UNL     1       4.987   3.817  16.448  0.00  0.00    +0.000 A 
ATOM     18  C   UNL     1       5.844   3.552  15.373  0.00  0.00    +0.000 A 
BRANCH  13  20
ATOM     19  C   UNL     1       6.609   3.754  12.397  0.00  0.00    +0.000 C 
ATOM     20  O   UNL     1       7.156   4.453  13.510  0.00  0.00    +0.000 OA
ENDBRANCH  13  20
ENDBRANCH   1  16
BRANCH   3  21
ATOM     21  C   UNL     1       2.160   3.869  20.978  0.00  0.00    +0.000 C 
ATOM     22  F   UNL     1       0.818   3.617  21.003  0.00  0.00    +0.000 F 
ATOM     23  F   UNL     1       2.757   2.654  20.819  0.00  0.00    +0.000 F 
ATOM     24  F   UNL     1       2.477   4.289  22.234  0.00  0.00    +0.000 F 
ENDBRANCH   3  21
TORSDOF 3
ENDMDL
MODEL 3
REMARK VINA RESULT:      -8.0      3.224      6.847
REMARK  Name = 
REMARK  5 active torsions:
REMARK  status: ('A' for Active; 'I' for Inactive)
REMARK    1  A    between atoms: C_1  and  O_2
REMARK    2  A    between atoms: O_2  and  C_3
REMARK    3  A    between atoms: C_6  and  C_7
REMARK    4  A    between atoms: C_9  and  C_10
REMARK    5  A    between atoms: C_20  and  C_21
REMARK                            x       y       z     vdW  Elec       q    Type
REMARK                         _______ _______ _______ _____ _____    ______ ____
ROOT
ATOM      1  C   UNL     1       1.962   6.919  20.144  0.00  0.00    +0.000 A 
ATOM      2  C   UNL     1       1.668   5.739  20.803  0.00  0.00    +0.000 A 
ATOM      3  C   UNL     1       2.194   4.573  20.283  0.00  0.00    +0.000 A 
ATOM      4  N   UNL     1       2.957   4.578  19.162  0.00  0.00    +0.000 NA
ATOM      5  C   UNL     1       3.225   5.765  18.591  0.00  0.00    +0.000 A 
ATOM      6  N   UNL     1       4.070   5.792  17.442  0.00  0.00    +0.000 N 
ATOM      7  C   UNL     1       4.553   6.932  16.831  0.00  0.00    +0.000 A 
ATOM      8  C   UNL     1       5.374   6.501  15.821  0.00  0.00    +0.000 A 
ATOM      9  N   UNL     1       5.385   5.137  15.756  0.00  0.00    +0.000 NA
ATOM     10  C   UNL     1       4.581   4.722  16.720  0.00  0.00    +0.000 A 
ATOM     11  C   UNL     1       4.236   3.295  16.963  0.00  0.00    +0.000 C 
ATOM     12  N   UNL     1       2.760   6.940  19.055  0.00  0.00    +0.000 NA
ENDROOT
BRANCH   1  16
ATOM     13  C   UNL     1       0.426  10.744  21.415  0.00  0.00    +0.000 A 
ATOM     14  C   UNL     1       0.644   9.725  22.339  0.00  0.00    +0.000 A 
ATOM     15  C   UNL     1       1.148   8.487  21.925  0.00  0.00    +0.000 A 
ATOM     16  C   UNL     1       1.424   8.225  20.572  0.00  0.00    +0.000 A 
ATOM     17  C   UNL     1       1.180   9.264  19.654  0.00  0.00    +0.000 A 
ATOM     18  C   UNL     1       0.683  10.506  20.068  0.00  0.00    +0.000 A 
BRANCH  13  20
ATOM     19  C   UNL     1      -1.150  11.772  22.842  0.00  0.00    +0.000 C 
ATOM     20  O   UNL     1      -0.067  11.911  21.929  0.00  0.00    +0.000 OA
ENDBRANCH  13  20
ENDBRANCH   1  16
BRANCH   3  21
ATOM     21  C   UNL     1       1.924   3.243  20.971  0.00  0.00    +0.000 C 
ATOM     22  F   UNL     1       2.478   3.160  22.217  0.00  0.00    +0.000 F 
ATOM     23  F   UNL     1       0.594   3.000  21.147  0.00  0.00    +0.000 F 
ATOM     24  F   UNL     1       2.419   2.179  20.280  0.00  0.00    +0.000 F 
ENDBRANCH   3  21
TORSDOF 3
ENDMDL
MODEL 4
REMARK VINA RESULT:      -8.0      3.268      6.779
REMARK  Name = 
REMARK  5 active torsions:
REMARK  status: ('A' for Active; 'I' for Inactive)
REMARK    1  A    between atoms: C_1  and  O_2
REMARK    2  A    between atoms: O_2  and  C_3
REMARK    3  A    between atoms: C_6  and  C_7
REMARK    4  A    between atoms: C_9  and  C_10
REMARK    5  A    between atoms: C_20  and  C_21
REMARK                            x       y       z     vdW  Elec       q    Type
REMARK                         _______ _______ _______ _____ _____    ______ ____
ROOT
ATOM      1  C   UNL     1       2.485   6.455  19.083  0.00  0.00    +0.000 A 
ATOM      2  C   UNL     1       1.907   5.199  19.077  0.00  0.00    +0.000 A 
ATOM      3  C   UNL     1       2.578   4.195  18.405  0.00  0.00    +0.000 A 
ATOM      4  N   UNL     1       3.749   4.432  17.764  0.00  0.00    +0.000 NA
ATOM      5  C   UNL     1       4.266   5.670  17.837  0.00  0.00    +0.000 A 
ATOM      6  N   UNL     1       5.523   5.921  17.213  0.00  0.00    +0.000 N 
ATOM      7  C   UNL     1       6.250   7.090  17.319  0.00  0.00    +0.000 A 
ATOM      8  C   UNL     1       7.415   6.875  16.629  0.00  0.00    +0.000 A 
ATOM      9  N   UNL     1       7.420   5.633  16.064  0.00  0.00    +0.000 NA
ATOM     10  C   UNL     1       6.270   5.076  16.402  0.00  0.00    +0.000 A 
ATOM     11  C   UNL     1       5.819   3.738  15.932  0.00  0.00    +0.000 C 
ATOM     12  N   UNL     1       3.674   6.689  18.489  0.00  0.00    +0.000 NA
ENDROOT
BRANCH   1  16
ATOM     13  C   UNL     1       0.655   9.868  20.984  0.00  0.00    +0.000 A 
ATOM     14  C   UNL     1       0.898   8.700  21.705  0.00  0.00    +0.000 A 
ATOM     15  C   UNL     1       1.497   7.596  21.087  0.00  0.00    +0.000 A 
ATOM     16  C   UNL     1       1.847   7.621  19.726  0.00  0.00    +0.000 A 
ATOM     17  C   UNL     1       1.577   8.805  19.014  0.00  0.00    +0.000 A 
ATOM     18  C   UNL     1       0.984   9.913  19.633  0.00  0.00    +0.000 A 
BRANCH  13  20
ATOM     19  C   UNL     1      -0.669  10.486  22.840  0.00  0.00    +0.000 C 
ATOM     20  O   UNL     1       0.068  10.882  21.688  0.00  0.00    +0.000 OA
ENDBRANCH  13  20
ENDBRANCH   1  16
BRANCH   3  21
ATOM     21  C   UNL     1       2.006   2.785  18.375  0.00  0.00    +0.000 C 
ATOM     22  F   UNL     1       2.359   2.039  19.463  0.00  0.00    +0.000 F 
ATOM     23  F   UNL     1       0.643   2.769  18.348  0.00  0.00    +0.000 F 
ATOM     24  F   UNL     1       2.418   2.070  17.291  0.00  0.00    +0.000 F 
ENDBRANCH   3  21
TORSDOF 3
ENDMDL
MODEL 5
REMARK VINA RESULT:      -7.9      3.264      6.801
REMARK  Name = 
REMARK  5 active torsions:
REMARK  status: ('A' for Active; 'I' for Inactive)
REMARK    1  A    between atoms: C_1  and  O_2
REMARK    2  A    between atoms: O_2  and  C_3
REMARK    3  A    between atoms: C_6  and  C_7
REMARK    4  A    between atoms: C_9  and  C_10
REMARK    5  A    between atoms: C_20  and  C_21
REMARK                            x       y       z     vdW  Elec       q    Type
REMARK                         _______ _______ _______ _____ _____    ______ ____
ROOT
ATOM      1  C   UNL     1       2.497   6.438  19.061  0.00  0.00    +0.000 A 
ATOM      2  C   UNL     1       1.914   5.185  19.051  0.00  0.00    +0.000 A 
ATOM      3  C   UNL     1       2.578   4.181  18.373  0.00  0.00    +0.000 A 
ATOM      4  N   UNL     1       3.749   4.415  17.729  0.00  0.00    +0.000 NA
ATOM      5  C   UNL     1       4.271   5.651  17.806  0.00  0.00    +0.000 A 
ATOM      6  N   UNL     1       5.527   5.899  17.178  0.00  0.00    +0.000 N 
ATOM      7  C   UNL     1       6.260   7.065  17.287  0.00  0.00    +0.000 A 
ATOM      8  C   UNL     1       7.421   6.848  16.592  0.00  0.00    +0.000 A 
ATOM      9  N   UNL     1       7.419   5.608  16.021  0.00  0.00    +0.000 NA
ATOM     10  C   UNL     1       6.267   5.055  16.361  0.00  0.00    +0.000 A 
ATOM     11  C   UNL     1       5.809   3.720  15.888  0.00  0.00    +0.000 C 
ATOM     12  N   UNL     1       3.686   6.670  18.463  0.00  0.00    +0.000 NA
ENDROOT
BRANCH   1  16
ATOM     13  C   UNL     1       0.620   9.840  20.936  0.00  0.00    +0.000 A 
ATOM     14  C   UNL     1       0.995   9.886  19.594  0.00  0.00    +0.000 A 
ATOM     15  C   UNL     1       1.598   8.779  18.987  0.00  0.00    +0.000 A 
ATOM     16  C   UNL     1       1.867   7.604  19.710  0.00  0.00    +0.000 A 
ATOM     17  C   UNL     1       1.495   7.586  21.068  0.00  0.00    +0.000 A 
ATOM     18  C   UNL     1       0.884   8.691  21.675  0.00  0.00    +0.000 A 
BRANCH  13  20
ATOM     19  C   UNL     1      -0.711  10.816  22.625  0.00  0.00    +0.000 C 
ATOM     20  O   UNL     1       0.038  10.976  21.424  0.00  0.00    +0.000 OA
ENDBRANCH  13  20
ENDBRANCH   1  16
BRANCH   3  21
ATOM     21  C   UNL     1       2.000   2.774  18.339  0.00  0.00    +0.000 C 
ATOM     22  F   UNL     1       2.397   2.056  17.246  0.00  0.00    +0.000 F 
ATOM     23  F   UNL     1       2.365   2.027  19.418  0.00  0.00    +0.000 F 
ATOM     24  F   UNL     1       0.638   2.762  18.308  0.00  0.00    +0.000 F 
ENDBRANCH   3  21
TORSDOF 3
ENDMDL
MODEL 6
REMARK VINA RESULT:      -7.9      3.182      6.869
REMARK  Name = 
REMARK  5 active torsions:
REMARK  status: ('A' for Active; 'I' for Inactive)
REMARK    1  A    between atoms: C_1  and  O_2
REMARK    2  A    between atoms: O_2  and  C_3
REMARK    3  A    between atoms: C_6  and  C_7
REMARK    4  A    between atoms: C_9  and  C_10
REMARK    5  A    between atoms: C_20  and  C_21
REMARK                            x       y       z     vdW  Elec       q    Type
REMARK                         _______ _______ _______ _____ _____    ______ ____
ROOT
ATOM      1  C   UNL     1       1.967   6.980  20.096  0.00  0.00    +0.000 A 
ATOM      2  C   UNL     1       1.692   5.817  20.792  0.00  0.00    +0.000 A 
ATOM      3  C   UNL     1       2.229   4.642  20.303  0.00  0.00    +0.000 A 
ATOM      4  N   UNL     1       2.984   4.623  19.177  0.00  0.00    +0.000 NA
ATOM      5  C   UNL     1       3.234   5.796  18.569  0.00  0.00    +0.000 A 
ATOM      6  N   UNL     1       4.070   5.798  17.413  0.00  0.00    +0.000 N 
ATOM      7  C   UNL     1       4.535   6.925  16.765  0.00  0.00    +0.000 A 
ATOM      8  C   UNL     1       5.355   6.475  15.763  0.00  0.00    +0.000 A 
ATOM      9  N   UNL     1       5.381   5.110  15.738  0.00  0.00    +0.000 NA
ATOM     10  C   UNL     1       4.589   4.714  16.719  0.00  0.00    +0.000 A 
ATOM     11  C   UNL     1       4.263   3.291  17.007  0.00  0.00    +0.000 C 
ATOM     12  N   UNL     1       2.757   6.978  19.001  0.00  0.00    +0.000 NA
ENDROOT
BRANCH   1  16
ATOM     13  C   UNL     1       0.323  10.805  21.225  0.00  0.00    +0.000 A 
ATOM     14  C   UNL     1       0.653  10.538  19.897  0.00  0.00    +0.000 A 
ATOM     15  C   UNL     1       1.181   9.294  19.533  0.00  0.00    +0.000 A 
ATOM     16  C   UNL     1       1.416   8.291  20.489  0.00  0.00    +0.000 A 
ATOM     17  C   UNL     1       1.091   8.589  21.826  0.00  0.00    +0.000 A 
ATOM     18  C   UNL     1       0.555   9.831  22.191  0.00  0.00    +0.000 A 
BRANCH  13  20
ATOM     19  C   UNL     1      -1.102  12.140  22.553  0.00  0.00    +0.000 C 
ATOM     20  O   UNL     1      -0.186  12.050  21.466  0.00  0.00    +0.000 OA
ENDBRANCH  13  20
ENDBRANCH   1  16
BRANCH   3  21
ATOM     21  C   UNL     1       1.980   3.329  21.032  0.00  0.00    +0.000 C 
ATOM     22  F   UNL     1       2.240   3.401  22.371  0.00  0.00    +0.000 F 
ATOM     23  F   UNL     1       0.688   2.908  20.933  0.00  0.00    +0.000 F 
ATOM     24  F   UNL     1       2.752   2.309  20.564  0.00  0.00    +0.000 F 
ENDBRANCH   3  21
TORSDOF 3
ENDMDL
MODEL 7
REMARK VINA RESULT:      -7.9      3.958      7.202
REMARK  Name = 
REMARK  5 active torsions:
REMARK  status: ('A' for Active; 'I' for Inactive)
REMARK    1  A    between atoms: C_1  and  O_2
REMARK    2  A    between atoms: O_2  and  C_3
REMARK    3  A    between atoms: C_6  and  C_7
REMARK    4  A    between atoms: C_9  and  C_10
REMARK    5  A    between atoms: C_20  and  C_21
REMARK                            x       y       z     vdW  Elec       q    Type
REMARK                         _______ _______ _______ _____ _____    ______ ____
ROOT
ATOM      1  C   UNL     1       2.474   7.667  18.701  0.00  0.00    +0.000 A 
ATOM      2  C   UNL     1       3.363   7.602  17.644  0.00  0.00    +0.000 A 
ATOM      3  C   UNL     1       4.044   6.413  17.460  0.00  0.00    +0.000 A 
ATOM      4  N   UNL     1       3.860   5.356  18.290  0.00  0.00    +0.000 NA
ATOM      5  C   UNL     1       2.958   5.483  19.278  0.00  0.00    +0.000 A 
ATOM      6  N   UNL     1       2.716   4.362  20.126  0.00  0.00    +0.000 N 
ATOM      7  C   UNL     1       1.727   4.284  21.086  0.00  0.00    +0.000 A 
ATOM      8  C   UNL     1       1.804   3.019  21.608  0.00  0.00    +0.000 A 
ATOM      9  N   UNL     1       2.831   2.323  21.037  0.00  0.00    +0.000 NA
ATOM     10  C   UNL     1       3.386   3.146  20.164  0.00  0.00    +0.000 A 
ATOM     11  C   UNL     1       4.598   2.823  19.365  0.00  0.00    +0.000 C 
ATOM     12  N   UNL     1       2.249   6.605  19.503  0.00  0.00    +0.000 NA
ENDROOT
BRANCH   1  16
ATOM     13  C   UNL     1       0.245  11.241  19.636  0.00  0.00    +0.000 A 
ATOM     14  C   UNL     1       0.981  11.152  18.456  0.00  0.00    +0.000 A 
ATOM     15  C   UNL     1       1.699   9.989  18.152  0.00  0.00    +0.000 A 
ATOM     16  C   UNL     1       1.720   8.893  19.032  0.00  0.00    +0.000 A 
ATOM     17  C   UNL     1       0.983   9.012  20.225  0.00  0.00    +0.000 A 
ATOM     18  C   UNL     1       0.258  10.172  20.527  0.00  0.00    +0.000 A 
BRANCH  13  20
ATOM     19  C   UNL     1      -0.633  13.204  18.660  0.00  0.00    +0.000 C 
ATOM     20  O   UNL     1      -0.418  12.421  19.829  0.00  0.00    +0.000 OA
ENDBRANCH  13  20
ENDBRANCH   1  16
BRANCH   3  21
ATOM     21  C   UNL     1       5.023   6.268  16.305  0.00  0.00    +0.000 C 
ATOM     22  F   UNL     1       6.313   6.546  16.657  0.00  0.00    +0.000 F 
ATOM     23  F   UNL     1       5.049   5.007  15.790  0.00  0.00    +0.000 F 
ATOM     24  F   UNL     1       4.741   7.101  15.265  0.00  0.00    +0.000 F 
ENDBRANCH   3  21
TORSDOF 3
ENDMDL
MODEL 8
REMARK VINA RESULT:      -7.8      3.957      7.222
REMARK  Name = 
REMARK  5 active torsions:
REMARK  status: ('A' for Active; 'I' for Inactive)
REMARK    1  A    between atoms: C_1  and  O_2
REMARK    2  A    between atoms: O_2  and  C_3
REMARK    3  A    between atoms: C_6  and  C_7
REMARK    4  A    between atoms: C_9  and  C_10
REMARK    5  A    between atoms: C_20  and  C_21
REMARK                            x       y       z     vdW  Elec       q    Type
REMARK                         _______ _______ _______ _____ _____    ______ ____
ROOT
ATOM      1  C   UNL     1       2.495   7.622  18.690  0.00  0.00    +0.000 A 
ATOM      2  C   UNL     1       3.381   7.542  17.632  0.00  0.00    +0.000 A 
ATOM      3  C   UNL     1       4.054   6.348  17.455  0.00  0.00    +0.000 A 
ATOM      4  N   UNL     1       3.865   5.299  18.293  0.00  0.00    +0.000 NA
ATOM      5  C   UNL     1       2.967   5.439  19.283  0.00  0.00    +0.000 A 
ATOM      6  N   UNL     1       2.720   4.326  20.140  0.00  0.00    +0.000 N 
ATOM      7  C   UNL     1       1.733   4.262  21.104  0.00  0.00    +0.000 A 
ATOM      8  C   UNL     1       1.804   3.000  21.635  0.00  0.00    +0.000 A 
ATOM      9  N   UNL     1       2.825   2.293  21.067  0.00  0.00    +0.000 NA
ATOM     10  C   UNL     1       3.382   3.106  20.186  0.00  0.00    +0.000 A 
ATOM     11  C   UNL     1       4.591   2.769  19.387  0.00  0.00    +0.000 C 
ATOM     12  N   UNL     1       2.266   6.567  19.501  0.00  0.00    +0.000 NA
ENDROOT
BRANCH   1  16
ATOM     13  C   UNL     1       0.345  11.233  19.664  0.00  0.00    +0.000 A 
ATOM     14  C   UNL     1       0.361  10.156  20.548  0.00  0.00    +0.000 A 
ATOM     15  C   UNL     1       1.064   8.988  20.233  0.00  0.00    +0.000 A 
ATOM     16  C   UNL     1       1.750   8.854  19.013  0.00  0.00    +0.000 A 
ATOM     17  C   UNL     1       1.707   9.949  18.128  0.00  0.00    +0.000 A 
ATOM     18  C   UNL     1       1.010  11.121  18.446  0.00  0.00    +0.000 A 
BRANCH  13  20
ATOM     19  C   UNL     1      -1.659  12.044  20.613  0.00  0.00    +0.000 C 
ATOM     20  O   UNL     1      -0.371  12.322  20.074  0.00  0.00    +0.000 OA
ENDBRANCH  13  20
ENDBRANCH   1  16
BRANCH   3  21
ATOM     21  C   UNL     1       5.029   6.188  16.299  0.00  0.00    +0.000 C 
ATOM     22  F   UNL     1       4.971   4.955  15.714  0.00  0.00    +0.000 F 
ATOM     23  F   UNL     1       4.807   7.080  15.293  0.00  0.00    +0.000 F 
ATOM     24  F   UNL     1       6.328   6.352  16.676  0.00  0.00    +0.000 F 
ENDBRANCH   3  21
TORSDOF 3
ENDMDL
