MODEL 1
REMARK VINA RESULT:      -8.6      0.000      0.000
REMARK  Name = 
REMARK  9 active torsions:
REMARK  status: ('A' for Active; 'I' for Inactive)
REMARK    1  A    between atoms: C_1  and  C_2
REMARK    2  A    between atoms: C_4  and  C_5
REMARK    3  A    between atoms: C_5  and  N_6
REMARK    4  A    between atoms: C_5  and  C_19
REMARK    5  A    between atoms: C_7  and  C_9
REMARK    6  A    between atoms: N_11  and  C_12
REMARK    7  A    between atoms: C_26  and  C_27
REMARK    8  A    between atoms: C_27  and  C_28
REMARK    9  A    between atoms: C_28  and  O_29
REMARK                            x       y       z     vdW  Elec       q    Type
REMARK                         _______ _______ _______ _____ _____    ______ ____
ROOT
ATOM      1  C   UNL     1       6.847   5.074  16.740  0.00  0.00    +0.000 C 
ENDROOT
BRANCH   1   2
ATOM      2  C   UNL     1       5.491   4.727  17.454  0.00  0.00    +0.000 C 
ATOM      3  C   UNL     1       4.564   5.958  17.531  0.00  0.00    +0.000 C 
ATOM      4  C   UNL     1       3.309   5.716  18.367  0.00  0.00    +0.000 C 
ATOM      5  C   UNL     1       3.665   5.087  19.705  0.00  0.00    +0.000 C 
ATOM      6  C   UNL     1       4.471   3.812  19.496  0.00  0.00    +0.000 C 
ATOM      7  N   UNL     1       5.709   4.086  18.773  0.00  0.00    +0.000 NA
ATOM      8  H   UNL     1       6.225   3.216  18.638  0.00  0.00    +0.000 HD
ENDBRANCH   1   2
BRANCH   1  12
ATOM      9  C   UNL     1       8.209   5.762  12.047  0.00  0.00    +0.000 C 
ATOM     10  C   UNL     1       7.444   5.042  13.099  0.00  0.00    +0.000 A 
ATOM     11  N   UNL     1       7.602   5.496  14.399  0.00  0.00    +0.000 NA
ATOM     12  C   UNL     1       6.865   4.803  15.242  0.00  0.00    +0.000 A 
ATOM     13  S   UNL     1       5.875   3.610  14.491  0.00  0.00    +0.000 S 
ATOM     14  C   UNL     1       6.584   3.960  12.964  0.00  0.00    +0.000 A 
BRANCH  14  15
ATOM     15  C   UNL     1       6.240   3.120  11.761  0.00  0.00    +0.000 C 
BRANCH  15  16
ATOM     16  C   UNL     1       4.751   2.797  11.643  0.00  0.00    +0.000 C 
BRANCH  16  17
ATOM     17  O   UNL     1       4.043   3.828  10.967  0.00  0.00    +0.000 OA
ATOM     18  H   UNL     1       4.181   3.683  10.013  0.00  0.00    +0.000 HD
ENDBRANCH  16  17
ENDBRANCH  15  16
ENDBRANCH  14  15
ENDBRANCH   1  12
BRANCH   1  19
ATOM     19  N   UNL     1       7.261   6.452  16.976  0.00  0.00    +0.000 N 
ATOM     20  C   UNL     1       7.842   6.897  18.139  0.00  0.00    +0.000 C 
ATOM     21  O   UNL     1       8.124   6.227  19.121  0.00  0.00    +0.000 OA
ATOM     22  H   UNL     1       7.075   7.152  16.261  0.00  0.00    +0.000 HD
BRANCH  20  23
ATOM     23  C   UNL     1       8.123   8.405  18.108  0.00  0.00    +0.000 C 
ATOM     24  O   UNL     1       7.644   9.033  17.163  0.00  0.00    +0.000 OA
ATOM     25  N   UNL     1       8.917   8.881  19.132  0.00  0.00    +0.000 N 
ATOM     26  H   UNL     1       9.324   8.177  19.743  0.00  0.00    +0.000 HD
BRANCH  25  27
ATOM     27  C   UNL     1       9.328  10.226  19.271  0.00  0.00    +0.000 A 
ATOM     28  C   UNL     1       9.638  11.024  18.165  0.00  0.00    +0.000 A 
ATOM     29  C   UNL     1      10.143  12.318  18.328  0.00  0.00    +0.000 A 
ATOM     30  C   UNL     1      10.334  12.821  19.606  0.00  0.00    +0.000 A 
ATOM     31 CL   UNL     1      11.024  14.384  19.808  0.00  0.00    +0.000 Cl
ATOM     32  C   UNL     1       9.977  12.063  20.719  0.00  0.00    +0.000 A 
ATOM     33  C   UNL     1       9.457  10.769  20.553  0.00  0.00    +0.000 A 
ENDBRANCH  25  27
ENDBRANCH  20  23
ENDBRANCH   1  19
TORSDOF 8
ENDMDL
MODEL 2
REMARK VINA RESULT:      -7.8      1.099      1.389
REMARK  Name = 
REMARK  9 active torsions:
REMARK  status: ('A' for Active; 'I' for Inactive)
REMARK    1  A    between atoms: C_1  and  C_2
REMARK    2  A    between atoms: C_4  and  C_5
REMARK    3  A    between atoms: C_5  and  N_6
REMARK    4  A    between atoms: C_5  and  C_19
REMARK    5  A    between atoms: C_7  and  C_9
REMARK    6  A    between atoms: N_11  and  C_12
REMARK    7  A    between atoms: C_26  and  C_27
REMARK    8  A    between atoms: C_27  and  C_28
REMARK    9  A    between atoms: C_28  and  O_29
REMARK                            x       y       z     vdW  Elec       q    Type
REMARK                         _______ _______ _______ _____ _____    ______ ____
ROOT
ATOM      1  C   UNL     1       6.596   5.282  17.064  0.00  0.00    +0.000 C 
ENDROOT
BRANCH   1   2
ATOM      2  C   UNL     1       5.229   5.056  17.805  0.00  0.00    +0.000 C 
ATOM      3  C   UNL     1       4.809   3.571  17.770  0.00  0.00    +0.000 C 
ATOM      4  C   UNL     1       3.407   3.328  18.324  0.00  0.00    +0.000 C 
ATOM      5  C   UNL     1       2.409   4.299  17.712  0.00  0.00    +0.000 C 
ATOM      6  C   UNL     1       2.868   5.735  17.921  0.00  0.00    +0.000 C 
ATOM      7  N   UNL     1       4.171   5.966  17.304  0.00  0.00    +0.000 NA
ATOM      8  H   UNL     1       4.459   6.930  17.466  0.00  0.00    +0.000 HD
ENDBRANCH   1   2
BRANCH   1  12
ATOM      9  C   UNL     1       8.071   5.520  12.361  0.00  0.00    +0.000 C 
ATOM     10  C   UNL     1       7.202   4.977  13.438  0.00  0.00    +0.000 A 
ATOM     11  N   UNL     1       7.418   5.468  14.715  0.00  0.00    +0.000 NA
ATOM     12  C   UNL     1       6.582   4.935  15.582  0.00  0.00    +0.000 A 
ATOM     13  S   UNL     1       5.428   3.866  14.878  0.00  0.00    +0.000 S 
ATOM     14  C   UNL     1       6.190   4.029  13.344  0.00  0.00    +0.000 A 
BRANCH  14  15
ATOM     15  C   UNL     1       5.731   3.190  12.180  0.00  0.00    +0.000 C 
BRANCH  15  16
ATOM     16  C   UNL     1       6.816   2.272  11.619  0.00  0.00    +0.000 C 
BRANCH  16  17
ATOM     17  O   UNL     1       6.314   0.969  11.354  0.00  0.00    +0.000 OA
ATOM     18  H   UNL     1       5.404   1.082  11.026  0.00  0.00    +0.000 HD
ENDBRANCH  16  17
ENDBRANCH  15  16
ENDBRANCH  14  15
ENDBRANCH   1  12
BRANCH   1  19
ATOM     19  N   UNL     1       7.096   6.642  17.226  0.00  0.00    +0.000 N 
ATOM     20  C   UNL     1       7.874   7.059  18.279  0.00  0.00    +0.000 C 
ATOM     21  O   UNL     1       8.285   6.374  19.205  0.00  0.00    +0.000 OA
ATOM     22  H   UNL     1       6.825   7.351  16.549  0.00  0.00    +0.000 HD
BRANCH  20  23
ATOM     23  C   UNL     1       8.206   8.555  18.201  0.00  0.00    +0.000 C 
ATOM     24  O   UNL     1       7.735   9.171  17.243  0.00  0.00    +0.000 OA
ATOM     25  N   UNL     1       9.029   9.033  19.200  0.00  0.00    +0.000 N 
ATOM     26  H   UNL     1       9.420   8.334  19.826  0.00  0.00    +0.000 HD
BRANCH  25  27
ATOM     27  C   UNL     1       9.487  10.367  19.293  0.00  0.00    +0.000 A 
ATOM     28  C   UNL     1      10.044  11.038  18.200  0.00  0.00    +0.000 A 
ATOM     29  C   UNL     1      10.587  12.319  18.340  0.00  0.00    +0.000 A 
ATOM     30  C   UNL     1      10.567  12.938  19.579  0.00  0.00    +0.000 A 
ATOM     31 CL   UNL     1      11.301  14.483  19.768  0.00  0.00    +0.000 Cl
ATOM     32  C   UNL     1       9.966  12.309  20.668  0.00  0.00    +0.000 A 
ATOM     33  C   UNL     1       9.409  11.028  20.522  0.00  0.00    +0.000 A 
ENDBRANCH  25  27
ENDBRANCH  20  23
ENDBRANCH   1  19
TORSDOF 8
ENDMDL
MODEL 3
REMARK VINA RESULT:      -7.5      5.338      6.577
REMARK  Name = 
REMARK  9 active torsions:
REMARK  status: ('A' for Active; 'I' for Inactive)
REMARK    1  A    between atoms: C_1  and  C_2
REMARK    2  A    between atoms: C_4  and  C_5
REMARK    3  A    between atoms: C_5  and  N_6
REMARK    4  A    between atoms: C_5  and  C_19
REMARK    5  A    between atoms: C_7  and  C_9
REMARK    6  A    between atoms: N_11  and  C_12
REMARK    7  A    between atoms: C_26  and  C_27
REMARK    8  A    between atoms: C_27  and  C_28
REMARK    9  A    between atoms: C_28  and  O_29
REMARK                            x       y       z     vdW  Elec       q    Type
REMARK                         _______ _______ _______ _____ _____    ______ ____
ROOT
ATOM      1  C   UNL     1       3.194   6.135  19.327  0.00  0.00    +0.000 C 
ENDROOT
BRANCH   1   2
ATOM      2  C   UNL     1       2.139   4.971  19.358  0.00  0.00    +0.000 C 
ATOM      3  C   UNL     1       1.952   4.419  20.787  0.00  0.00    +0.000 C 
ATOM      4  C   UNL     1       1.068   3.175  20.841  0.00  0.00    +0.000 C 
ATOM      5  C   UNL     1       1.508   2.155  19.803  0.00  0.00    +0.000 C 
ATOM      6  C   UNL     1       1.532   2.782  18.417  0.00  0.00    +0.000 C 
ATOM      7  N   UNL     1       2.453   3.914  18.368  0.00  0.00    +0.000 NA
ATOM      8  H   UNL     1       2.444   4.321  17.433  0.00  0.00    +0.000 HD
ENDBRANCH   1   2
BRANCH   1  12
ATOM      9  C   UNL     1       7.756   4.612  18.217  0.00  0.00    +0.000 C 
ATOM     10  C   UNL     1       6.442   5.201  17.846  0.00  0.00    +0.000 A 
ATOM     11  N   UNL     1       5.511   5.330  18.864  0.00  0.00    +0.000 NA
ATOM     12  C   UNL     1       4.397   5.880  18.428  0.00  0.00    +0.000 A 
ATOM     13  S   UNL     1       4.446   6.348  16.770  0.00  0.00    +0.000 S 
ATOM     14  C   UNL     1       6.007   5.644  16.603  0.00  0.00    +0.000 A 
BRANCH  14  15
ATOM     15  C   UNL     1       6.662   5.573  15.248  0.00  0.00    +0.000 C 
BRANCH  15  16
ATOM     16  C   UNL     1       6.558   4.200  14.586  0.00  0.00    +0.000 C 
BRANCH  16  17
ATOM     17  O   UNL     1       5.388   4.092  13.786  0.00  0.00    +0.000 OA
ATOM     18  H   UNL     1       5.686   4.048  12.859  0.00  0.00    +0.000 HD
ENDBRANCH  16  17
ENDBRANCH  15  16
ENDBRANCH  14  15
ENDBRANCH   1  12
BRANCH   1  19
ATOM     19  N   UNL     1       2.598   7.415  18.966  0.00  0.00    +0.000 N 
ATOM     20  C   UNL     1       1.781   8.148  19.793  0.00  0.00    +0.000 C 
ATOM     21  O   UNL     1       1.457   7.870  20.938  0.00  0.00    +0.000 OA
ATOM     22  H   UNL     1       2.750   7.784  18.030  0.00  0.00    +0.000 HD
BRANCH  20  23
ATOM     23  C   UNL     1       1.268   9.428  19.119  0.00  0.00    +0.000 C 
ATOM     24  O   UNL     1       0.983   9.341  17.924  0.00  0.00    +0.000 OA
ATOM     25  N   UNL     1       1.221  10.545  19.927  0.00  0.00    +0.000 N 
ATOM     26  H   UNL     1       1.627  10.441  20.854  0.00  0.00    +0.000 HD
BRANCH  25  27
ATOM     27  C   UNL     1       0.818  11.830  19.498  0.00  0.00    +0.000 A 
ATOM     28  C   UNL     1       1.722  12.744  18.946  0.00  0.00    +0.000 A 
ATOM     29  C   UNL     1       1.325  14.046  18.626  0.00  0.00    +0.000 A 
ATOM     30  C   UNL     1       0.015  14.437  18.851  0.00  0.00    +0.000 A 
ATOM     31 CL   UNL     1      -0.455  16.060  18.526  0.00  0.00    +0.000 Cl
ATOM     32  C   UNL     1      -0.914  13.524  19.347  0.00  0.00    +0.000 A 
ATOM     33  C   UNL     1      -0.517  12.212  19.655  0.00  0.00    +0.000 A 
ENDBRANCH  25  27
ENDBRANCH  20  23
ENDBRANCH   1  19
TORSDOF 8
ENDMDL
MODEL 4
REMARK VINA RESULT:      -7.4      8.049     10.586
REMARK  Name = 
REMARK  9 active torsions:
REMARK  status: ('A' for Active; 'I' for Inactive)
REMARK    1  A    between atoms: C_1  and  C_2
REMARK    2  A    between atoms: C_4  and  C_5
REMARK    3  A    between atoms: C_5  and  N_6
REMARK    4  A    between atoms: C_5  and  C_19
REMARK    5  A    between atoms: C_7  and  C_9
REMARK    6  A    between atoms: N_11  and  C_12
REMARK    7  A    between atoms: C_26  and  C_27
REMARK    8  A    between atoms: C_27  and  C_28
REMARK    9  A    between atoms: C_28  and  O_29
REMARK                            x       y       z     vdW  Elec       q    Type
REMARK                         _______ _______ _______ _____ _____    ______ ____
ROOT
ATOM      1  C   UNL     1      -0.660  11.119  19.361  0.00  0.00    +0.000 C 
ENDROOT
BRANCH   1   2
ATOM      2  C   UNL     1       0.001  12.495  19.731  0.00  0.00    +0.000 C 
ATOM      3  C   UNL     1       0.711  13.125  18.514  0.00  0.00    +0.000 C 
ATOM      4  C   UNL     1       1.513  14.376  18.865  0.00  0.00    +0.000 C 
ATOM      5  C   UNL     1       2.398  14.127  20.077  0.00  0.00    +0.000 C 
ATOM      6  C   UNL     1       1.566  13.630  21.251  0.00  0.00    +0.000 C 
ATOM      7  N   UNL     1       0.881  12.384  20.919  0.00  0.00    +0.000 NA
ATOM      8  H   UNL     1       0.324  12.078  21.717  0.00  0.00    +0.000 HD
ENDBRANCH   1   2
BRANCH   1  12
ATOM      9  C   UNL     1      -3.522  10.693  15.362  0.00  0.00    +0.000 C 
ATOM     10  C   UNL     1      -3.305  11.051  16.789  0.00  0.00    +0.000 A 
ATOM     11  N   UNL     1      -2.027  10.859  17.288  0.00  0.00    +0.000 NA
ATOM     12  C   UNL     1      -1.945  11.227  18.551  0.00  0.00    +0.000 A 
ATOM     13  S   UNL     1      -3.398  11.904  19.180  0.00  0.00    +0.000 S 
ATOM     14  C   UNL     1      -4.217  11.553  17.709  0.00  0.00    +0.000 A 
BRANCH  14  15
ATOM     15  C   UNL     1      -5.701  11.790  17.595  0.00  0.00    +0.000 C 
BRANCH  15  16
ATOM     16  C   UNL     1      -6.484  11.391  18.844  0.00  0.00    +0.000 C 
BRANCH  16  17
ATOM     17  O   UNL     1      -7.217  10.189  18.642  0.00  0.00    +0.000 OA
ATOM     18  H   UNL     1      -7.101   9.652  19.446  0.00  0.00    +0.000 HD
ENDBRANCH  16  17
ENDBRANCH  15  16
ENDBRANCH  14  15
ENDBRANCH   1  12
BRANCH   1  19
ATOM     19  N   UNL     1       0.263  10.229  18.667  0.00  0.00    +0.000 N 
ATOM     20  C   UNL     1       1.116   9.356  19.297  0.00  0.00    +0.000 C 
ATOM     21  O   UNL     1       1.216   9.167  20.500  0.00  0.00    +0.000 OA
ATOM     22  H   UNL     1       0.324  10.276  17.652  0.00  0.00    +0.000 HD
BRANCH  20  23
ATOM     23  C   UNL     1       1.999   8.587  18.304  0.00  0.00    +0.000 C 
ATOM     24  O   UNL     1       2.214   9.137  17.223  0.00  0.00    +0.000 OA
ATOM     25  N   UNL     1       2.422   7.344  18.727  0.00  0.00    +0.000 N 
ATOM     26  H   UNL     1       2.024   7.013  19.603  0.00  0.00    +0.000 HD
BRANCH  25  27
ATOM     27  C   UNL     1       3.207   6.457  17.955  0.00  0.00    +0.000 A 
ATOM     28  C   UNL     1       2.894   5.099  17.839  0.00  0.00    +0.000 A 
ATOM     29  C   UNL     1       3.742   4.219  17.159  0.00  0.00    +0.000 A 
ATOM     30  C   UNL     1       4.907   4.701  16.583  0.00  0.00    +0.000 A 
ATOM     31 CL   UNL     1       5.986   3.607  15.809  0.00  0.00    +0.000 Cl
ATOM     32  C   UNL     1       5.207   6.061  16.639  0.00  0.00    +0.000 A 
ATOM     33  C   UNL     1       4.348   6.945  17.311  0.00  0.00    +0.000 A 
ENDBRANCH  25  27
ENDBRANCH  20  23
ENDBRANCH   1  19
TORSDOF 8
ENDMDL
MODEL 5
REMARK VINA RESULT:      -7.3      3.474      5.908
REMARK  Name = 
REMARK  9 active torsions:
REMARK  status: ('A' for Active; 'I' for Inactive)
REMARK    1  A    between atoms: C_1  and  C_2
REMARK    2  A    between atoms: C_4  and  C_5
REMARK    3  A    between atoms: C_5  and  N_6
REMARK    4  A    between atoms: C_5  and  C_19
REMARK    5  A    between atoms: C_7  and  C_9
REMARK    6  A    between atoms: N_11  and  C_12
REMARK    7  A    between atoms: C_26  and  C_27
REMARK    8  A    between atoms: C_27  and  C_28
REMARK    9  A    between atoms: C_28  and  O_29
REMARK                            x       y       z     vdW  Elec       q    Type
REMARK                         _______ _______ _______ _____ _____    ______ ____
ROOT
ATOM      1  C   UNL     1       3.805   6.822  17.703  0.00  0.00    +0.000 C 
ENDROOT
BRANCH   1   2
ATOM      2  C   UNL     1       3.679   5.272  17.927  0.00  0.00    +0.000 C 
ATOM      3  C   UNL     1       2.232   4.786  17.697  0.00  0.00    +0.000 C 
ATOM      4  C   UNL     1       2.022   3.321  18.070  0.00  0.00    +0.000 C 
ATOM      5  C   UNL     1       2.595   3.027  19.448  0.00  0.00    +0.000 C 
ATOM      6  C   UNL     1       4.061   3.432  19.513  0.00  0.00    +0.000 C 
ATOM      7  N   UNL     1       4.225   4.857  19.241  0.00  0.00    +0.000 NA
ATOM      8  H   UNL     1       5.215   5.100  19.281  0.00  0.00    +0.000 HD
ENDBRANCH   1   2
BRANCH   1  12
ATOM      9  C   UNL     1       1.053   8.233  21.549  0.00  0.00    +0.000 C 
ATOM     10  C   UNL     1       1.500   8.364  20.137  0.00  0.00    +0.000 A 
ATOM     11  N   UNL     1       2.463   7.465  19.707  0.00  0.00    +0.000 NA
ATOM     12  C   UNL     1       2.768   7.659  18.441  0.00  0.00    +0.000 A 
ATOM     13  S   UNL     1       1.841   8.894  17.677  0.00  0.00    +0.000 S 
ATOM     14  C   UNL     1       1.087   9.276  19.175  0.00  0.00    +0.000 A 
BRANCH  14  15
ATOM     15  C   UNL     1       0.161  10.460  19.274  0.00  0.00    +0.000 C 
BRANCH  15  16
ATOM     16  C   UNL     1      -0.915  10.491  18.189  0.00  0.00    +0.000 C 
BRANCH  16  17
ATOM     17  O   UNL     1      -1.055  11.790  17.627  0.00  0.00    +0.000 OA
ATOM     18  H   UNL     1      -1.824  11.754  17.030  0.00  0.00    +0.000 HD
ENDBRANCH  16  17
ENDBRANCH  15  16
ENDBRANCH  14  15
ENDBRANCH   1  12
BRANCH   1  19
ATOM     19  N   UNL     1       5.135   7.324  18.029  0.00  0.00    +0.000 N 
ATOM     20  C   UNL     1       6.234   7.183  17.218  0.00  0.00    +0.000 C 
ATOM     21  O   UNL     1       6.270   6.658  16.114  0.00  0.00    +0.000 OA
ATOM     22  H   UNL     1       5.286   7.770  18.931  0.00  0.00    +0.000 HD
BRANCH  20  23
ATOM     23  C   UNL     1       7.503   7.771  17.850  0.00  0.00    +0.000 C 
ATOM     24  O   UNL     1       8.254   6.973  18.413  0.00  0.00    +0.000 OA
ATOM     25  N   UNL     1       7.638   9.140  17.746  0.00  0.00    +0.000 N 
ATOM     26  H   UNL     1       6.840   9.637  17.358  0.00  0.00    +0.000 HD
BRANCH  25  27
ATOM     27  C   UNL     1       8.708   9.886  18.291  0.00  0.00    +0.000 A 
ATOM     28  C   UNL     1       8.981   9.895  19.663  0.00  0.00    +0.000 A 
ATOM     29  C   UNL     1       9.976  10.721  20.194  0.00  0.00    +0.000 A 
ATOM     30  C   UNL     1      10.710  11.539  19.348  0.00  0.00    +0.000 A 
ATOM     31 CL   UNL     1      11.884  12.608  20.009  0.00  0.00    +0.000 Cl
ATOM     32  C   UNL     1      10.491  11.501  17.972  0.00  0.00    +0.000 A 
ATOM     33  C   UNL     1       9.500  10.661  17.439  0.00  0.00    +0.000 A 
ENDBRANCH  25  27
ENDBRANCH  20  23
ENDBRANCH   1  19
TORSDOF 8
ENDMDL
MODEL 6
REMARK VINA RESULT:      -7.3      7.746     10.393
REMARK  Name = 
REMARK  9 active torsions:
REMARK  status: ('A' for Active; 'I' for Inactive)
REMARK    1  A    between atoms: C_1  and  C_2
REMARK    2  A    between atoms: C_4  and  C_5
REMARK    3  A    between atoms: C_5  and  N_6
REMARK    4  A    between atoms: C_5  and  C_19
REMARK    5  A    between atoms: C_7  and  C_9
REMARK    6  A    between atoms: N_11  and  C_12
REMARK    7  A    between atoms: C_26  and  C_27
REMARK    8  A    between atoms: C_27  and  C_28
REMARK    9  A    between atoms: C_28  and  O_29
REMARK                            x       y       z     vdW  Elec       q    Type
REMARK                         _______ _______ _______ _____ _____    ______ ____
ROOT
ATOM      1  C   UNL     1      -0.053  11.140  19.457  0.00  0.00    +0.000 C 
ENDROOT
BRANCH   1   2
ATOM      2  C   UNL     1       0.627  12.532  19.716  0.00  0.00    +0.000 C 
ATOM      3  C   UNL     1       1.279  13.088  18.432  0.00  0.00    +0.000 C 
ATOM      4  C   UNL     1       2.099  14.353  18.672  0.00  0.00    +0.000 C 
ATOM      5  C   UNL     1       3.041  14.170  19.852  0.00  0.00    +0.000 C 
ATOM      6  C   UNL     1       2.266  13.744  21.091  0.00  0.00    +0.000 C 
ATOM      7  N   UNL     1       1.563  12.485  20.865  0.00  0.00    +0.000 NA
ATOM      8  H   UNL     1       1.045  12.228  21.704  0.00  0.00    +0.000 HD
ENDBRANCH   1   2
BRANCH   1  12
ATOM      9  C   UNL     1      -3.335  10.266  15.875  0.00  0.00    +0.000 C 
ATOM     10  C   UNL     1      -2.949  10.846  17.189  0.00  0.00    +0.000 A 
ATOM     11  N   UNL     1      -1.641  10.639  17.597  0.00  0.00    +0.000 NA
ATOM     12  C   UNL     1      -1.405  11.212  18.760  0.00  0.00    +0.000 A 
ATOM     13  S   UNL     1      -2.739  12.106  19.385  0.00  0.00    +0.000 S 
ATOM     14  C   UNL     1      -3.726  11.574  18.081  0.00  0.00    +0.000 A 
BRANCH  14  15
ATOM     15  C   UNL     1      -5.195  11.910  18.060  0.00  0.00    +0.000 C 
BRANCH  15  16
ATOM     16  C   UNL     1      -6.094  10.761  18.516  0.00  0.00    +0.000 C 
BRANCH  16  17
ATOM     17  O   UNL     1      -6.600  10.981  19.826  0.00  0.00    +0.000 OA
ATOM     18  H   UNL     1      -7.523  10.669  19.825  0.00  0.00    +0.000 HD
ENDBRANCH  16  17
ENDBRANCH  15  16
ENDBRANCH  14  15
ENDBRANCH   1  12
BRANCH   1  19
ATOM     19  N   UNL     1       0.811  10.229  18.718  0.00  0.00    +0.000 N 
ATOM     20  C   UNL     1       1.370   9.091  19.249  0.00  0.00    +0.000 C 
ATOM     21  O   UNL     1       1.214   8.656  20.381  0.00  0.00    +0.000 OA
ATOM     22  H   UNL     1       1.064  10.457  17.759  0.00  0.00    +0.000 HD
BRANCH  20  23
ATOM     23  C   UNL     1       2.271   8.362  18.244  0.00  0.00    +0.000 C 
ATOM     24  O   UNL     1       2.396   8.888  17.137  0.00  0.00    +0.000 OA
ATOM     25  N   UNL     1       2.813   7.173  18.688  0.00  0.00    +0.000 N 
ATOM     26  H   UNL     1       2.481   6.842  19.591  0.00  0.00    +0.000 HD
BRANCH  25  27
ATOM     27  C   UNL     1       3.637   6.326  17.911  0.00  0.00    +0.000 A 
ATOM     28  C   UNL     1       4.776   6.800  17.254  0.00  0.00    +0.000 A 
ATOM     29  C   UNL     1       5.518   5.971  16.407  0.00  0.00    +0.000 A 
ATOM     30  C   UNL     1       5.122   4.656  16.220  0.00  0.00    +0.000 A 
ATOM     31 CL   UNL     1       5.990   3.657  15.121  0.00  0.00    +0.000 Cl
ATOM     32  C   UNL     1       4.022   4.149  16.910  0.00  0.00    +0.000 A 
ATOM     33  C   UNL     1       3.287   4.980  17.771  0.00  0.00    +0.000 A 
ENDBRANCH  25  27
ENDBRANCH  20  23
ENDBRANCH   1  19
TORSDOF 8
ENDMDL
MODEL 7
REMARK VINA RESULT:      -7.3      7.808     10.900
REMARK  Name = 
REMARK  9 active torsions:
REMARK  status: ('A' for Active; 'I' for Inactive)
REMARK    1  A    between atoms: C_1  and  C_2
REMARK    2  A    between atoms: C_4  and  C_5
REMARK    3  A    between atoms: C_5  and  N_6
REMARK    4  A    between atoms: C_5  and  C_19
REMARK    5  A    between atoms: C_7  and  C_9
REMARK    6  A    between atoms: N_11  and  C_12
REMARK    7  A    between atoms: C_26  and  C_27
REMARK    8  A    between atoms: C_27  and  C_28
REMARK    9  A    between atoms: C_28  and  O_29
REMARK                            x       y       z     vdW  Elec       q    Type
REMARK                         _______ _______ _______ _____ _____    ______ ____
ROOT
ATOM      1  C   UNL     1       0.542  11.303  20.423  0.00  0.00    +0.000 C 
ENDROOT
BRANCH   1   2
ATOM      2  C   UNL     1       1.558  12.449  20.074  0.00  0.00    +0.000 C 
ATOM      3  C   UNL     1       1.381  13.664  21.010  0.00  0.00    +0.000 C 
ATOM      4  C   UNL     1       2.226  14.868  20.601  0.00  0.00    +0.000 C 
ATOM      5  C   UNL     1       2.064  15.163  19.118  0.00  0.00    +0.000 C 
ATOM      6  C   UNL     1       2.389  13.926  18.292  0.00  0.00    +0.000 C 
ATOM      7  N   UNL     1       1.507  12.816  18.638  0.00  0.00    +0.000 NA
ATOM      8  H   UNL     1       1.751  11.999  18.079  0.00  0.00    +0.000 HD
ENDBRANCH   1   2
BRANCH   1  12
ATOM      9  C   UNL     1      -4.039  13.138  20.374  0.00  0.00    +0.000 C 
ATOM     10  C   UNL     1      -2.948  12.316  19.786  0.00  0.00    +0.000 A 
ATOM     11  N   UNL     1      -1.751  12.287  20.483  0.00  0.00    +0.000 NA
ATOM     12  C   UNL     1      -0.866  11.516  19.885  0.00  0.00    +0.000 A 
ATOM     13  S   UNL     1      -1.467  10.717  18.482  0.00  0.00    +0.000 S 
ATOM     14  C   UNL     1      -2.956  11.567  18.617  0.00  0.00    +0.000 A 
BRANCH  14  15
ATOM     15  C   UNL     1      -4.003  11.432  17.541  0.00  0.00    +0.000 C 
BRANCH  15  16
ATOM     16  C   UNL     1      -3.522  10.666  16.309  0.00  0.00    +0.000 C 
BRANCH  16  17
ATOM     17  O   UNL     1      -3.210  11.544  15.235  0.00  0.00    +0.000 OA
ATOM     18  H   UNL     1      -2.461  12.091  15.531  0.00  0.00    +0.000 HD
ENDBRANCH  16  17
ENDBRANCH  15  16
ENDBRANCH  14  15
ENDBRANCH   1  12
BRANCH   1  19
ATOM     19  N   UNL     1       1.017   9.992  19.998  0.00  0.00    +0.000 N 
ATOM     20  C   UNL     1       1.257   8.943  20.853  0.00  0.00    +0.000 C 
ATOM     21  O   UNL     1       1.089   8.929  22.063  0.00  0.00    +0.000 OA
ATOM     22  H   UNL     1       1.232   9.840  19.016  0.00  0.00    +0.000 HD
BRANCH  20  23
ATOM     23  C   UNL     1       1.795   7.707  20.119  0.00  0.00    +0.000 C 
ATOM     24  O   UNL     1       2.112   7.865  18.939  0.00  0.00    +0.000 OA
ATOM     25  N   UNL     1       1.827   6.544  20.861  0.00  0.00    +0.000 N 
ATOM     26  H   UNL     1       1.395   6.592  21.781  0.00  0.00    +0.000 HD
BRANCH  25  27
ATOM     27  C   UNL     1       2.248   5.288  20.369  0.00  0.00    +0.000 A 
ATOM     28  C   UNL     1       3.540   5.081  19.876  0.00  0.00    +0.000 A 
ATOM     29  C   UNL     1       3.904   3.861  19.296  0.00  0.00    +0.000 A 
ATOM     30  C   UNL     1       2.973   2.838  19.215  0.00  0.00    +0.000 A 
ATOM     31 CL   UNL     1       3.398   1.364  18.437  0.00  0.00    +0.000 Cl
ATOM     32  C   UNL     1       1.698   3.006  19.752  0.00  0.00    +0.000 A 
ATOM     33  C   UNL     1       1.339   4.227  20.346  0.00  0.00    +0.000 A 
ENDBRANCH  25  27
ENDBRANCH  20  23
ENDBRANCH   1  19
TORSDOF 8
ENDMDL
MODEL 8
REMARK VINA RESULT:      -7.3      5.494      6.808
REMARK  Name = 
REMARK  9 active torsions:
REMARK  status: ('A' for Active; 'I' for Inactive)
REMARK    1  A    between atoms: C_1  and  C_2
REMARK    2  A    between atoms: C_4  and  C_5
REMARK    3  A    between atoms: C_5  and  N_6
REMARK    4  A    between atoms: C_5  and  C_19
REMARK    5  A    between atoms: C_7  and  C_9
REMARK    6  A    between atoms: N_11  and  C_12
REMARK    7  A    between atoms: C_26  and  C_27
REMARK    8  A    between atoms: C_27  and  C_28
REMARK    9  A    between atoms: C_28  and  O_29
REMARK                            x       y       z     vdW  Elec       q    Type
REMARK                         _______ _______ _______ _____ _____    ______ ____
ROOT
ATOM      1  C   UNL     1       3.060   6.180  19.683  0.00  0.00    +0.000 C 
ENDROOT
BRANCH   1   2
ATOM      2  C   UNL     1       2.004   5.018  19.648  0.00  0.00    +0.000 C 
ATOM      3  C   UNL     1       2.001   4.220  20.969  0.00  0.00    +0.000 C 
ATOM      4  C   UNL     1       1.117   2.976  20.920  0.00  0.00    +0.000 C 
ATOM      5  C   UNL     1       1.403   2.160  19.669  0.00  0.00    +0.000 C 
ATOM      6  C   UNL     1       1.250   3.023  18.424  0.00  0.00    +0.000 C 
ATOM      7  N   UNL     1       2.170   4.155  18.454  0.00  0.00    +0.000 NA
ATOM      8  H   UNL     1       2.042   4.721  17.615  0.00  0.00    +0.000 HD
ENDBRANCH   1   2
BRANCH   1  12
ATOM      9  C   UNL     1       7.719   4.950  18.616  0.00  0.00    +0.000 C 
ATOM     10  C   UNL     1       6.361   5.413  18.224  0.00  0.00    +0.000 A 
ATOM     11  N   UNL     1       5.430   5.530  19.243  0.00  0.00    +0.000 NA
ATOM     12  C   UNL     1       4.273   5.965  18.787  0.00  0.00    +0.000 A 
ATOM     13  S   UNL     1       4.276   6.334  17.104  0.00  0.00    +0.000 S 
ATOM     14  C   UNL     1       5.885   5.744  16.962  0.00  0.00    +0.000 A 
BRANCH  14  15
ATOM     15  C   UNL     1       6.535   5.643  15.606  0.00  0.00    +0.000 C 
BRANCH  15  16
ATOM     16  C   UNL     1       6.733   4.206  15.125  0.00  0.00    +0.000 C 
BRANCH  16  17
ATOM     17  O   UNL     1       5.883   3.301  15.818  0.00  0.00    +0.000 OA
ATOM     18  H   UNL     1       5.053   3.252  15.310  0.00  0.00    +0.000 HD
ENDBRANCH  16  17
ENDBRANCH  15  16
ENDBRANCH  14  15
ENDBRANCH   1  12
BRANCH   1  19
ATOM     19  N   UNL     1       2.469   7.476  19.374  0.00  0.00    +0.000 N 
ATOM     20  C   UNL     1       1.614   8.154  20.208  0.00  0.00    +0.000 C 
ATOM     21  O   UNL     1       1.244   7.807  21.321  0.00  0.00    +0.000 OA
ATOM     22  H   UNL     1       2.656   7.901  18.468  0.00  0.00    +0.000 HD
BRANCH  20  23
ATOM     23  C   UNL     1       1.119   9.469  19.590  0.00  0.00    +0.000 C 
ATOM     24  O   UNL     1       0.824   9.436  18.395  0.00  0.00    +0.000 OA
ATOM     25  N   UNL     1       1.096  10.553  20.444  0.00  0.00    +0.000 N 
ATOM     26  H   UNL     1       1.506  10.404  21.363  0.00  0.00    +0.000 HD
BRANCH  25  27
ATOM     27  C   UNL     1       0.713  11.861  20.070  0.00  0.00    +0.000 A 
ATOM     28  C   UNL     1      -0.630  12.244  19.984  0.00  0.00    +0.000 A 
ATOM     29  C   UNL     1      -0.989  13.510  19.511  0.00  0.00    +0.000 A 
ATOM     30  C   UNL     1      -0.001  14.404  19.128  0.00  0.00    +0.000 A 
ATOM     31 CL   UNL     1      -0.444  15.933  18.478  0.00  0.00    +0.000 Cl
ATOM     32  C   UNL     1       1.344  14.061  19.261  0.00  0.00    +0.000 A 
ATOM     33  C   UNL     1       1.703  12.794  19.749  0.00  0.00    +0.000 A 
ENDBRANCH  25  27
ENDBRANCH  20  23
ENDBRANCH   1  19
TORSDOF 8
ENDMDL
MODEL 9
REMARK VINA RESULT:      -7.3      7.623     10.125
REMARK  Name = 
REMARK  9 active torsions:
REMARK  status: ('A' for Active; 'I' for Inactive)
REMARK    1  A    between atoms: C_1  and  C_2
REMARK    2  A    between atoms: C_4  and  C_5
REMARK    3  A    between atoms: C_5  and  N_6
REMARK    4  A    between atoms: C_5  and  C_19
REMARK    5  A    between atoms: C_7  and  C_9
REMARK    6  A    between atoms: N_11  and  C_12
REMARK    7  A    between atoms: C_26  and  C_27
REMARK    8  A    between atoms: C_27  and  C_28
REMARK    9  A    between atoms: C_28  and  O_29
REMARK                            x       y       z     vdW  Elec       q    Type
REMARK                         _______ _______ _______ _____ _____    ______ ____
ROOT
ATOM      1  C   UNL     1       0.158  10.572  19.604  0.00  0.00    +0.000 C 
ENDROOT
BRANCH   1   2
ATOM      2  C   UNL     1       1.110  11.821  19.624  0.00  0.00    +0.000 C 
ATOM      3  C   UNL     1       0.741  12.792  20.766  0.00  0.00    +0.000 C 
ATOM      4  C   UNL     1       1.526  14.101  20.721  0.00  0.00    +0.000 C 
ATOM      5  C   UNL     1       1.495  14.701  19.324  0.00  0.00    +0.000 C 
ATOM      6  C   UNL     1       2.001  13.693  18.301  0.00  0.00    +0.000 C 
ATOM      7  N   UNL     1       1.179  12.487  18.301  0.00  0.00    +0.000 NA
ATOM      8  H   UNL     1       1.543  11.825  17.616  0.00  0.00    +0.000 HD
ENDBRANCH   1   2
BRANCH   1  12
ATOM      9  C   UNL     1      -2.482   9.659  15.535  0.00  0.00    +0.000 C 
ATOM     10  C   UNL     1      -2.289  10.319  16.853  0.00  0.00    +0.000 A 
ATOM     11  N   UNL     1      -1.104  10.042  17.516  0.00  0.00    +0.000 NA
ATOM     12  C   UNL     1      -1.030  10.693  18.659  0.00  0.00    +0.000 A 
ATOM     13  S   UNL     1      -2.363  11.744  18.955  0.00  0.00    +0.000 S 
ATOM     14  C   UNL     1      -3.142  11.183  17.527  0.00  0.00    +0.000 A 
BRANCH  14  15
ATOM     15  C   UNL     1      -4.543  11.635  17.204  0.00  0.00    +0.000 C 
BRANCH  15  16
ATOM     16  C   UNL     1      -5.591  11.147  18.203  0.00  0.00    +0.000 C 
BRANCH  16  17
ATOM     17  O   UNL     1      -6.911  11.414  17.748  0.00  0.00    +0.000 OA
ATOM     18  H   UNL     1      -7.517  11.059  18.425  0.00  0.00    +0.000 HD
ENDBRANCH  16  17
ENDBRANCH  15  16
ENDBRANCH  14  15
ENDBRANCH   1  12
BRANCH   1  19
ATOM     19  N   UNL     1       0.870   9.335  19.310  0.00  0.00    +0.000 N 
ATOM     20  C   UNL     1       1.446   8.530  20.264  0.00  0.00    +0.000 C 
ATOM     21  O   UNL     1       1.428   8.698  21.474  0.00  0.00    +0.000 OA
ATOM     22  H   UNL     1       0.998   9.058  18.340  0.00  0.00    +0.000 HD
BRANCH  20  23
ATOM     23  C   UNL     1       2.166   7.323  19.647  0.00  0.00    +0.000 C 
ATOM     24  O   UNL     1       2.059   6.254  20.250  0.00  0.00    +0.000 OA
ATOM     25  N   UNL     1       2.886   7.585  18.500  0.00  0.00    +0.000 N 
ATOM     26  H   UNL     1       2.958   8.564  18.234  0.00  0.00    +0.000 HD
BRANCH  25  27
ATOM     27  C   UNL     1       3.652   6.628  17.796  0.00  0.00    +0.000 A 
ATOM     28  C   UNL     1       4.764   6.989  17.027  0.00  0.00    +0.000 A 
ATOM     29  C   UNL     1       5.444   6.042  16.255  0.00  0.00    +0.000 A 
ATOM     30  C   UNL     1       5.016   4.723  16.256  0.00  0.00    +0.000 A 
ATOM     31 CL   UNL     1       5.807   3.574  15.250  0.00  0.00    +0.000 Cl
ATOM     32  C   UNL     1       3.946   4.334  17.060  0.00  0.00    +0.000 A 
ATOM     33  C   UNL     1       3.273   5.284  17.845  0.00  0.00    +0.000 A 
ENDBRANCH  25  27
ENDBRANCH  20  23
ENDBRANCH   1  19
TORSDOF 8
ENDMDL
