MODEL 1
REMARK VINA RESULT:      -8.6      0.000      0.000
REMARK  Name = 
REMARK  6 active torsions:
REMARK  status: ('A' for Active; 'I' for Inactive)
REMARK    1  A    between atoms: C_1  and  C_2
REMARK    2  A    between atoms: C_2  and  O_3
REMARK    3  A    between atoms: C_10  and  N_11
REMARK    4  A    between atoms: N_11  and  C_12
REMARK    5  A    between atoms: C_12  and  C_13
REMARK    6  A    between atoms: C_15  and  C_16
REMARK                            x       y       z     vdW  Elec       q    Type
REMARK                         _______ _______ _______ _____ _____    ______ ____
ROOT
ATOM      1  C   UNL     1       2.825   1.974  17.279  0.00  0.00    +0.000 C 
ATOM      2  C   UNL     1       2.122   2.340  18.598  0.00  0.00    +0.000 C 
ATOM      3  C   UNL     1       3.091   2.303  19.809  0.00  0.00    +0.000 C 
ATOM      4  C   UNL     1       2.335   2.624  21.115  0.00  0.00    +0.000 C 
ATOM      5  C   UNL     1       1.706   4.023  21.030  0.00  0.00    +0.000 C 
ATOM      6  C   UNL     1       0.717   4.050  19.855  0.00  0.00    +0.000 C 
ATOM      7  C   UNL     1       1.456   3.739  18.537  0.00  0.00    +0.000 C 
ATOM      8  C   UNL     1       2.526   4.820  18.331  0.00  0.00    +0.000 C 
ATOM      9  C   UNL     1       3.576   4.772  19.475  0.00  0.00    +0.000 C 
ATOM     10  C   UNL     1       2.814   5.073  20.796  0.00  0.00    +0.000 C 
ATOM     11  C   UNL     1       4.195   3.357  19.631  0.00  0.00    +0.000 C 
ENDROOT
BRANCH   2  12
ATOM     12  O   UNL     1       1.095   1.363  18.788  0.00  0.00    +0.000 OA
ATOM     13  H   UNL     1       0.415   1.507  18.107  0.00  0.00    +0.000 HD
ENDBRANCH   2  12
BRANCH   9  14
ATOM     14  N   UNL     1       4.612   5.795  19.284  0.00  0.00    +0.000 NA
ATOM     15  H   UNL     1       4.597   6.454  20.065  0.00  0.00    +0.000 HD
BRANCH  14  16
ATOM     16  C   UNL     1       5.975   5.260  19.173  0.00  0.00    +0.000 C 
BRANCH  16  17
ATOM     17  C   UNL     1       6.426   5.384  17.765  0.00  0.00    +0.000 A 
ATOM     18  C   UNL     1       6.036   4.575  16.685  0.00  0.00    +0.000 A 
ATOM     19  C   UNL     1       6.733   5.057  15.598  0.00  0.00    +0.000 A 
ATOM     20  O   UNL     1       7.502   6.106  16.030  0.00  0.00    +0.000 OA
ATOM     21  N   UNL     1       7.309   6.315  17.386  0.00  0.00    +0.000 NA
BRANCH  19  22
ATOM     22  C   UNL     1       6.700   4.607  14.240  0.00  0.00    +0.000 A 
ATOM     23  C   UNL     1       5.806   3.717  13.681  0.00  0.00    +0.000 A 
ATOM     24  C   UNL     1       6.093   3.453  12.312  0.00  0.00    +0.000 A 
ATOM     25  C   UNL     1       7.191   4.159  11.866  0.00  0.00    +0.000 A 
ATOM     26  S   UNL     1       7.847   5.152  13.084  0.00  0.00    +0.000 S 
ENDBRANCH  19  22
ENDBRANCH  16  17
ENDBRANCH  14  16
ENDBRANCH   9  14
TORSDOF 5
ENDMDL
MODEL 2
REMARK VINA RESULT:      -8.0      0.939      1.188
REMARK  Name = 
REMARK  6 active torsions:
REMARK  status: ('A' for Active; 'I' for Inactive)
REMARK    1  A    between atoms: C_1  and  C_2
REMARK    2  A    between atoms: C_2  and  O_3
REMARK    3  A    between atoms: C_10  and  N_11
REMARK    4  A    between atoms: N_11  and  C_12
REMARK    5  A    between atoms: C_12  and  C_13
REMARK    6  A    between atoms: C_15  and  C_16
REMARK                            x       y       z     vdW  Elec       q    Type
REMARK                         _______ _______ _______ _____ _____    ______ ____
ROOT
ATOM      1  C   UNL     1       1.724   1.335  18.523  0.00  0.00    +0.000 C 
ATOM      2  C   UNL     1       1.440   2.765  19.015  0.00  0.00    +0.000 C 
ATOM      3  C   UNL     1       2.058   3.039  20.412  0.00  0.00    +0.000 C 
ATOM      4  C   UNL     1       1.705   4.462  20.889  0.00  0.00    +0.000 C 
ATOM      5  C   UNL     1       2.254   5.500  19.897  0.00  0.00    +0.000 C 
ATOM      6  C   UNL     1       1.613   5.256  18.522  0.00  0.00    +0.000 C 
ATOM      7  C   UNL     1       1.961   3.839  18.024  0.00  0.00    +0.000 C 
ATOM      8  C   UNL     1       3.488   3.743  17.903  0.00  0.00    +0.000 C 
ATOM      9  C   UNL     1       4.157   3.924  19.293  0.00  0.00    +0.000 C 
ATOM     10  C   UNL     1       3.786   5.351  19.787  0.00  0.00    +0.000 C 
ATOM     11  C   UNL     1       3.589   2.929  20.340  0.00  0.00    +0.000 C 
ENDROOT
BRANCH   2  12
ATOM     12  O   UNL     1       0.018   2.886  19.098  0.00  0.00    +0.000 OA
ATOM     13  H   UNL     1      -0.365   2.470  18.306  0.00  0.00    +0.000 HD
ENDBRANCH   2  12
BRANCH   9  14
ATOM     14  N   UNL     1       5.618   3.824  19.193  0.00  0.00    +0.000 NA
ATOM     15  H   UNL     1       5.873   3.220  18.409  0.00  0.00    +0.000 HD
BRANCH  14  16
ATOM     16  C   UNL     1       6.300   5.111  19.008  0.00  0.00    +0.000 C 
BRANCH  16  17
ATOM     17  C   UNL     1       6.638   5.274  17.573  0.00  0.00    +0.000 A 
ATOM     18  C   UNL     1       6.257   4.426  16.520  0.00  0.00    +0.000 A 
ATOM     19  C   UNL     1       6.826   4.970  15.389  0.00  0.00    +0.000 A 
ATOM     20  O   UNL     1       7.515   6.092  15.770  0.00  0.00    +0.000 OA
ATOM     21  N   UNL     1       7.397   6.286  17.137  0.00  0.00    +0.000 NA
BRANCH  19  22
ATOM     22  C   UNL     1       6.744   4.514  14.035  0.00  0.00    +0.000 A 
ATOM     23  C   UNL     1       5.842   3.608  13.517  0.00  0.00    +0.000 A 
ATOM     24  C   UNL     1       6.076   3.343  12.138  0.00  0.00    +0.000 A 
ATOM     25  C   UNL     1       7.143   4.064  11.644  0.00  0.00    +0.000 A 
ATOM     26  S   UNL     1       7.833   5.073  12.831  0.00  0.00    +0.000 S 
ENDBRANCH  19  22
ENDBRANCH  16  17
ENDBRANCH  14  16
ENDBRANCH   9  14
TORSDOF 5
ENDMDL
MODEL 3
REMARK VINA RESULT:      -8.0      5.186      7.760
REMARK  Name = 
REMARK  6 active torsions:
REMARK  status: ('A' for Active; 'I' for Inactive)
REMARK    1  A    between atoms: C_1  and  C_2
REMARK    2  A    between atoms: C_2  and  O_3
REMARK    3  A    between atoms: C_10  and  N_11
REMARK    4  A    between atoms: N_11  and  C_12
REMARK    5  A    between atoms: C_12  and  C_13
REMARK    6  A    between atoms: C_15  and  C_16
REMARK                            x       y       z     vdW  Elec       q    Type
REMARK                         _______ _______ _______ _____ _____    ______ ____
ROOT
ATOM      1  C   UNL     1       0.608   2.629  18.943  0.00  0.00    +0.000 C 
ATOM      2  C   UNL     1       2.133   2.634  18.734  0.00  0.00    +0.000 C 
ATOM      3  C   UNL     1       2.569   3.620  17.618  0.00  0.00    +0.000 C 
ATOM      4  C   UNL     1       4.095   3.554  17.406  0.00  0.00    +0.000 C 
ATOM      5  C   UNL     1       4.824   3.928  18.705  0.00  0.00    +0.000 C 
ATOM      6  C   UNL     1       4.424   2.929  19.802  0.00  0.00    +0.000 C 
ATOM      7  C   UNL     1       2.900   2.986  20.035  0.00  0.00    +0.000 C 
ATOM      8  C   UNL     1       2.545   4.410  20.484  0.00  0.00    +0.000 C 
ATOM      9  C   UNL     1       2.882   5.434  19.366  0.00  0.00    +0.000 C 
ATOM     10  C   UNL     1       4.417   5.355  19.133  0.00  0.00    +0.000 C 
ATOM     11  C   UNL     1       2.209   5.059  18.018  0.00  0.00    +0.000 C 
ENDROOT
BRANCH   2  12
ATOM     12  O   UNL     1       2.488   1.303  18.351  0.00  0.00    +0.000 OA
ATOM     13  H   UNL     1       2.819   1.333  17.436  0.00  0.00    +0.000 HD
ENDBRANCH   2  12
BRANCH   9  14
ATOM     14  N   UNL     1       2.537   6.800  19.778  0.00  0.00    +0.000 NA
ATOM     15  H   UNL     1       3.226   7.145  20.448  0.00  0.00    +0.000 HD
BRANCH  14  16
ATOM     16  C   UNL     1       2.463   7.764  18.673  0.00  0.00    +0.000 C 
BRANCH  16  17
ATOM     17  C   UNL     1       1.546   8.865  19.057  0.00  0.00    +0.000 A 
ATOM     18  C   UNL     1       0.983   9.084  20.325  0.00  0.00    +0.000 A 
ATOM     19  C   UNL     1       0.190  10.202  20.184  0.00  0.00    +0.000 A 
ATOM     20  O   UNL     1       0.285  10.616  18.880  0.00  0.00    +0.000 OA
ATOM     21  N   UNL     1       1.137   9.783  18.173  0.00  0.00    +0.000 NA
BRANCH  19  22
ATOM     22  C   UNL     1      -0.603  10.871  21.170  0.00  0.00    +0.000 A 
ATOM     23  C   UNL     1      -0.683  10.570  22.514  0.00  0.00    +0.000 A 
ATOM     24  C   UNL     1      -1.608  11.408  23.199  0.00  0.00    +0.000 A 
ATOM     25  C   UNL     1      -2.196  12.329  22.358  0.00  0.00    +0.000 A 
ATOM     26  S   UNL     1      -1.611  12.199  20.764  0.00  0.00    +0.000 S 
ENDBRANCH  19  22
ENDBRANCH  16  17
ENDBRANCH  14  16
ENDBRANCH   9  14
TORSDOF 5
ENDMDL
MODEL 4
REMARK VINA RESULT:      -7.9      3.406      5.103
REMARK  Name = 
REMARK  6 active torsions:
REMARK  status: ('A' for Active; 'I' for Inactive)
REMARK    1  A    between atoms: C_1  and  C_2
REMARK    2  A    between atoms: C_2  and  O_3
REMARK    3  A    between atoms: C_10  and  N_11
REMARK    4  A    between atoms: N_11  and  C_12
REMARK    5  A    between atoms: C_12  and  C_13
REMARK    6  A    between atoms: C_15  and  C_16
REMARK                            x       y       z     vdW  Elec       q    Type
REMARK                         _______ _______ _______ _____ _____    ______ ____
ROOT
ATOM      1  C   UNL     1       2.301   3.548  21.466  0.00  0.00    +0.000 C 
ATOM      2  C   UNL     1       2.213   3.392  19.937  0.00  0.00    +0.000 C 
ATOM      3  C   UNL     1       2.329   4.753  19.200  0.00  0.00    +0.000 C 
ATOM      4  C   UNL     1       2.183   4.556  17.678  0.00  0.00    +0.000 C 
ATOM      5  C   UNL     1       3.286   3.620  17.159  0.00  0.00    +0.000 C 
ATOM      6  C   UNL     1       3.148   2.259  17.859  0.00  0.00    +0.000 C 
ATOM      7  C   UNL     1       3.299   2.433  19.384  0.00  0.00    +0.000 C 
ATOM      8  C   UNL     1       4.695   3.011  19.656  0.00  0.00    +0.000 C 
ATOM      9  C   UNL     1       4.838   4.417  19.012  0.00  0.00    +0.000 C 
ATOM     10  C   UNL     1       4.670   4.227  17.478  0.00  0.00    +0.000 C 
ATOM     11  C   UNL     1       3.708   5.378  19.467  0.00  0.00    +0.000 C 
ENDROOT
BRANCH   2  12
ATOM     12  O   UNL     1       0.931   2.820  19.666  0.00  0.00    +0.000 OA
ATOM     13  H   UNL     1       0.844   2.722  18.702  0.00  0.00    +0.000 HD
ENDBRANCH   2  12
BRANCH   9  14
ATOM     14  N   UNL     1       6.166   4.985  19.274  0.00  0.00    +0.000 NA
ATOM     15  H   UNL     1       6.668   4.401  19.945  0.00  0.00    +0.000 HD
BRANCH  14  16
ATOM     16  C   UNL     1       7.010   5.124  18.080  0.00  0.00    +0.000 C 
BRANCH  16  17
ATOM     17  C   UNL     1       7.381   6.551  17.917  0.00  0.00    +0.000 A 
ATOM     18  C   UNL     1       8.179   7.315  18.785  0.00  0.00    +0.000 A 
ATOM     19  C   UNL     1       8.217   8.576  18.230  0.00  0.00    +0.000 A 
ATOM     20  O   UNL     1       7.466   8.548  17.084  0.00  0.00    +0.000 OA
ATOM     21  N   UNL     1       6.944   7.280  16.884  0.00  0.00    +0.000 NA
BRANCH  19  22
ATOM     22  C   UNL     1       8.903   9.741  18.699  0.00  0.00    +0.000 A 
ATOM     23  C   UNL     1       9.233  10.043  20.004  0.00  0.00    +0.000 A 
ATOM     24  C   UNL     1       9.870  11.310  20.120  0.00  0.00    +0.000 A 
ATOM     25  C   UNL     1      10.017  11.931  18.898  0.00  0.00    +0.000 A 
ATOM     26  S   UNL     1       9.417  10.976  17.622  0.00  0.00    +0.000 S 
ENDBRANCH  19  22
ENDBRANCH  16  17
ENDBRANCH  14  16
ENDBRANCH   9  14
TORSDOF 5
ENDMDL
MODEL 5
REMARK VINA RESULT:      -7.8      4.771      7.145
REMARK  Name = 
REMARK  6 active torsions:
REMARK  status: ('A' for Active; 'I' for Inactive)
REMARK    1  A    between atoms: C_1  and  C_2
REMARK    2  A    between atoms: C_2  and  O_3
REMARK    3  A    between atoms: C_10  and  N_11
REMARK    4  A    between atoms: N_11  and  C_12
REMARK    5  A    between atoms: C_12  and  C_13
REMARK    6  A    between atoms: C_15  and  C_16
REMARK                            x       y       z     vdW  Elec       q    Type
REMARK                         _______ _______ _______ _____ _____    ______ ____
ROOT
ATOM      1  C   UNL     1       3.560   2.392  17.402  0.00  0.00    +0.000 C 
ATOM      2  C   UNL     1       2.675   2.468  18.659  0.00  0.00    +0.000 C 
ATOM      3  C   UNL     1       3.468   2.930  19.909  0.00  0.00    +0.000 C 
ATOM      4  C   UNL     1       2.557   2.941  21.153  0.00  0.00    +0.000 C 
ATOM      5  C   UNL     1       1.380   3.904  20.935  0.00  0.00    +0.000 C 
ATOM      6  C   UNL     1       0.569   3.426  19.720  0.00  0.00    +0.000 C 
ATOM      7  C   UNL     1       1.462   3.415  18.463  0.00  0.00    +0.000 C 
ATOM      8  C   UNL     1       1.952   4.850  18.221  0.00  0.00    +0.000 C 
ATOM      9  C   UNL     1       2.828   5.334  19.408  0.00  0.00    +0.000 C 
ATOM     10  C   UNL     1       1.918   5.327  20.669  0.00  0.00    +0.000 C 
ATOM     11  C   UNL     1       3.998   4.357  19.698  0.00  0.00    +0.000 C 
ENDROOT
BRANCH   2  12
ATOM     12  O   UNL     1       2.178   1.145  18.879  0.00  0.00    +0.000 OA
ATOM     13  H   UNL     1       1.287   1.220  19.262  0.00  0.00    +0.000 HD
ENDBRANCH   2  12
BRANCH   9  14
ATOM     14  N   UNL     1       3.312   6.702  19.184  0.00  0.00    +0.000 NA
ATOM     15  H   UNL     1       4.312   6.687  18.977  0.00  0.00    +0.000 HD
BRANCH  14  16
ATOM     16  C   UNL     1       2.637   7.410  18.089  0.00  0.00    +0.000 C 
BRANCH  16  17
ATOM     17  C   UNL     1       1.899   8.569  18.649  0.00  0.00    +0.000 A 
ATOM     18  C   UNL     1       1.270   8.636  19.903  0.00  0.00    +0.000 A 
ATOM     19  C   UNL     1       0.703   9.891  19.960  0.00  0.00    +0.000 A 
ATOM     20  O   UNL     1       0.990  10.529  18.781  0.00  0.00    +0.000 OA
ATOM     21  N   UNL     1       1.741   9.705  17.960  0.00  0.00    +0.000 NA
BRANCH  19  22
ATOM     22  C   UNL     1      -0.045  10.490  21.023  0.00  0.00    +0.000 A 
ATOM     23  C   UNL     1      -0.207  10.002  22.303  0.00  0.00    +0.000 A 
ATOM     24  C   UNL     1      -1.057  10.828  23.091  0.00  0.00    +0.000 A 
ATOM     25  C   UNL     1      -1.508  11.927  22.391  0.00  0.00    +0.000 A 
ATOM     26  S   UNL     1      -0.884  11.973  20.807  0.00  0.00    +0.000 S 
ENDBRANCH  19  22
ENDBRANCH  16  17
ENDBRANCH  14  16
ENDBRANCH   9  14
TORSDOF 5
ENDMDL
MODEL 6
REMARK VINA RESULT:      -7.7      1.052      2.168
REMARK  Name = 
REMARK  6 active torsions:
REMARK  status: ('A' for Active; 'I' for Inactive)
REMARK    1  A    between atoms: C_1  and  C_2
REMARK    2  A    between atoms: C_2  and  O_3
REMARK    3  A    between atoms: C_10  and  N_11
REMARK    4  A    between atoms: N_11  and  C_12
REMARK    5  A    between atoms: C_12  and  C_13
REMARK    6  A    between atoms: C_15  and  C_16
REMARK                            x       y       z     vdW  Elec       q    Type
REMARK                         _______ _______ _______ _____ _____    ______ ____
ROOT
ATOM      1  C   UNL     1       1.546   2.888  21.640  0.00  0.00    +0.000 C 
ATOM      2  C   UNL     1       1.439   2.984  20.107  0.00  0.00    +0.000 C 
ATOM      3  C   UNL     1       1.614   4.438  19.596  0.00  0.00    +0.000 C 
ATOM      4  C   UNL     1       1.448   4.495  18.064  0.00  0.00    +0.000 C 
ATOM      5  C   UNL     1       2.502   3.606  17.386  0.00  0.00    +0.000 C 
ATOM      6  C   UNL     1       2.305   2.158  17.861  0.00  0.00    +0.000 C 
ATOM      7  C   UNL     1       2.475   2.078  19.392  0.00  0.00    +0.000 C 
ATOM      8  C   UNL     1       3.899   2.541  19.733  0.00  0.00    +0.000 C 
ATOM      9  C   UNL     1       4.103   4.023  19.319  0.00  0.00    +0.000 C 
ATOM     10  C   UNL     1       3.915   4.090  17.777  0.00  0.00    +0.000 C 
ATOM     11  C   UNL     1       3.023   4.949  19.939  0.00  0.00    +0.000 C 
ENDROOT
BRANCH   2  12
ATOM     12  O   UNL     1       0.130   2.520  19.768  0.00  0.00    +0.000 OA
ATOM     13  H   UNL     1      -0.266   3.164  19.155  0.00  0.00    +0.000 HD
ENDBRANCH   2  12
BRANCH   9  14
ATOM     14  N   UNL     1       5.458   4.482  19.649  0.00  0.00    +0.000 NA
ATOM     15  H   UNL     1       6.130   3.730  19.484  0.00  0.00    +0.000 HD
BRANCH  14  16
ATOM     16  C   UNL     1       5.901   5.655  18.886  0.00  0.00    +0.000 C 
BRANCH  16  17
ATOM     17  C   UNL     1       6.541   5.197  17.628  0.00  0.00    +0.000 A 
ATOM     18  C   UNL     1       5.978   5.228  16.342  0.00  0.00    +0.000 A 
ATOM     19  C   UNL     1       6.933   4.679  15.513  0.00  0.00    +0.000 A 
ATOM     20  O   UNL     1       8.010   4.338  16.289  0.00  0.00    +0.000 OA
ATOM     21  N   UNL     1       7.768   4.664  17.614  0.00  0.00    +0.000 NA
BRANCH  19  22
ATOM     22  C   UNL     1       6.885   4.482  14.096  0.00  0.00    +0.000 A 
ATOM     23  C   UNL     1       6.035   3.647  13.401  0.00  0.00    +0.000 A 
ATOM     24  C   UNL     1       6.293   3.658  12.002  0.00  0.00    +0.000 A 
ATOM     25  C   UNL     1       7.326   4.510  11.671  0.00  0.00    +0.000 A 
ATOM     26  S   UNL     1       7.954   5.310  13.037  0.00  0.00    +0.000 S 
ENDBRANCH  19  22
ENDBRANCH  16  17
ENDBRANCH  14  16
ENDBRANCH   9  14
TORSDOF 5
ENDMDL
MODEL 7
REMARK VINA RESULT:      -7.7      1.017      2.262
REMARK  Name = 
REMARK  6 active torsions:
REMARK  status: ('A' for Active; 'I' for Inactive)
REMARK    1  A    between atoms: C_1  and  C_2
REMARK    2  A    between atoms: C_2  and  O_3
REMARK    3  A    between atoms: C_10  and  N_11
REMARK    4  A    between atoms: N_11  and  C_12
REMARK    5  A    between atoms: C_12  and  C_13
REMARK    6  A    between atoms: C_15  and  C_16
REMARK                            x       y       z     vdW  Elec       q    Type
REMARK                         _______ _______ _______ _____ _____    ______ ____
ROOT
ATOM      1  C   UNL     1       2.115   3.233  21.850  0.00  0.00    +0.000 C 
ATOM      2  C   UNL     1       1.812   3.152  20.343  0.00  0.00    +0.000 C 
ATOM      3  C   UNL     1       1.549   4.549  19.721  0.00  0.00    +0.000 C 
ATOM      4  C   UNL     1       1.198   4.416  18.225  0.00  0.00    +0.000 C 
ATOM      5  C   UNL     1       2.359   3.751  17.469  0.00  0.00    +0.000 C 
ATOM      6  C   UNL     1       2.595   2.352  18.058  0.00  0.00    +0.000 C 
ATOM      7  C   UNL     1       2.956   2.464  19.554  0.00  0.00    +0.000 C 
ATOM      8  C   UNL     1       4.243   3.292  19.667  0.00  0.00    +0.000 C 
ATOM      9  C   UNL     1       4.012   4.733  19.136  0.00  0.00    +0.000 C 
ATOM     10  C   UNL     1       3.637   4.603  17.633  0.00  0.00    +0.000 C 
ATOM     11  C   UNL     1       2.810   5.421  19.836  0.00  0.00    +0.000 C 
ENDROOT
BRANCH   2  12
ATOM     12  O   UNL     1       0.635   2.351  20.215  0.00  0.00    +0.000 OA
ATOM     13  H   UNL     1       0.796   1.691  19.518  0.00  0.00    +0.000 HD
ENDBRANCH   2  12
BRANCH   9  14
ATOM     14  N   UNL     1       5.233   5.540  19.249  0.00  0.00    +0.000 NA
ATOM     15  H   UNL     1       5.332   5.889  20.204  0.00  0.00    +0.000 HD
BRANCH  14  16
ATOM     16  C   UNL     1       6.466   4.821  18.904  0.00  0.00    +0.000 C 
BRANCH  16  17
ATOM     17  C   UNL     1       6.825   5.130  17.498  0.00  0.00    +0.000 A 
ATOM     18  C   UNL     1       6.535   4.349  16.367  0.00  0.00    +0.000 A 
ATOM     19  C   UNL     1       7.087   5.028  15.302  0.00  0.00    +0.000 A 
ATOM     20  O   UNL     1       7.679   6.161  15.796  0.00  0.00    +0.000 OA
ATOM     21  N   UNL     1       7.514   6.229  17.170  0.00  0.00    +0.000 NA
BRANCH  19  22
ATOM     22  C   UNL     1       7.072   4.684  13.914  0.00  0.00    +0.000 A 
ATOM     23  C   UNL     1       7.869   5.210  12.919  0.00  0.00    +0.000 A 
ATOM     24  C   UNL     1       7.555   4.675  11.637  0.00  0.00    +0.000 A 
ATOM     25  C   UNL     1       6.535   3.750  11.696  0.00  0.00    +0.000 A 
ATOM     26  S   UNL     1       5.986   3.509  13.290  0.00  0.00    +0.000 S 
ENDBRANCH  19  22
ENDBRANCH  16  17
ENDBRANCH  14  16
ENDBRANCH   9  14
TORSDOF 5
ENDMDL
MODEL 8
REMARK VINA RESULT:      -7.7      3.160      4.695
REMARK  Name = 
REMARK  6 active torsions:
REMARK  status: ('A' for Active; 'I' for Inactive)
REMARK    1  A    between atoms: C_1  and  C_2
REMARK    2  A    between atoms: C_2  and  O_3
REMARK    3  A    between atoms: C_10  and  N_11
REMARK    4  A    between atoms: N_11  and  C_12
REMARK    5  A    between atoms: C_12  and  C_13
REMARK    6  A    between atoms: C_15  and  C_16
REMARK                            x       y       z     vdW  Elec       q    Type
REMARK                         _______ _______ _______ _____ _____    ______ ____
ROOT
ATOM      1  C   UNL     1       1.924   3.624  21.558  0.00  0.00    +0.000 C 
ATOM      2  C   UNL     1       1.799   3.448  20.034  0.00  0.00    +0.000 C 
ATOM      3  C   UNL     1       2.007   4.782  19.270  0.00  0.00    +0.000 C 
ATOM      4  C   UNL     1       1.822   4.571  17.754  0.00  0.00    +0.000 C 
ATOM      5  C   UNL     1       2.841   3.544  17.237  0.00  0.00    +0.000 C 
ATOM      6  C   UNL     1       2.611   2.210  17.964  0.00  0.00    +0.000 C 
ATOM      7  C   UNL     1       2.800   2.399  19.483  0.00  0.00    +0.000 C 
ATOM      8  C   UNL     1       4.241   2.873  19.723  0.00  0.00    +0.000 C 
ATOM      9  C   UNL     1       4.480   4.252  19.050  0.00  0.00    +0.000 C 
ATOM     10  C   UNL     1       4.273   4.048  17.523  0.00  0.00    +0.000 C 
ATOM     11  C   UNL     1       3.434   5.305  19.504  0.00  0.00    +0.000 C 
ENDROOT
BRANCH   2  12
ATOM     12  O   UNL     1       0.473   2.970  19.793  0.00  0.00    +0.000 OA
ATOM     13  H   UNL     1      -0.017   3.011  20.633  0.00  0.00    +0.000 HD
ENDBRANCH   2  12
BRANCH   9  14
ATOM     14  N   UNL     1       5.851   4.722  19.281  0.00  0.00    +0.000 NA
ATOM     15  H   UNL     1       6.264   4.217  20.069  0.00  0.00    +0.000 HD
BRANCH  14  16
ATOM     16  C   UNL     1       6.746   4.564  18.128  0.00  0.00    +0.000 C 
BRANCH  16  17
ATOM     17  C   UNL     1       7.251   5.899  17.725  0.00  0.00    +0.000 A 
ATOM     18  C   UNL     1       7.505   6.991  18.572  0.00  0.00    +0.000 A 
ATOM     19  C   UNL     1       7.931   8.005  17.742  0.00  0.00    +0.000 A 
ATOM     20  O   UNL     1       7.923   7.523  16.460  0.00  0.00    +0.000 OA
ATOM     21  N   UNL     1       7.501   6.203  16.446  0.00  0.00    +0.000 NA
BRANCH  19  22
ATOM     22  C   UNL     1       8.337   9.334  18.085  0.00  0.00    +0.000 A 
ATOM     23  C   UNL     1       8.054  10.494  17.394  0.00  0.00    +0.000 A 
ATOM     24  C   UNL     1       8.657  11.637  17.990  0.00  0.00    +0.000 A 
ATOM     25  C   UNL     1       9.372  11.316  19.124  0.00  0.00    +0.000 A 
ATOM     26  S   UNL     1       9.287   9.652  19.479  0.00  0.00    +0.000 S 
ENDBRANCH  19  22
ENDBRANCH  16  17
ENDBRANCH  14  16
ENDBRANCH   9  14
TORSDOF 5
ENDMDL
MODEL 9
REMARK VINA RESULT:      -7.7      5.096      7.080
REMARK  Name = 
REMARK  6 active torsions:
REMARK  status: ('A' for Active; 'I' for Inactive)
REMARK    1  A    between atoms: C_1  and  C_2
REMARK    2  A    between atoms: C_2  and  O_3
REMARK    3  A    between atoms: C_10  and  N_11
REMARK    4  A    between atoms: N_11  and  C_12
REMARK    5  A    between atoms: C_12  and  C_13
REMARK    6  A    between atoms: C_15  and  C_16
REMARK                            x       y       z     vdW  Elec       q    Type
REMARK                         _______ _______ _______ _____ _____    ______ ____
ROOT
ATOM      1  C   UNL     1       3.957   2.922  17.251  0.00  0.00    +0.000 C 
ATOM      2  C   UNL     1       2.993   2.650  18.419  0.00  0.00    +0.000 C 
ATOM      3  C   UNL     1       3.597   3.063  19.787  0.00  0.00    +0.000 C 
ATOM      4  C   UNL     1       2.622   2.725  20.933  0.00  0.00    +0.000 C 
ATOM      5  C   UNL     1       1.295   3.475  20.734  0.00  0.00    +0.000 C 
ATOM      6  C   UNL     1       0.676   3.036  19.398  0.00  0.00    +0.000 C 
ATOM      7  C   UNL     1       1.634   3.374  18.237  0.00  0.00    +0.000 C 
ATOM      8  C   UNL     1       1.848   4.894  18.230  0.00  0.00    +0.000 C 
ATOM      9  C   UNL     1       2.532   5.355  19.546  0.00  0.00    +0.000 C 
ATOM     10  C   UNL     1       1.561   4.996  20.706  0.00  0.00    +0.000 C 
ATOM     11  C   UNL     1       3.850   4.579  19.813  0.00  0.00    +0.000 C 
ENDROOT
BRANCH   2  12
ATOM     12  O   UNL     1       2.752   1.240  18.419  0.00  0.00    +0.000 OA
ATOM     13  H   UNL     1       3.448   0.818  17.885  0.00  0.00    +0.000 HD
ENDBRANCH   2  12
BRANCH   9  14
ATOM     14  N   UNL     1       2.751   6.806  19.547  0.00  0.00    +0.000 NA
ATOM     15  H   UNL     1       3.699   7.014  19.870  0.00  0.00    +0.000 HD
BRANCH  14  16
ATOM     16  C   UNL     1       2.572   7.446  18.238  0.00  0.00    +0.000 C 
BRANCH  16  17
ATOM     17  C   UNL     1       1.951   8.778  18.435  0.00  0.00    +0.000 A 
ATOM     18  C   UNL     1       1.011   9.128  19.419  0.00  0.00    +0.000 A 
ATOM     19  C   UNL     1       0.715  10.454  19.186  0.00  0.00    +0.000 A 
ATOM     20  O   UNL     1       1.452  10.859  18.104  0.00  0.00    +0.000 OA
ATOM     21  N   UNL     1       2.230   9.813  17.634  0.00  0.00    +0.000 NA
BRANCH  19  22
ATOM     22  C   UNL     1      -0.174  11.314  19.905  0.00  0.00    +0.000 A 
ATOM     23  C   UNL     1      -1.534  11.449  19.716  0.00  0.00    +0.000 A 
ATOM     24  C   UNL     1      -2.102  12.433  20.573  0.00  0.00    +0.000 A 
ATOM     25  C   UNL     1      -1.160  13.011  21.397  0.00  0.00    +0.000 A 
ATOM     26  S   UNL     1       0.390  12.346  21.156  0.00  0.00    +0.000 S 
ENDBRANCH  19  22
ENDBRANCH  16  17
ENDBRANCH  14  16
ENDBRANCH   9  14
TORSDOF 5
ENDMDL
