MODEL 1
REMARK VINA RESULT:      -5.7      0.000      0.000
REMARK  Name = 
REMARK  6 active torsions:
REMARK  status: ('A' for Active; 'I' for Inactive)
REMARK    1  A    between atoms: O_1  and  C_2
REMARK    2  A    between atoms: N_6  and  C_7
REMARK    3  A    between atoms: C_7  and  C_8
REMARK    4  A    between atoms: C_8  and  C_9
REMARK    5  A    between atoms: C_9  and  N_10
REMARK    6  A    between atoms: N_10  and  C_11
REMARK                            x       y       z     vdW  Elec       q    Type
REMARK                         _______ _______ _______ _____ _____    ______ ____
ROOT
ATOM      1  C   UNL     1       2.791   7.152  17.880  0.00  0.00    +0.000 C 
ENDROOT
BRANCH   1   2
ATOM      2  C   UNL     1       4.297   7.379  17.700  0.00  0.00    +0.000 C 
BRANCH   2   7
ATOM      3  C   UNL     1       7.296   4.990  17.536  0.00  0.00    +0.000 C 
ATOM      4  C   UNL     1       7.145   4.581  16.077  0.00  0.00    +0.000 C 
ATOM      5  C   UNL     1       5.672   4.477  15.695  0.00  0.00    +0.000 C 
ATOM      6  C   UNL     1       4.924   5.772  16.016  0.00  0.00    +0.000 C 
ATOM      7  N   UNL     1       5.052   6.144  17.433  0.00  0.00    +0.000 NA
ATOM      8  C   UNL     1       6.466   6.250  17.842  0.00  0.00    +0.000 C 
BRANCH   3   9
ATOM      9  O   UNL     1       6.896   3.926  18.405  0.00  0.00    +0.000 OA
ATOM     10  H   UNL     1       7.367   3.124  18.137  0.00  0.00    +0.000 HD
ENDBRANCH   3   9
ENDBRANCH   2   7
ENDBRANCH   1   2
BRANCH   1  11
ATOM     11  C   UNL     1       2.488   6.731  19.312  0.00  0.00    +0.000 C 
BRANCH  11  12
ATOM     12  N   UNL     1       3.138   5.448  19.594  0.00  0.00    +0.000 NA
ATOM     13  H   UNL     1       3.719   5.543  20.422  0.00  0.00    +0.000 HD
BRANCH  12  14
ATOM     14  C   UNL     1       2.174   4.349  19.779  0.00  0.00    +0.000 C 
ATOM     15  C   UNL     1       1.609   3.823  18.449  0.00  0.00    +0.000 C 
ATOM     16  C   UNL     1       2.661   3.195  17.545  0.00  0.00    +0.000 C 
ATOM     17  S   UNL     1       3.386   1.722  18.319  0.00  0.00    +0.000 S 
ATOM     18  C   UNL     1       3.967   2.499  19.854  0.00  0.00    +0.000 C 
ATOM     19  C   UNL     1       2.839   3.218  20.587  0.00  0.00    +0.000 C 
ENDBRANCH  12  14
ENDBRANCH  11  12
ENDBRANCH   1  11
TORSDOF 6
ENDMDL
MODEL 2
REMARK VINA RESULT:      -5.5      5.671      7.125
REMARK  Name = 
REMARK  6 active torsions:
REMARK  status: ('A' for Active; 'I' for Inactive)
REMARK    1  A    between atoms: O_1  and  C_2
REMARK    2  A    between atoms: N_6  and  C_7
REMARK    3  A    between atoms: C_7  and  C_8
REMARK    4  A    between atoms: C_8  and  C_9
REMARK    5  A    between atoms: C_9  and  N_10
REMARK    6  A    between atoms: N_10  and  C_11
REMARK                            x       y       z     vdW  Elec       q    Type
REMARK                         _______ _______ _______ _____ _____    ______ ____
ROOT
ATOM      1  C   UNL     1       8.233   9.513  18.040  0.00  0.00    +0.000 C 
ENDROOT
BRANCH   1   2
ATOM      2  C   UNL     1       9.198   9.972  19.141  0.00  0.00    +0.000 C 
BRANCH   2   7
ATOM      3  C   UNL     1      11.093  12.900  17.541  0.00  0.00    +0.000 C 
ATOM      4  C   UNL     1      11.821  13.372  18.792  0.00  0.00    +0.000 C 
ATOM      5  C   UNL     1      10.935  13.217  20.025  0.00  0.00    +0.000 C 
ATOM      6  C   UNL     1      10.421  11.782  20.159  0.00  0.00    +0.000 C 
ATOM      7  N   UNL     1       9.695  11.344  18.957  0.00  0.00    +0.000 NA
ATOM      8  C   UNL     1      10.520  11.485  17.741  0.00  0.00    +0.000 C 
BRANCH   3   9
ATOM      9  O   UNL     1      10.038  13.803  17.197  0.00  0.00    +0.000 OA
ATOM     10  H   UNL     1      10.277  14.684  17.520  0.00  0.00    +0.000 HD
ENDBRANCH   3   9
ENDBRANCH   2   7
ENDBRANCH   1   2
BRANCH   1  11
ATOM     11  C   UNL     1       8.143   7.993  18.017  0.00  0.00    +0.000 C 
BRANCH  11  12
ATOM     12  N   UNL     1       7.244   7.571  16.939  0.00  0.00    +0.000 NA
ATOM     13  H   UNL     1       7.771   7.037  16.255  0.00  0.00    +0.000 HD
BRANCH  12  14
ATOM     14  C   UNL     1       6.103   6.776  17.427  0.00  0.00    +0.000 C 
ATOM     15  C   UNL     1       5.062   6.496  16.331  0.00  0.00    +0.000 C 
ATOM     16  C   UNL     1       5.594   5.646  15.186  0.00  0.00    +0.000 C 
ATOM     17  S   UNL     1       6.064   3.993  15.768  0.00  0.00    +0.000 S 
ATOM     18  C   UNL     1       7.249   4.499  17.047  0.00  0.00    +0.000 C 
ATOM     19  C   UNL     1       6.623   5.466  18.048  0.00  0.00    +0.000 C 
ENDBRANCH  12  14
ENDBRANCH  11  12
ENDBRANCH   1  11
TORSDOF 6
ENDMDL
MODEL 3
REMARK VINA RESULT:      -5.5      2.018      4.942
REMARK  Name = 
REMARK  6 active torsions:
REMARK  status: ('A' for Active; 'I' for Inactive)
REMARK    1  A    between atoms: O_1  and  C_2
REMARK    2  A    between atoms: N_6  and  C_7
REMARK    3  A    between atoms: C_7  and  C_8
REMARK    4  A    between atoms: C_8  and  C_9
REMARK    5  A    between atoms: C_9  and  N_10
REMARK    6  A    between atoms: N_10  and  C_11
REMARK                            x       y       z     vdW  Elec       q    Type
REMARK                         _______ _______ _______ _____ _____    ______ ____
ROOT
ATOM      1  C   UNL     1       2.146   7.257  18.256  0.00  0.00    +0.000 C 
ENDROOT
BRANCH   1   2
ATOM      2  C   UNL     1       2.585   6.515  19.525  0.00  0.00    +0.000 C 
BRANCH   2   7
ATOM      3  C   UNL     1       1.712   3.098  18.015  0.00  0.00    +0.000 C 
ATOM      4  C   UNL     1       0.761   2.633  19.110  0.00  0.00    +0.000 C 
ATOM      5  C   UNL     1       1.241   3.108  20.478  0.00  0.00    +0.000 C 
ATOM      6  C   UNL     1       1.452   4.622  20.496  0.00  0.00    +0.000 C 
ATOM      7  N   UNL     1       2.393   5.058  19.453  0.00  0.00    +0.000 NA
ATOM      8  C   UNL     1       1.964   4.613  18.113  0.00  0.00    +0.000 C 
BRANCH   3   9
ATOM      9  O   UNL     1       2.956   2.395  18.091  0.00  0.00    +0.000 OA
ATOM     10  H   UNL     1       3.551   2.897  18.666  0.00  0.00    +0.000 HD
ENDBRANCH   3   9
ENDBRANCH   2   7
ENDBRANCH   1   2
BRANCH   1  11
ATOM     11  C   UNL     1       3.364   7.750  17.485  0.00  0.00    +0.000 C 
BRANCH  11  12
ATOM     12  N   UNL     1       4.544   6.981  17.889  0.00  0.00    +0.000 NA
ATOM     13  H   UNL     1       4.259   6.040  18.142  0.00  0.00    +0.000 HD
BRANCH  12  14
ATOM     14  C   UNL     1       5.576   6.928  16.838  0.00  0.00    +0.000 C 
ATOM     15  C   UNL     1       6.990   7.200  17.379  0.00  0.00    +0.000 C 
ATOM     16  C   UNL     1       7.474   6.154  18.374  0.00  0.00    +0.000 C 
ATOM     17  S   UNL     1       7.618   4.525  17.587  0.00  0.00    +0.000 S 
ATOM     18  C   UNL     1       5.909   4.377  16.991  0.00  0.00    +0.000 C 
ATOM     19  C   UNL     1       5.507   5.565  16.123  0.00  0.00    +0.000 C 
ENDBRANCH  12  14
ENDBRANCH  11  12
ENDBRANCH   1  11
TORSDOF 6
ENDMDL
MODEL 4
REMARK VINA RESULT:      -5.3      1.232      1.643
REMARK  Name = 
REMARK  6 active torsions:
REMARK  status: ('A' for Active; 'I' for Inactive)
REMARK    1  A    between atoms: O_1  and  C_2
REMARK    2  A    between atoms: N_6  and  C_7
REMARK    3  A    between atoms: C_7  and  C_8
REMARK    4  A    between atoms: C_8  and  C_9
REMARK    5  A    between atoms: C_9  and  N_10
REMARK    6  A    between atoms: N_10  and  C_11
REMARK                            x       y       z     vdW  Elec       q    Type
REMARK                         _______ _______ _______ _____ _____    ______ ____
ROOT
ATOM      1  C   UNL     1       2.819   6.998  18.402  0.00  0.00    +0.000 C 
ENDROOT
BRANCH   1   2
ATOM      2  C   UNL     1       3.957   7.277  17.413  0.00  0.00    +0.000 C 
BRANCH   2   7
ATOM      3  C   UNL     1       7.013   4.966  17.633  0.00  0.00    +0.000 C 
ATOM      4  C   UNL     1       7.247   4.803  16.137  0.00  0.00    +0.000 C 
ATOM      5  C   UNL     1       5.920   4.754  15.385  0.00  0.00    +0.000 C 
ATOM      6  C   UNL     1       5.056   5.974  15.708  0.00  0.00    +0.000 C 
ATOM      7  N   UNL     1       4.812   6.108  17.153  0.00  0.00    +0.000 NA
ATOM      8  C   UNL     1       6.075   6.153  17.915  0.00  0.00    +0.000 C 
BRANCH   3   9
ATOM      9  O   UNL     1       6.461   3.771  18.193  0.00  0.00    +0.000 OA
ATOM     10  H   UNL     1       6.603   3.049  17.565  0.00  0.00    +0.000 HD
ENDBRANCH   3   9
ENDBRANCH   2   7
ENDBRANCH   1   2
BRANCH   1  11
ATOM     11  C   UNL     1       1.941   5.863  17.890  0.00  0.00    +0.000 C 
BRANCH  11  12
ATOM     12  N   UNL     1       2.591   4.579  18.165  0.00  0.00    +0.000 NA
ATOM     13  H   UNL     1       3.314   4.714  18.865  0.00  0.00    +0.000 HD
BRANCH  12  14
ATOM     14  C   UNL     1       1.643   3.545  18.615  0.00  0.00    +0.000 C 
ATOM     15  C   UNL     1       2.311   2.177  18.831  0.00  0.00    +0.000 C 
ATOM     16  C   UNL     1       3.355   2.176  19.939  0.00  0.00    +0.000 C 
ATOM     17  S   UNL     1       2.597   2.544  21.546  0.00  0.00    +0.000 S 
ATOM     18  C   UNL     1       1.845   4.140  21.115  0.00  0.00    +0.000 C 
ATOM     19  C   UNL     1       0.934   4.025  19.896  0.00  0.00    +0.000 C 
ENDBRANCH  12  14
ENDBRANCH  11  12
ENDBRANCH   1  11
TORSDOF 6
ENDMDL
MODEL 5
REMARK VINA RESULT:      -5.3      1.065      1.195
REMARK  Name = 
REMARK  6 active torsions:
REMARK  status: ('A' for Active; 'I' for Inactive)
REMARK    1  A    between atoms: O_1  and  C_2
REMARK    2  A    between atoms: N_6  and  C_7
REMARK    3  A    between atoms: C_7  and  C_8
REMARK    4  A    between atoms: C_8  and  C_9
REMARK    5  A    between atoms: C_9  and  N_10
REMARK    6  A    between atoms: N_10  and  C_11
REMARK                            x       y       z     vdW  Elec       q    Type
REMARK                         _______ _______ _______ _____ _____    ______ ____
ROOT
ATOM      1  C   UNL     1       2.832   7.215  19.190  0.00  0.00    +0.000 C 
ENDROOT
BRANCH   1   2
ATOM      2  C   UNL     1       3.043   6.463  17.870  0.00  0.00    +0.000 C 
BRANCH   2   7
ATOM      3  C   UNL     1       6.753   5.486  17.883  0.00  0.00    +0.000 C 
ATOM      4  C   UNL     1       6.713   4.534  16.696  0.00  0.00    +0.000 C 
ATOM      5  C   UNL     1       5.401   3.755  16.673  0.00  0.00    +0.000 C 
ATOM      6  C   UNL     1       4.197   4.698  16.703  0.00  0.00    +0.000 C 
ATOM      7  N   UNL     1       4.230   5.595  17.868  0.00  0.00    +0.000 NA
ATOM      8  C   UNL     1       5.489   6.363  17.928  0.00  0.00    +0.000 C 
BRANCH   3   9
ATOM      9  O   UNL     1       6.881   4.761  19.110  0.00  0.00    +0.000 OA
ATOM     10  H   UNL     1       7.438   5.278  19.710  0.00  0.00    +0.000 HD
ENDBRANCH   3   9
ENDBRANCH   2   7
ENDBRANCH   1   2
BRANCH   1  11
ATOM     11  C   UNL     1       2.049   6.351  20.170  0.00  0.00    +0.000 C 
BRANCH  11  12
ATOM     12  N   UNL     1       2.880   5.223  20.601  0.00  0.00    +0.000 NA
ATOM     13  H   UNL     1       3.467   5.518  21.376  0.00  0.00    +0.000 HD
BRANCH  12  14
ATOM     14  C   UNL     1       2.084   4.047  20.993  0.00  0.00    +0.000 C 
ATOM     15  C   UNL     1       0.902   3.786  20.045  0.00  0.00    +0.000 C 
ATOM     16  C   UNL     1       1.324   3.443  18.623  0.00  0.00    +0.000 C 
ATOM     17  S   UNL     1       2.263   1.891  18.580  0.00  0.00    +0.000 S 
ATOM     18  C   UNL     1       3.574   2.353  19.748  0.00  0.00    +0.000 C 
ATOM     19  C   UNL     1       3.004   2.815  21.085  0.00  0.00    +0.000 C 
ENDBRANCH  12  14
ENDBRANCH  11  12
ENDBRANCH   1  11
TORSDOF 6
ENDMDL
MODEL 6
REMARK VINA RESULT:      -5.3      2.830      5.677
REMARK  Name = 
REMARK  6 active torsions:
REMARK  status: ('A' for Active; 'I' for Inactive)
REMARK    1  A    between atoms: O_1  and  C_2
REMARK    2  A    between atoms: N_6  and  C_7
REMARK    3  A    between atoms: C_7  and  C_8
REMARK    4  A    between atoms: C_8  and  C_9
REMARK    5  A    between atoms: C_9  and  N_10
REMARK    6  A    between atoms: N_10  and  C_11
REMARK                            x       y       z     vdW  Elec       q    Type
REMARK                         _______ _______ _______ _____ _____    ______ ____
ROOT
ATOM      1  C   UNL     1       3.429   3.367  16.863  0.00  0.00    +0.000 C 
ENDROOT
BRANCH   1   2
ATOM      2  C   UNL     1       3.721   2.565  18.138  0.00  0.00    +0.000 C 
BRANCH   2   7
ATOM      3  C   UNL     1       1.195   2.944  21.001  0.00  0.00    +0.000 C 
ATOM      4  C   UNL     1       0.891   4.423  20.804  0.00  0.00    +0.000 C 
ATOM      5  C   UNL     1       2.145   5.179  20.376  0.00  0.00    +0.000 C 
ATOM      6  C   UNL     1       2.777   4.546  19.135  0.00  0.00    +0.000 C 
ATOM      7  N   UNL     1       3.093   3.124  19.345  0.00  0.00    +0.000 NA
ATOM      8  C   UNL     1       1.903   2.359  19.765  0.00  0.00    +0.000 C 
BRANCH   3   9
ATOM      9  O   UNL     1       2.007   2.743  22.162  0.00  0.00    +0.000 OA
ATOM     10  H   UNL     1       2.316   1.827  22.160  0.00  0.00    +0.000 HD
ENDBRANCH   3   9
ENDBRANCH   2   7
ENDBRANCH   1   2
BRANCH   1  11
ATOM     11  C   UNL     1       4.722   3.930  16.287  0.00  0.00    +0.000 C 
BRANCH  11  12
ATOM     12  N   UNL     1       5.753   3.957  17.329  0.00  0.00    +0.000 NA
ATOM     13  H   UNL     1       5.829   3.035  17.746  0.00  0.00    +0.000 HD
BRANCH  12  14
ATOM     14  C   UNL     1       7.066   4.389  16.819  0.00  0.00    +0.000 C 
ATOM     15  C   UNL     1       6.978   5.644  15.935  0.00  0.00    +0.000 C 
ATOM     16  C   UNL     1       6.486   6.879  16.677  0.00  0.00    +0.000 C 
ATOM     17  S   UNL     1       7.647   7.356  17.988  0.00  0.00    +0.000 S 
ATOM     18  C   UNL     1       7.657   5.787  18.903  0.00  0.00    +0.000 C 
ATOM     19  C   UNL     1       8.025   4.610  18.004  0.00  0.00    +0.000 C 
ENDBRANCH  12  14
ENDBRANCH  11  12
ENDBRANCH   1  11
TORSDOF 6
ENDMDL
MODEL 7
REMARK VINA RESULT:      -5.3      1.285      1.788
REMARK  Name = 
REMARK  6 active torsions:
REMARK  status: ('A' for Active; 'I' for Inactive)
REMARK    1  A    between atoms: O_1  and  C_2
REMARK    2  A    between atoms: N_6  and  C_7
REMARK    3  A    between atoms: C_7  and  C_8
REMARK    4  A    between atoms: C_8  and  C_9
REMARK    5  A    between atoms: C_9  and  N_10
REMARK    6  A    between atoms: N_10  and  C_11
REMARK                            x       y       z     vdW  Elec       q    Type
REMARK                         _______ _______ _______ _____ _____    ______ ____
ROOT
ATOM      1  C   UNL     1       3.305   7.180  18.291  0.00  0.00    +0.000 C 
ENDROOT
BRANCH   1   2
ATOM      2  C   UNL     1       3.694   6.059  17.319  0.00  0.00    +0.000 C 
BRANCH   2   7
ATOM      3  C   UNL     1       7.014   4.525  16.157  0.00  0.00    +0.000 C 
ATOM      4  C   UNL     1       7.727   4.551  17.502  0.00  0.00    +0.000 C 
ATOM      5  C   UNL     1       7.343   5.798  18.293  0.00  0.00    +0.000 C 
ATOM      6  C   UNL     1       5.825   5.916  18.438  0.00  0.00    +0.000 C 
ATOM      7  N   UNL     1       5.147   5.918  17.132  0.00  0.00    +0.000 NA
ATOM      8  C   UNL     1       5.498   4.727  16.335  0.00  0.00    +0.000 C 
BRANCH   3   9
ATOM      9  O   UNL     1       7.536   5.533  15.287  0.00  0.00    +0.000 OA
ATOM     10  H   UNL     1       8.500   5.536  15.372  0.00  0.00    +0.000 HD
ENDBRANCH   3   9
ENDBRANCH   2   7
ENDBRANCH   1   2
BRANCH   1  11
ATOM     11  C   UNL     1       2.532   6.609  19.473  0.00  0.00    +0.000 C 
BRANCH  11  12
ATOM     12  N   UNL     1       1.857   5.373  19.067  0.00  0.00    +0.000 NA
ATOM     13  H   UNL     1       2.321   4.994  18.247  0.00  0.00    +0.000 HD
BRANCH  12  14
ATOM     14  C   UNL     1       1.826   4.362  20.139  0.00  0.00    +0.000 C 
ATOM     15  C   UNL     1       0.865   3.202  19.835  0.00  0.00    +0.000 C 
ATOM     16  C   UNL     1       1.264   2.382  18.617  0.00  0.00    +0.000 C 
ATOM     17  S   UNL     1       2.861   1.561  18.880  0.00  0.00    +0.000 S 
ATOM     18  C   UNL     1       3.850   3.039  19.248  0.00  0.00    +0.000 C 
ATOM     19  C   UNL     1       3.255   3.847  20.397  0.00  0.00    +0.000 C 
ENDBRANCH  12  14
ENDBRANCH  11  12
ENDBRANCH   1  11
TORSDOF 6
ENDMDL
MODEL 8
REMARK VINA RESULT:      -5.3      5.737      7.277
REMARK  Name = 
REMARK  6 active torsions:
REMARK  status: ('A' for Active; 'I' for Inactive)
REMARK    1  A    between atoms: O_1  and  C_2
REMARK    2  A    between atoms: N_6  and  C_7
REMARK    3  A    between atoms: C_7  and  C_8
REMARK    4  A    between atoms: C_8  and  C_9
REMARK    5  A    between atoms: C_9  and  N_10
REMARK    6  A    between atoms: N_10  and  C_11
REMARK                            x       y       z     vdW  Elec       q    Type
REMARK                         _______ _______ _______ _____ _____    ______ ____
ROOT
ATOM      1  C   UNL     1       8.298   9.611  18.044  0.00  0.00    +0.000 C 
ENDROOT
BRANCH   1   2
ATOM      2  C   UNL     1       9.248  10.108  19.141  0.00  0.00    +0.000 C 
BRANCH   2   7
ATOM      3  C   UNL     1      11.196  13.073  17.682  0.00  0.00    +0.000 C 
ATOM      4  C   UNL     1      11.694  13.652  19.000  0.00  0.00    +0.000 C 
ATOM      5  C   UNL     1      10.638  13.498  20.090  0.00  0.00    +0.000 C 
ATOM      6  C   UNL     1      10.192  12.041  20.227  0.00  0.00    +0.000 C 
ATOM      7  N   UNL     1       9.688  11.499  18.956  0.00  0.00    +0.000 NA
ATOM      8  C   UNL     1      10.682  11.635  17.874  0.00  0.00    +0.000 C 
BRANCH   3   9
ATOM      9  O   UNL     1      10.158  13.888  17.130  0.00  0.00    +0.000 OA
ATOM     10  H   UNL     1      10.433  14.814  17.195  0.00  0.00    +0.000 HD
ENDBRANCH   3   9
ENDBRANCH   2   7
ENDBRANCH   1   2
BRANCH   1  11
ATOM     11  C   UNL     1       8.172   8.094  18.102  0.00  0.00    +0.000 C 
BRANCH  11  12
ATOM     12  N   UNL     1       7.015   7.667  17.310  0.00  0.00    +0.000 NA
ATOM     13  H   UNL     1       6.943   8.251  16.483  0.00  0.00    +0.000 HD
BRANCH  12  14
ATOM     14  C   UNL     1       7.083   6.248  16.920  0.00  0.00    +0.000 C 
ATOM     15  C   UNL     1       7.305   5.312  18.119  0.00  0.00    +0.000 C 
ATOM     16  C   UNL     1       6.161   5.325  19.124  0.00  0.00    +0.000 C 
ATOM     17  S   UNL     1       4.628   4.710  18.372  0.00  0.00    +0.000 S 
ATOM     18  C   UNL     1       4.533   5.882  16.988  0.00  0.00    +0.000 C 
ATOM     19  C   UNL     1       5.806   5.869  16.147  0.00  0.00    +0.000 C 
ENDBRANCH  12  14
ENDBRANCH  11  12
ENDBRANCH   1  11
TORSDOF 6
ENDMDL
MODEL 9
REMARK VINA RESULT:      -5.3      2.885      5.676
REMARK  Name = 
REMARK  6 active torsions:
REMARK  status: ('A' for Active; 'I' for Inactive)
REMARK    1  A    between atoms: O_1  and  C_2
REMARK    2  A    between atoms: N_6  and  C_7
REMARK    3  A    between atoms: C_7  and  C_8
REMARK    4  A    between atoms: C_8  and  C_9
REMARK    5  A    between atoms: C_9  and  N_10
REMARK    6  A    between atoms: N_10  and  C_11
REMARK                            x       y       z     vdW  Elec       q    Type
REMARK                         _______ _______ _______ _____ _____    ______ ____
ROOT
ATOM      1  C   UNL     1       3.989   3.731  16.809  0.00  0.00    +0.000 C 
ENDROOT
BRANCH   1   2
ATOM      2  C   UNL     1       3.837   2.642  17.878  0.00  0.00    +0.000 C 
BRANCH   2   7
ATOM      3  C   UNL     1       1.328   2.709  20.781  0.00  0.00    +0.000 C 
ATOM      4  C   UNL     1       0.881   4.156  20.625  0.00  0.00    +0.000 C 
ATOM      5  C   UNL     1       2.051   5.039  20.201  0.00  0.00    +0.000 C 
ATOM      6  C   UNL     1       2.723   4.499  18.937  0.00  0.00    +0.000 C 
ATOM      7  N   UNL     1       3.175   3.110  19.107  0.00  0.00    +0.000 NA
ATOM      8  C   UNL     1       2.070   2.224  19.522  0.00  0.00    +0.000 C 
BRANCH   3   9
ATOM      9  O   UNL     1       2.172   2.559  21.927  0.00  0.00    +0.000 OA
ATOM     10  H   UNL     1       1.608   2.418  22.700  0.00  0.00    +0.000 HD
ENDBRANCH   3   9
ENDBRANCH   2   7
ENDBRANCH   1   2
BRANCH   1  11
ATOM     11  C   UNL     1       5.348   3.618  16.130  0.00  0.00    +0.000 C 
BRANCH  11  12
ATOM     12  N   UNL     1       6.354   4.327  16.926  0.00  0.00    +0.000 NA
ATOM     13  H   UNL     1       7.064   4.705  16.306  0.00  0.00    +0.000 HD
BRANCH  12  14
ATOM     14  C   UNL     1       5.776   5.406  17.745  0.00  0.00    +0.000 C 
ATOM     15  C   UNL     1       6.355   5.449  19.168  0.00  0.00    +0.000 C 
ATOM     16  C   UNL     1       7.845   5.761  19.212  0.00  0.00    +0.000 C 
ATOM     17  S   UNL     1       8.181   7.420  18.559  0.00  0.00    +0.000 S 
ATOM     18  C   UNL     1       7.423   7.209  16.922  0.00  0.00    +0.000 C 
ATOM     19  C   UNL     1       5.971   6.754  17.025  0.00  0.00    +0.000 C 
ENDBRANCH  12  14
ENDBRANCH  11  12
ENDBRANCH   1  11
TORSDOF 6
ENDMDL
