MODEL 1
REMARK VINA RESULT:      -9.4      0.000      0.000
REMARK  Name = 
REMARK  10 active torsions:
REMARK  status: ('A' for Active; 'I' for Inactive)
REMARK    1  A    between atoms: C_1  and  C_2
REMARK    2  A    between atoms: C_7  and  C_8
REMARK    3  A    between atoms: C_8  and  O_9
REMARK    4  A    between atoms: O_9  and  C_10
REMARK    5  A    between atoms: C_12  and  N_13
REMARK    6  A    between atoms: C_14  and  C_16
REMARK    7  A    between atoms: C_24  and  N_25
REMARK    8  A    between atoms: N_25  and  C_26
REMARK    9  A    between atoms: N_25  and  S_27
REMARK   10  A    between atoms: S_27  and  C_28
REMARK                            x       y       z     vdW  Elec       q    Type
REMARK                         _______ _______ _______ _____ _____    ______ ____
ROOT
ATOM      1  C   UNL     1       4.674   5.195  18.855  0.00  0.00    +0.000 A 
ATOM      2  C   UNL     1       3.776   5.901  19.682  0.00  0.00    +0.000 A 
ATOM      3  C   UNL     1       3.056   7.015  19.256  0.00  0.00    +0.000 A 
ATOM      4  C   UNL     1       3.277   7.467  17.957  0.00  0.00    +0.000 A 
ATOM      5  C   UNL     1       4.131   6.754  17.091  0.00  0.00    +0.000 A 
ATOM      6  C   UNL     1       4.820   5.609  17.524  0.00  0.00    +0.000 A 
ENDROOT
BRANCH   3   7
ATOM      7  N   UNL     1       2.124   7.678  20.103  0.00  0.00    +0.000 N 
ATOM      8  C   UNL     1       1.475   8.877  19.796  0.00  0.00    +0.000 C 
ATOM      9  O   UNL     1       1.614   9.532  18.767  0.00  0.00    +0.000 OA
ATOM     10  H   UNL     1       2.046   7.328  21.048  0.00  0.00    +0.000 HD
BRANCH   8  11
ATOM     11  C   UNL     1       0.577   9.459  20.836  0.00  0.00    +0.000 A 
ATOM     12  C   UNL     1       0.668   8.939  22.139  0.00  0.00    +0.000 A 
ATOM     13  C   UNL     1      -0.104   9.467  23.174  0.00  0.00    +0.000 A 
ATOM     14  C   UNL     1      -0.968  10.529  22.918  0.00  0.00    +0.000 A 
ATOM     15  C   UNL     1      -1.055  11.062  21.629  0.00  0.00    +0.000 A 
ATOM     16  C   UNL     1      -0.283  10.531  20.585  0.00  0.00    +0.000 A 
ENDBRANCH   8  11
ENDBRANCH   3   7
BRANCH   6  17
ATOM     17  N   UNL     1       5.614   4.868  16.582  0.00  0.00    +0.000 N 
ATOM     18  C   UNL     1       4.959   4.157  15.477  0.00  0.00    +0.000 C 
BRANCH  17  19
ATOM     19  S   UNL     1       7.258   5.204  16.428  0.00  0.00    +0.000 S 
ATOM     20  C   UNL     1       7.372   6.730  17.334  0.00  0.00    +0.000 C 
ATOM     21  O   UNL     1       8.007   4.206  17.168  0.00  0.00    +0.000 OA
ATOM     22  O   UNL     1       7.578   5.496  15.046  0.00  0.00    +0.000 OA
ENDBRANCH  17  19
ENDBRANCH   6  17
BRANCH   1  23
ATOM     23  O   UNL     1       5.416   4.119  19.327  0.00  0.00    +0.000 OA
BRANCH  23  24
ATOM     24  C   UNL     1       4.712   2.864  19.211  0.00  0.00    +0.000 C 
BRANCH  24  31
ATOM     25  C   UNL     1       2.363   2.696  17.417  0.00  0.00    +0.000 C 
ATOM     26  C   UNL     1       2.202   2.800  18.917  0.00  0.00    +0.000 A 
ATOM     27  C   UNL     1       0.910   2.855  19.450  0.00  0.00    +0.000 A 
ATOM     28  C   UNL     1       0.718   2.854  20.831  0.00  0.00    +0.000 A 
ATOM     29  C   UNL     1       1.813   2.767  21.689  0.00  0.00    +0.000 A 
ATOM     30  C   UNL     1       3.109   2.738  21.174  0.00  0.00    +0.000 A 
ATOM     31  C   UNL     1       3.318   2.790  19.793  0.00  0.00    +0.000 A 
ENDBRANCH  24  31
ENDBRANCH  23  24
ENDBRANCH   1  23
TORSDOF 7
ENDMDL
MODEL 2
REMARK VINA RESULT:      -8.6      0.677      1.163
REMARK  Name = 
REMARK  10 active torsions:
REMARK  status: ('A' for Active; 'I' for Inactive)
REMARK    1  A    between atoms: C_1  and  C_2
REMARK    2  A    between atoms: C_7  and  C_8
REMARK    3  A    between atoms: C_8  and  O_9
REMARK    4  A    between atoms: O_9  and  C_10
REMARK    5  A    between atoms: C_12  and  N_13
REMARK    6  A    between atoms: C_14  and  C_16
REMARK    7  A    between atoms: C_24  and  N_25
REMARK    8  A    between atoms: N_25  and  C_26
REMARK    9  A    between atoms: N_25  and  S_27
REMARK   10  A    between atoms: S_27  and  C_28
REMARK                            x       y       z     vdW  Elec       q    Type
REMARK                         _______ _______ _______ _____ _____    ______ ____
ROOT
ATOM      1  C   UNL     1       4.562   5.381  18.872  0.00  0.00    +0.000 A 
ATOM      2  C   UNL     1       3.687   6.070  19.736  0.00  0.00    +0.000 A 
ATOM      3  C   UNL     1       2.955   7.191  19.351  0.00  0.00    +0.000 A 
ATOM      4  C   UNL     1       3.141   7.668  18.054  0.00  0.00    +0.000 A 
ATOM      5  C   UNL     1       3.972   6.973  17.152  0.00  0.00    +0.000 A 
ATOM      6  C   UNL     1       4.673   5.820  17.545  0.00  0.00    +0.000 A 
ENDROOT
BRANCH   3   7
ATOM      7  N   UNL     1       2.046   7.837  20.234  0.00  0.00    +0.000 N 
ATOM      8  C   UNL     1       1.341   9.008  19.944  0.00  0.00    +0.000 C 
ATOM      9  O   UNL     1       1.405   9.651  18.898  0.00  0.00    +0.000 OA
ATOM     10  H   UNL     1       2.028   7.501  21.187  0.00  0.00    +0.000 HD
BRANCH   8  11
ATOM     11  C   UNL     1       0.478   9.578  21.019  0.00  0.00    +0.000 A 
ATOM     12  C   UNL     1      -0.109  10.833  20.786  0.00  0.00    +0.000 A 
ATOM     13  C   UNL     1      -0.967  11.405  21.726  0.00  0.00    +0.000 A 
ATOM     14  C   UNL     1      -1.254  10.722  22.905  0.00  0.00    +0.000 A 
ATOM     15  C   UNL     1      -0.686   9.467  23.138  0.00  0.00    +0.000 A 
ATOM     16  C   UNL     1       0.179   8.890  22.199  0.00  0.00    +0.000 A 
ENDBRANCH   8  11
ENDBRANCH   3   7
BRANCH   6  17
ATOM     17  N   UNL     1       5.442   5.098  16.569  0.00  0.00    +0.000 N 
ATOM     18  C   UNL     1       4.755   4.328  15.524  0.00  0.00    +0.000 C 
BRANCH  17  19
ATOM     19  S   UNL     1       7.053   5.513  16.301  0.00  0.00    +0.000 S 
ATOM     20  C   UNL     1       7.870   4.443  17.462  0.00  0.00    +0.000 C 
ATOM     21  O   UNL     1       7.430   5.074  14.971  0.00  0.00    +0.000 OA
ATOM     22  O   UNL     1       7.292   6.877  16.725  0.00  0.00    +0.000 OA
ENDBRANCH  17  19
ENDBRANCH   6  17
BRANCH   1  23
ATOM     23  O   UNL     1       5.318   4.297  19.304  0.00  0.00    +0.000 OA
BRANCH  23  24
ATOM     24  C   UNL     1       4.636   3.038  19.124  0.00  0.00    +0.000 C 
BRANCH  24  31
ATOM     25  C   UNL     1       2.203   2.937  17.441  0.00  0.00    +0.000 C 
ATOM     26  C   UNL     1       2.117   2.927  18.950  0.00  0.00    +0.000 A 
ATOM     27  C   UNL     1       0.852   2.908  19.549  0.00  0.00    +0.000 A 
ATOM     28  C   UNL     1       0.732   2.800  20.933  0.00  0.00    +0.000 A 
ATOM     29  C   UNL     1       1.870   2.681  21.728  0.00  0.00    +0.000 A 
ATOM     30  C   UNL     1       3.139   2.724  21.149  0.00  0.00    +0.000 A 
ATOM     31  C   UNL     1       3.276   2.883  19.767  0.00  0.00    +0.000 A 
ENDBRANCH  24  31
ENDBRANCH  23  24
ENDBRANCH   1  23
TORSDOF 7
ENDMDL
MODEL 3
REMARK VINA RESULT:      -8.6      0.782      1.601
REMARK  Name = 
REMARK  10 active torsions:
REMARK  status: ('A' for Active; 'I' for Inactive)
REMARK    1  A    between atoms: C_1  and  C_2
REMARK    2  A    between atoms: C_7  and  C_8
REMARK    3  A    between atoms: C_8  and  O_9
REMARK    4  A    between atoms: O_9  and  C_10
REMARK    5  A    between atoms: C_12  and  N_13
REMARK    6  A    between atoms: C_14  and  C_16
REMARK    7  A    between atoms: C_24  and  N_25
REMARK    8  A    between atoms: N_25  and  C_26
REMARK    9  A    between atoms: N_25  and  S_27
REMARK   10  A    between atoms: S_27  and  C_28
REMARK                            x       y       z     vdW  Elec       q    Type
REMARK                         _______ _______ _______ _____ _____    ______ ____
ROOT
ATOM      1  C   UNL     1       4.696   5.182  18.853  0.00  0.00    +0.000 A 
ATOM      2  C   UNL     1       3.832   5.912  19.694  0.00  0.00    +0.000 A 
ATOM      3  C   UNL     1       3.118   7.032  19.274  0.00  0.00    +0.000 A 
ATOM      4  C   UNL     1       3.311   7.464  17.963  0.00  0.00    +0.000 A 
ATOM      5  C   UNL     1       4.130   6.728  17.084  0.00  0.00    +0.000 A 
ATOM      6  C   UNL     1       4.814   5.578  17.513  0.00  0.00    +0.000 A 
ENDROOT
BRANCH   3   7
ATOM      7  N   UNL     1       2.219   7.720  20.136  0.00  0.00    +0.000 N 
ATOM      8  C   UNL     1       1.374   8.762  19.747  0.00  0.00    +0.000 C 
ATOM      9  O   UNL     1       1.286   9.239  18.618  0.00  0.00    +0.000 OA
ATOM     10  H   UNL     1       2.313   7.534  21.125  0.00  0.00    +0.000 HD
BRANCH   8  11
ATOM     11  C   UNL     1       0.545   9.408  20.805  0.00  0.00    +0.000 A 
ATOM     12  C   UNL     1       0.608   8.869  22.101  0.00  0.00    +0.000 A 
ATOM     13  C   UNL     1      -0.100   9.450  23.153  0.00  0.00    +0.000 A 
ATOM     14  C   UNL     1      -0.872  10.586  22.920  0.00  0.00    +0.000 A 
ATOM     15  C   UNL     1      -0.930  11.138  21.638  0.00  0.00    +0.000 A 
ATOM     16  C   UNL     1      -0.222  10.554  20.578  0.00  0.00    +0.000 A 
ENDBRANCH   8  11
ENDBRANCH   3   7
BRANCH   6  17
ATOM     17  N   UNL     1       5.571   4.813  16.560  0.00  0.00    +0.000 N 
ATOM     18  C   UNL     1       4.872   4.044  15.523  0.00  0.00    +0.000 C 
BRANCH  17  19
ATOM     19  S   UNL     1       7.196   5.174  16.302  0.00  0.00    +0.000 S 
ATOM     20  C   UNL     1       7.328   4.886  14.552  0.00  0.00    +0.000 C 
ATOM     21  O   UNL     1       7.397   6.593  16.521  0.00  0.00    +0.000 OA
ATOM     22  O   UNL     1       8.033   4.196  16.966  0.00  0.00    +0.000 OA
ENDBRANCH  17  19
ENDBRANCH   6  17
BRANCH   1  23
ATOM     23  O   UNL     1       5.434   4.101  19.318  0.00  0.00    +0.000 OA
BRANCH  23  24
ATOM     24  C   UNL     1       4.630   3.154  20.053  0.00  0.00    +0.000 C 
BRANCH  24  31
ATOM     25  C   UNL     1       2.275   3.537  21.805  0.00  0.00    +0.000 C 
ATOM     26  C   UNL     1       2.135   2.967  20.412  0.00  0.00    +0.000 A 
ATOM     27  C   UNL     1       0.865   2.581  19.969  0.00  0.00    +0.000 A 
ATOM     28  C   UNL     1       0.680   2.142  18.660  0.00  0.00    +0.000 A 
ATOM     29  C   UNL     1       1.754   2.113  17.773  0.00  0.00    +0.000 A 
ATOM     30  C   UNL     1       3.032   2.469  18.205  0.00  0.00    +0.000 A 
ATOM     31  C   UNL     1       3.242   2.863  19.530  0.00  0.00    +0.000 A 
ENDBRANCH  24  31
ENDBRANCH  23  24
ENDBRANCH   1  23
TORSDOF 7
ENDMDL
MODEL 4
REMARK VINA RESULT:      -8.5      2.433      4.621
REMARK  Name = 
REMARK  10 active torsions:
REMARK  status: ('A' for Active; 'I' for Inactive)
REMARK    1  A    between atoms: C_1  and  C_2
REMARK    2  A    between atoms: C_7  and  C_8
REMARK    3  A    between atoms: C_8  and  O_9
REMARK    4  A    between atoms: O_9  and  C_10
REMARK    5  A    between atoms: C_12  and  N_13
REMARK    6  A    between atoms: C_14  and  C_16
REMARK    7  A    between atoms: C_24  and  N_25
REMARK    8  A    between atoms: N_25  and  C_26
REMARK    9  A    between atoms: N_25  and  S_27
REMARK   10  A    between atoms: S_27  and  C_28
REMARK                            x       y       z     vdW  Elec       q    Type
REMARK                         _______ _______ _______ _____ _____    ______ ____
ROOT
ATOM      1  C   UNL     1       2.690   6.563  18.437  0.00  0.00    +0.000 A 
ATOM      2  C   UNL     1       2.226   7.809  18.905  0.00  0.00    +0.000 A 
ATOM      3  C   UNL     1       1.622   7.984  20.148  0.00  0.00    +0.000 A 
ATOM      4  C   UNL     1       1.438   6.853  20.940  0.00  0.00    +0.000 A 
ATOM      5  C   UNL     1       1.934   5.602  20.522  0.00  0.00    +0.000 A 
ATOM      6  C   UNL     1       2.576   5.449  19.281  0.00  0.00    +0.000 A 
ENDROOT
BRANCH   3   7
ATOM      7  N   UNL     1       1.205   9.264  20.609  0.00  0.00    +0.000 N 
ATOM      8  C   UNL     1       0.134   9.494  21.477  0.00  0.00    +0.000 C 
ATOM      9  O   UNL     1      -0.602   8.636  21.960  0.00  0.00    +0.000 OA
ATOM     10  H   UNL     1       1.624  10.065  20.156  0.00  0.00    +0.000 HD
BRANCH   8  11
ATOM     11  C   UNL     1      -0.198  10.911  21.801  0.00  0.00    +0.000 A 
ATOM     12  C   UNL     1      -1.164  11.143  22.795  0.00  0.00    +0.000 A 
ATOM     13  C   UNL     1      -1.489  12.442  23.186  0.00  0.00    +0.000 A 
ATOM     14  C   UNL     1      -0.843  13.523  22.593  0.00  0.00    +0.000 A 
ATOM     15  C   UNL     1       0.129  13.303  21.614  0.00  0.00    +0.000 A 
ATOM     16  C   UNL     1       0.456  11.999  21.216  0.00  0.00    +0.000 A 
ENDBRANCH   8  11
ENDBRANCH   3   7
BRANCH   6  17
ATOM     17  N   UNL     1       3.140   4.173  18.934  0.00  0.00    +0.000 N 
ATOM     18  C   UNL     1       4.365   3.711  19.599  0.00  0.00    +0.000 C 
BRANCH  17  19
ATOM     19  S   UNL     1       2.180   3.014  18.175  0.00  0.00    +0.000 S 
ATOM     20  C   UNL     1       1.432   2.227  19.584  0.00  0.00    +0.000 C 
ATOM     21  O   UNL     1       1.123   3.691  17.448  0.00  0.00    +0.000 OA
ATOM     22  O   UNL     1       3.015   2.028  17.521  0.00  0.00    +0.000 OA
ENDBRANCH  17  19
ENDBRANCH   6  17
BRANCH   1  23
ATOM     23  O   UNL     1       3.241   6.412  17.170  0.00  0.00    +0.000 OA
BRANCH  23  24
ATOM     24  C   UNL     1       4.520   7.068  17.038  0.00  0.00    +0.000 C 
BRANCH  24  31
ATOM     25  C   UNL     1       5.478   5.198  14.953  0.00  0.00    +0.000 C 
ATOM     26  C   UNL     1       6.150   5.281  16.305  0.00  0.00    +0.000 A 
ATOM     27  C   UNL     1       7.222   4.423  16.575  0.00  0.00    +0.000 A 
ATOM     28  C   UNL     1       7.928   4.535  17.771  0.00  0.00    +0.000 A 
ATOM     29  C   UNL     1       7.590   5.523  18.694  0.00  0.00    +0.000 A 
ATOM     30  C   UNL     1       6.508   6.369  18.452  0.00  0.00    +0.000 A 
ATOM     31  C   UNL     1       5.759   6.236  17.279  0.00  0.00    +0.000 A 
ENDBRANCH  24  31
ENDBRANCH  23  24
ENDBRANCH   1  23
TORSDOF 7
ENDMDL
MODEL 5
REMARK VINA RESULT:      -8.4      2.432      4.876
REMARK  Name = 
REMARK  10 active torsions:
REMARK  status: ('A' for Active; 'I' for Inactive)
REMARK    1  A    between atoms: C_1  and  C_2
REMARK    2  A    between atoms: C_7  and  C_8
REMARK    3  A    between atoms: C_8  and  O_9
REMARK    4  A    between atoms: O_9  and  C_10
REMARK    5  A    between atoms: C_12  and  N_13
REMARK    6  A    between atoms: C_14  and  C_16
REMARK    7  A    between atoms: C_24  and  N_25
REMARK    8  A    between atoms: N_25  and  C_26
REMARK    9  A    between atoms: N_25  and  S_27
REMARK   10  A    between atoms: S_27  and  C_28
REMARK                            x       y       z     vdW  Elec       q    Type
REMARK                         _______ _______ _______ _____ _____    ______ ____
ROOT
ATOM      1  C   UNL     1       2.566   6.868  18.743  0.00  0.00    +0.000 A 
ATOM      2  C   UNL     1       2.110   8.054  19.355  0.00  0.00    +0.000 A 
ATOM      3  C   UNL     1       1.453   8.079  20.582  0.00  0.00    +0.000 A 
ATOM      4  C   UNL     1       1.203   6.858  21.205  0.00  0.00    +0.000 A 
ATOM      5  C   UNL     1       1.688   5.660  20.643  0.00  0.00    +0.000 A 
ATOM      6  C   UNL     1       2.384   5.654  19.422  0.00  0.00    +0.000 A 
ENDROOT
BRANCH   3   7
ATOM      7  N   UNL     1       1.046   9.298  21.194  0.00  0.00    +0.000 N 
ATOM      8  C   UNL     1       0.049  10.146  20.705  0.00  0.00    +0.000 C 
ATOM      9  O   UNL     1      -0.611   9.973  19.683  0.00  0.00    +0.000 OA
ATOM     10  H   UNL     1       1.624   9.637  21.951  0.00  0.00    +0.000 HD
BRANCH   8  11
ATOM     11  C   UNL     1      -0.199  11.416  21.447  0.00  0.00    +0.000 A 
ATOM     12  C   UNL     1       0.452  12.575  20.989  0.00  0.00    +0.000 A 
ATOM     13  C   UNL     1       0.230  13.808  21.602  0.00  0.00    +0.000 A 
ATOM     14  C   UNL     1      -0.655  13.897  22.674  0.00  0.00    +0.000 A 
ATOM     15  C   UNL     1      -1.317  12.753  23.127  0.00  0.00    +0.000 A 
ATOM     16  C   UNL     1      -1.094  11.511  22.516  0.00  0.00    +0.000 A 
ENDBRANCH   8  11
ENDBRANCH   3   7
BRANCH   6  17
ATOM     17  N   UNL     1       2.931   4.420  18.930  0.00  0.00    +0.000 N 
ATOM     18  C   UNL     1       4.085   3.813  19.607  0.00  0.00    +0.000 C 
BRANCH  17  19
ATOM     19  S   UNL     1       1.997   3.428  17.940  0.00  0.00    +0.000 S 
ATOM     20  C   UNL     1       1.123   2.470  19.157  0.00  0.00    +0.000 C 
ATOM     21  O   UNL     1       1.017   4.248  17.253  0.00  0.00    +0.000 OA
ATOM     22  O   UNL     1       2.849   2.518  17.202  0.00  0.00    +0.000 OA
ENDBRANCH  17  19
ENDBRANCH   6  17
BRANCH   1  23
ATOM     23  O   UNL     1       3.172   6.872  17.492  0.00  0.00    +0.000 OA
BRANCH  23  24
ATOM     24  C   UNL     1       4.607   6.998  17.571  0.00  0.00    +0.000 C 
BRANCH  24  31
ATOM     25  C   UNL     1       6.979   5.757  18.835  0.00  0.00    +0.000 C 
ATOM     26  C   UNL     1       6.622   5.483  17.392  0.00  0.00    +0.000 A 
ATOM     27  C   UNL     1       7.461   4.653  16.639  0.00  0.00    +0.000 A 
ATOM     28  C   UNL     1       7.115   4.299  15.336  0.00  0.00    +0.000 A 
ATOM     29  C   UNL     1       5.916   4.745  14.785  0.00  0.00    +0.000 A 
ATOM     30  C   UNL     1       5.081   5.593  15.511  0.00  0.00    +0.000 A 
ATOM     31  C   UNL     1       5.439   5.998  16.800  0.00  0.00    +0.000 A 
ENDBRANCH  24  31
ENDBRANCH  23  24
ENDBRANCH   1  23
TORSDOF 7
ENDMDL
MODEL 6
REMARK VINA RESULT:      -8.4      1.010      1.211
REMARK  Name = 
REMARK  10 active torsions:
REMARK  status: ('A' for Active; 'I' for Inactive)
REMARK    1  A    between atoms: C_1  and  C_2
REMARK    2  A    between atoms: C_7  and  C_8
REMARK    3  A    between atoms: C_8  and  O_9
REMARK    4  A    between atoms: O_9  and  C_10
REMARK    5  A    between atoms: C_12  and  N_13
REMARK    6  A    between atoms: C_14  and  C_16
REMARK    7  A    between atoms: C_24  and  N_25
REMARK    8  A    between atoms: N_25  and  C_26
REMARK    9  A    between atoms: N_25  and  S_27
REMARK   10  A    between atoms: S_27  and  C_28
REMARK                            x       y       z     vdW  Elec       q    Type
REMARK                         _______ _______ _______ _____ _____    ______ ____
ROOT
ATOM      1  C   UNL     1       4.631   5.569  18.622  0.00  0.00    +0.000 A 
ATOM      2  C   UNL     1       3.755   6.438  19.304  0.00  0.00    +0.000 A 
ATOM      3  C   UNL     1       3.101   7.504  18.691  0.00  0.00    +0.000 A 
ATOM      4  C   UNL     1       3.370   7.735  17.343  0.00  0.00    +0.000 A 
ATOM      5  C   UNL     1       4.203   6.856  16.622  0.00  0.00    +0.000 A 
ATOM      6  C   UNL     1       4.825   5.762  17.246  0.00  0.00    +0.000 A 
ENDROOT
BRANCH   3   7
ATOM      7  N   UNL     1       2.188   8.335  19.398  0.00  0.00    +0.000 N 
ATOM      8  C   UNL     1       1.484   7.960  20.545  0.00  0.00    +0.000 C 
ATOM      9  O   UNL     1       1.541   6.866  21.102  0.00  0.00    +0.000 OA
ATOM     10  H   UNL     1       1.927   9.202  18.947  0.00  0.00    +0.000 HD
BRANCH   8  11
ATOM     11  C   UNL     1       0.520   8.945  21.114  0.00  0.00    +0.000 A 
ATOM     12  C   UNL     1       0.379   8.984  22.512  0.00  0.00    +0.000 A 
ATOM     13  C   UNL     1      -0.466   9.913  23.119  0.00  0.00    +0.000 A 
ATOM     14  C   UNL     1      -1.172  10.821  22.333  0.00  0.00    +0.000 A 
ATOM     15  C   UNL     1      -1.028  10.799  20.943  0.00  0.00    +0.000 A 
ATOM     16  C   UNL     1      -0.182   9.864  20.330  0.00  0.00    +0.000 A 
ENDBRANCH   8  11
ENDBRANCH   3   7
BRANCH   6  17
ATOM     17  N   UNL     1       5.598   4.845  16.453  0.00  0.00    +0.000 N 
ATOM     18  C   UNL     1       4.917   3.913  15.546  0.00  0.00    +0.000 C 
BRANCH  17  19
ATOM     19  S   UNL     1       7.231   5.154  16.175  0.00  0.00    +0.000 S 
ATOM     20  C   UNL     1       7.338   4.829  14.429  0.00  0.00    +0.000 C 
ATOM     21  O   UNL     1       7.474   6.571  16.365  0.00  0.00    +0.000 OA
ATOM     22  O   UNL     1       8.045   4.165  16.850  0.00  0.00    +0.000 OA
ENDBRANCH  17  19
ENDBRANCH   6  17
BRANCH   1  23
ATOM     23  O   UNL     1       5.308   4.547  19.275  0.00  0.00    +0.000 OA
BRANCH  23  24
ATOM     24  C   UNL     1       4.665   3.264  19.118  0.00  0.00    +0.000 C 
BRANCH  24  31
ATOM     25  C   UNL     1       2.266   2.948  17.413  0.00  0.00    +0.000 C 
ATOM     26  C   UNL     1       2.157   3.024  18.919  0.00  0.00    +0.000 A 
ATOM     27  C   UNL     1       0.885   2.981  19.502  0.00  0.00    +0.000 A 
ATOM     28  C   UNL     1       0.749   2.951  20.889  0.00  0.00    +0.000 A 
ATOM     29  C   UNL     1       1.879   2.933  21.703  0.00  0.00    +0.000 A 
ATOM     30  C   UNL     1       3.153   3.002  21.139  0.00  0.00    +0.000 A 
ATOM     31  C   UNL     1       3.304   3.084  19.752  0.00  0.00    +0.000 A 
ENDBRANCH  24  31
ENDBRANCH  23  24
ENDBRANCH   1  23
TORSDOF 7
ENDMDL
MODEL 7
REMARK VINA RESULT:      -8.4      0.812      1.431
REMARK  Name = 
REMARK  10 active torsions:
REMARK  status: ('A' for Active; 'I' for Inactive)
REMARK    1  A    between atoms: C_1  and  C_2
REMARK    2  A    between atoms: C_7  and  C_8
REMARK    3  A    between atoms: C_8  and  O_9
REMARK    4  A    between atoms: O_9  and  C_10
REMARK    5  A    between atoms: C_12  and  N_13
REMARK    6  A    between atoms: C_14  and  C_16
REMARK    7  A    between atoms: C_24  and  N_25
REMARK    8  A    between atoms: N_25  and  C_26
REMARK    9  A    between atoms: N_25  and  S_27
REMARK   10  A    between atoms: S_27  and  C_28
REMARK                            x       y       z     vdW  Elec       q    Type
REMARK                         _______ _______ _______ _____ _____    ______ ____
ROOT
ATOM      1  C   UNL     1       4.640   5.086  18.843  0.00  0.00    +0.000 A 
ATOM      2  C   UNL     1       3.796   5.815  19.705  0.00  0.00    +0.000 A 
ATOM      3  C   UNL     1       3.094   6.952  19.311  0.00  0.00    +0.000 A 
ATOM      4  C   UNL     1       3.280   7.404  18.006  0.00  0.00    +0.000 A 
ATOM      5  C   UNL     1       4.079   6.671  17.106  0.00  0.00    +0.000 A 
ATOM      6  C   UNL     1       4.750   5.503  17.508  0.00  0.00    +0.000 A 
ENDROOT
BRANCH   3   7
ATOM      7  N   UNL     1       2.215   7.639  20.195  0.00  0.00    +0.000 N 
ATOM      8  C   UNL     1       1.514   8.806  19.882  0.00  0.00    +0.000 C 
ATOM      9  O   UNL     1       1.558   9.411  18.813  0.00  0.00    +0.000 OA
ATOM     10  H   UNL     1       2.219   7.336  21.159  0.00  0.00    +0.000 HD
BRANCH   8  11
ATOM     11  C   UNL     1       0.686   9.422  20.959  0.00  0.00    +0.000 A 
ATOM     12  C   UNL     1      -0.124  10.516  20.611  0.00  0.00    +0.000 A 
ATOM     13  C   UNL     1      -0.963  11.112  21.554  0.00  0.00    +0.000 A 
ATOM     14  C   UNL     1      -1.006  10.611  22.853  0.00  0.00    +0.000 A 
ATOM     15  C   UNL     1      -0.215   9.514  23.203  0.00  0.00    +0.000 A 
ATOM     16  C   UNL     1       0.632   8.916  22.260  0.00  0.00    +0.000 A 
ENDBRANCH   8  11
ENDBRANCH   3   7
BRANCH   6  17
ATOM     17  N   UNL     1       5.485   4.744  16.534  0.00  0.00    +0.000 N 
ATOM     18  C   UNL     1       4.763   3.974  15.513  0.00  0.00    +0.000 C 
BRANCH  17  19
ATOM     19  S   UNL     1       7.102   5.111  16.236  0.00  0.00    +0.000 S 
ATOM     20  C   UNL     1       7.201   4.790  14.490  0.00  0.00    +0.000 C 
ATOM     21  O   UNL     1       7.297   6.535  16.425  0.00  0.00    +0.000 OA
ATOM     22  O   UNL     1       7.960   4.152  16.902  0.00  0.00    +0.000 OA
ENDBRANCH  17  19
ENDBRANCH   6  17
BRANCH   1  23
ATOM     23  O   UNL     1       5.367   3.986  19.282  0.00  0.00    +0.000 OA
BRANCH  23  24
ATOM     24  C   UNL     1       4.631   3.172  20.219  0.00  0.00    +0.000 C 
BRANCH  24  31
ATOM     25  C   UNL     1       3.761   1.497  17.939  0.00  0.00    +0.000 C 
ATOM     26  C   UNL     1       2.761   2.229  18.804  0.00  0.00    +0.000 A 
ATOM     27  C   UNL     1       1.401   2.134  18.485  0.00  0.00    +0.000 A 
ATOM     28  C   UNL     1       0.443   2.714  19.313  0.00  0.00    +0.000 A 
ATOM     29  C   UNL     1       0.830   3.368  20.481  0.00  0.00    +0.000 A 
ATOM     30  C   UNL     1       2.182   3.494  20.801  0.00  0.00    +0.000 A 
ATOM     31  C   UNL     1       3.157   2.961  19.953  0.00  0.00    +0.000 A 
ENDBRANCH  24  31
ENDBRANCH  23  24
ENDBRANCH   1  23
TORSDOF 7
ENDMDL
MODEL 8
REMARK VINA RESULT:      -8.4      2.586      4.885
REMARK  Name = 
REMARK  10 active torsions:
REMARK  status: ('A' for Active; 'I' for Inactive)
REMARK    1  A    between atoms: C_1  and  C_2
REMARK    2  A    between atoms: C_7  and  C_8
REMARK    3  A    between atoms: C_8  and  O_9
REMARK    4  A    between atoms: O_9  and  C_10
REMARK    5  A    between atoms: C_12  and  N_13
REMARK    6  A    between atoms: C_14  and  C_16
REMARK    7  A    between atoms: C_24  and  N_25
REMARK    8  A    between atoms: N_25  and  C_26
REMARK    9  A    between atoms: N_25  and  S_27
REMARK   10  A    between atoms: S_27  and  C_28
REMARK                            x       y       z     vdW  Elec       q    Type
REMARK                         _______ _______ _______ _____ _____    ______ ____
ROOT
ATOM      1  C   UNL     1       2.544   6.872  18.718  0.00  0.00    +0.000 A 
ATOM      2  C   UNL     1       2.125   8.101  19.270  0.00  0.00    +0.000 A 
ATOM      3  C   UNL     1       1.493   8.210  20.506  0.00  0.00    +0.000 A 
ATOM      4  C   UNL     1       1.229   7.031  21.201  0.00  0.00    +0.000 A 
ATOM      5  C   UNL     1       1.678   5.793  20.700  0.00  0.00    +0.000 A 
ATOM      6  C   UNL     1       2.350   5.704  19.469  0.00  0.00    +0.000 A 
ENDROOT
BRANCH   3   7
ATOM      7  N   UNL     1       1.122   9.470  21.054  0.00  0.00    +0.000 N 
ATOM      8  C   UNL     1      -0.000  10.211  20.675  0.00  0.00    +0.000 C 
ATOM      9  O   UNL     1      -0.820   9.893  19.818  0.00  0.00    +0.000 OA
ATOM     10  H   UNL     1       1.804   9.918  21.651  0.00  0.00    +0.000 HD
BRANCH   8  11
ATOM     11  C   UNL     1      -0.193  11.543  21.316  0.00  0.00    +0.000 A 
ATOM     12  C   UNL     1      -1.116  11.630  22.373  0.00  0.00    +0.000 A 
ATOM     13  C   UNL     1      -1.313  12.832  23.053  0.00  0.00    +0.000 A 
ATOM     14  C   UNL     1      -0.580  13.959  22.688  0.00  0.00    +0.000 A 
ATOM     15  C   UNL     1       0.349  13.879  21.649  0.00  0.00    +0.000 A 
ATOM     16  C   UNL     1       0.547  12.674  20.961  0.00  0.00    +0.000 A 
ENDBRANCH   8  11
ENDBRANCH   3   7
BRANCH   6  17
ATOM     17  N   UNL     1       2.862   4.432  19.038  0.00  0.00    +0.000 N 
ATOM     18  C   UNL     1       4.124   3.927  19.595  0.00  0.00    +0.000 C 
BRANCH  17  19
ATOM     19  S   UNL     1       1.828   3.316  18.314  0.00  0.00    +0.000 S 
ATOM     20  C   UNL     1       3.000   2.151  17.658  0.00  0.00    +0.000 C 
ATOM     21  O   UNL     1       1.079   2.636  19.353  0.00  0.00    +0.000 OA
ATOM     22  O   UNL     1       1.148   3.926  17.190  0.00  0.00    +0.000 OA
ENDBRANCH  17  19
ENDBRANCH   6  17
BRANCH   1  23
ATOM     23  O   UNL     1       3.126   6.793  17.459  0.00  0.00    +0.000 OA
BRANCH  23  24
ATOM     24  C   UNL     1       4.562   6.927  17.500  0.00  0.00    +0.000 C 
BRANCH  24  31
ATOM     25  C   UNL     1       7.389   6.431  18.223  0.00  0.00    +0.000 C 
ATOM     26  C   UNL     1       6.757   5.770  17.020  0.00  0.00    +0.000 A 
ATOM     27  C   UNL     1       7.547   4.937  16.219  0.00  0.00    +0.000 A 
ATOM     28  C   UNL     1       6.978   4.234  15.159  0.00  0.00    +0.000 A 
ATOM     29  C   UNL     1       5.611   4.332  14.908  0.00  0.00    +0.000 A 
ATOM     30  C   UNL     1       4.813   5.176  15.680  0.00  0.00    +0.000 A 
ATOM     31  C   UNL     1       5.380   5.927  16.715  0.00  0.00    +0.000 A 
ENDBRANCH  24  31
ENDBRANCH  23  24
ENDBRANCH   1  23
TORSDOF 7
ENDMDL
MODEL 9
REMARK VINA RESULT:      -8.1      4.343      9.612
REMARK  Name = 
REMARK  10 active torsions:
REMARK  status: ('A' for Active; 'I' for Inactive)
REMARK    1  A    between atoms: C_1  and  C_2
REMARK    2  A    between atoms: C_7  and  C_8
REMARK    3  A    between atoms: C_8  and  O_9
REMARK    4  A    between atoms: O_9  and  C_10
REMARK    5  A    between atoms: C_12  and  N_13
REMARK    6  A    between atoms: C_14  and  C_16
REMARK    7  A    between atoms: C_24  and  N_25
REMARK    8  A    between atoms: N_25  and  C_26
REMARK    9  A    between atoms: N_25  and  S_27
REMARK   10  A    between atoms: S_27  and  C_28
REMARK                            x       y       z     vdW  Elec       q    Type
REMARK                         _______ _______ _______ _____ _____    ______ ____
ROOT
ATOM      1  C   UNL     1      -0.642  11.101  20.830  0.00  0.00    +0.000 A 
ATOM      2  C   UNL     1       0.017   9.886  20.555  0.00  0.00    +0.000 A 
ATOM      3  C   UNL     1       0.358   8.959  21.538  0.00  0.00    +0.000 A 
ATOM      4  C   UNL     1       0.063   9.285  22.860  0.00  0.00    +0.000 A 
ATOM      5  C   UNL     1      -0.639  10.469  23.163  0.00  0.00    +0.000 A 
ATOM      6  C   UNL     1      -1.010  11.376  22.155  0.00  0.00    +0.000 A 
ENDROOT
BRANCH   3   7
ATOM      7  N   UNL     1       0.983   7.721  21.222  0.00  0.00    +0.000 N 
ATOM      8  C   UNL     1       1.807   7.498  20.115  0.00  0.00    +0.000 C 
ATOM      9  O   UNL     1       2.104   8.325  19.257  0.00  0.00    +0.000 OA
ATOM     10  H   UNL     1       0.687   6.917  21.758  0.00  0.00    +0.000 HD
BRANCH   8  11
ATOM     11  C   UNL     1       2.324   6.114  19.910  0.00  0.00    +0.000 A 
ATOM     12  C   UNL     1       3.322   5.929  18.938  0.00  0.00    +0.000 A 
ATOM     13  C   UNL     1       3.889   4.673  18.725  0.00  0.00    +0.000 A 
ATOM     14  C   UNL     1       3.470   3.588  19.492  0.00  0.00    +0.000 A 
ATOM     15  C   UNL     1       2.489   3.765  20.470  0.00  0.00    +0.000 A 
ATOM     16  C   UNL     1       1.914   5.025  20.684  0.00  0.00    +0.000 A 
ENDBRANCH   8  11
ENDBRANCH   3   7
BRANCH   6  17
ATOM     17  N   UNL     1      -1.796  12.528  22.501  0.00  0.00    +0.000 N 
ATOM     18  C   UNL     1      -3.181  12.356  22.956  0.00  0.00    +0.000 C 
BRANCH  17  19
ATOM     19  S   UNL     1      -1.029  13.983  22.867  0.00  0.00    +0.000 S 
ATOM     20  C   UNL     1      -1.826  15.079  21.715  0.00  0.00    +0.000 C 
ATOM     21  O   UNL     1      -1.428  14.395  24.199  0.00  0.00    +0.000 OA
ATOM     22  O   UNL     1       0.370  13.913  22.502  0.00  0.00    +0.000 OA
ENDBRANCH  17  19
ENDBRANCH   6  17
BRANCH   1  23
ATOM     23  O   UNL     1      -0.920  12.028  19.833  0.00  0.00    +0.000 OA
BRANCH  23  24
ATOM     24  C   UNL     1      -1.415  11.412  18.624  0.00  0.00    +0.000 C 
BRANCH  24  31
ATOM     25  C   UNL     1      -2.512  10.377  16.078  0.00  0.00    +0.000 C 
ATOM     26  C   UNL     1      -3.380  11.127  17.062  0.00  0.00    +0.000 A 
ATOM     27  C   UNL     1      -4.720  11.362  16.731  0.00  0.00    +0.000 A 
ATOM     28  C   UNL     1      -5.576  11.963  17.650  0.00  0.00    +0.000 A 
ATOM     29  C   UNL     1      -5.111  12.308  18.918  0.00  0.00    +0.000 A 
ATOM     30  C   UNL     1      -3.773  12.105  19.255  0.00  0.00    +0.000 A 
ATOM     31  C   UNL     1      -2.890  11.549  18.325  0.00  0.00    +0.000 A 
ENDBRANCH  24  31
ENDBRANCH  23  24
ENDBRANCH   1  23
TORSDOF 7
ENDMDL
