MODEL 1
REMARK VINA RESULT:      -8.1      0.000      0.000
REMARK  Name = 
REMARK  6 active torsions:
REMARK  status: ('A' for Active; 'I' for Inactive)
REMARK    1  A    between atoms: C_2  and  C_3
REMARK    2  A    between atoms: C_3  and  N_4
REMARK    3  A    between atoms: C_8  and  C_9
REMARK    4  A    between atoms: C_9  and  C_11
REMARK    5  A    between atoms: N_17  and  C_18
REMARK    6  A    between atoms: C_18  and  C_19
REMARK                            x       y       z     vdW  Elec       q    Type
REMARK                         _______ _______ _______ _____ _____    ______ ____
ROOT
ATOM      1  C   UNL     1       2.441   3.639  17.328  0.00  0.00    +0.000 C 
ENDROOT
BRANCH   1   2
ATOM      2  N   UNL     1       1.858   3.646  18.669  0.00  0.00    +0.000 N 
ATOM      3  C   UNL     1       0.944   2.723  19.124  0.00  0.00    +0.000 A 
ATOM      4  C   UNL     1       0.608   3.034  20.417  0.00  0.00    +0.000 A 
ATOM      5  C   UNL     1       1.308   4.210  20.750  0.00  0.00    +0.000 A 
ATOM      6  C   UNL     1       2.105   4.579  19.670  0.00  0.00    +0.000 A 
BRANCH   6   7
ATOM      7  C   UNL     1       2.990   5.737  19.570  0.00  0.00    +0.000 C 
ATOM      8  O   UNL     1       4.209   5.661  19.703  0.00  0.00    +0.000 OA
BRANCH   7   9
ATOM      9  C   UNL     1       2.393   7.085  19.308  0.00  0.00    +0.000 A 
ATOM     10  C   UNL     1       1.721   7.759  20.335  0.00  0.00    +0.000 A 
ATOM     11  C   UNL     1       1.153   9.015  20.096  0.00  0.00    +0.000 A 
ATOM     12  C   UNL     1       1.246   9.597  18.830  0.00  0.00    +0.000 A 
ATOM     13  C   UNL     1       1.899   8.923  17.800  0.00  0.00    +0.000 A 
ATOM     14  C   UNL     1       2.463   7.668  18.034  0.00  0.00    +0.000 A 
ENDBRANCH   7   9
ENDBRANCH   6   7
ENDBRANCH   1   2
BRANCH   1  16
ATOM     15  O   UNL     1       4.470   2.579  18.092  0.00  0.00    +0.000 OA
ATOM     16  C   UNL     1       3.939   3.372  17.319  0.00  0.00    +0.000 C 
ATOM     17  N   UNL     1       4.658   4.107  16.397  0.00  0.00    +0.000 N 
ATOM     18  H   UNL     1       4.175   4.725  15.758  0.00  0.00    +0.000 HD
BRANCH  17  19
ATOM     19  C   UNL     1       6.103   4.039  16.305  0.00  0.00    +0.000 C 
BRANCH  19  20
ATOM     20  C   UNL     1       6.746   5.230  16.974  0.00  0.00    +0.000 A 
ATOM     21  C   UNL     1       7.465   5.069  18.169  0.00  0.00    +0.000 A 
ATOM     22  C   UNL     1       8.080   6.164  18.783  0.00  0.00    +0.000 A 
ATOM     23  C   UNL     1       7.982   7.427  18.204  0.00  0.00    +0.000 A 
ATOM     24 CL   UNL     1       8.741   8.775  18.956  0.00  0.00    +0.000 Cl
ATOM     25  C   UNL     1       7.277   7.603  17.017  0.00  0.00    +0.000 A 
ATOM     26  C   UNL     1       6.659   6.508  16.405  0.00  0.00    +0.000 A 
ENDBRANCH  19  20
ENDBRANCH  17  19
ENDBRANCH   1  16
TORSDOF 6
ENDMDL
MODEL 2
REMARK VINA RESULT:      -7.8      3.260      6.714
REMARK  Name = 
REMARK  6 active torsions:
REMARK  status: ('A' for Active; 'I' for Inactive)
REMARK    1  A    between atoms: C_2  and  C_3
REMARK    2  A    between atoms: C_3  and  N_4
REMARK    3  A    between atoms: C_8  and  C_9
REMARK    4  A    between atoms: C_9  and  C_11
REMARK    5  A    between atoms: N_17  and  C_18
REMARK    6  A    between atoms: C_18  and  C_19
REMARK                            x       y       z     vdW  Elec       q    Type
REMARK                         _______ _______ _______ _____ _____    ______ ____
ROOT
ATOM      1  C   UNL     1       2.469   5.296  20.565  0.00  0.00    +0.000 C 
ENDROOT
BRANCH   1   2
ATOM      2  N   UNL     1       2.135   4.085  19.816  0.00  0.00    +0.000 N 
ATOM      3  C   UNL     1       0.890   3.499  19.801  0.00  0.00    +0.000 A 
ATOM      4  C   UNL     1       0.936   2.383  19.005  0.00  0.00    +0.000 A 
ATOM      5  C   UNL     1       2.264   2.259  18.552  0.00  0.00    +0.000 A 
ATOM      6  C   UNL     1       3.006   3.332  19.037  0.00  0.00    +0.000 A 
BRANCH   6   7
ATOM      7  C   UNL     1       4.426   3.602  18.825  0.00  0.00    +0.000 C 
ATOM      8  O   UNL     1       5.298   3.255  19.617  0.00  0.00    +0.000 OA
BRANCH   7   9
ATOM      9  C   UNL     1       4.847   4.348  17.596  0.00  0.00    +0.000 A 
ATOM     10  C   UNL     1       5.083   5.726  17.668  0.00  0.00    +0.000 A 
ATOM     11  C   UNL     1       5.468   6.432  16.523  0.00  0.00    +0.000 A 
ATOM     12  C   UNL     1       5.609   5.767  15.303  0.00  0.00    +0.000 A 
ATOM     13  C   UNL     1       5.358   4.399  15.223  0.00  0.00    +0.000 A 
ATOM     14  C   UNL     1       4.969   3.692  16.363  0.00  0.00    +0.000 A 
ENDBRANCH   7   9
ENDBRANCH   6   7
ENDBRANCH   1   2
BRANCH   1  16
ATOM     15  O   UNL     1       2.232   6.677  18.601  0.00  0.00    +0.000 OA
ATOM     16  C   UNL     1       2.137   6.580  19.821  0.00  0.00    +0.000 C 
ATOM     17  N   UNL     1       1.748   7.636  20.623  0.00  0.00    +0.000 N 
ATOM     18  H   UNL     1       1.652   7.502  21.620  0.00  0.00    +0.000 HD
BRANCH  17  19
ATOM     19  C   UNL     1       1.472   8.956  20.091  0.00  0.00    +0.000 C 
BRANCH  19  20
ATOM     20  C   UNL     1       0.517   9.711  20.982  0.00  0.00    +0.000 A 
ATOM     21  C   UNL     1      -0.161  10.842  20.498  0.00  0.00    +0.000 A 
ATOM     22  C   UNL     1      -1.063  11.534  21.312  0.00  0.00    +0.000 A 
ATOM     23  C   UNL     1      -1.295  11.099  22.614  0.00  0.00    +0.000 A 
ATOM     24 CL   UNL     1      -2.406  11.947  23.616  0.00  0.00    +0.000 Cl
ATOM     25  C   UNL     1      -0.634   9.978  23.109  0.00  0.00    +0.000 A 
ATOM     26  C   UNL     1       0.270   9.287  22.296  0.00  0.00    +0.000 A 
ENDBRANCH  19  20
ENDBRANCH  17  19
ENDBRANCH   1  16
TORSDOF 6
ENDMDL
MODEL 3
REMARK VINA RESULT:      -7.8      2.904      6.413
REMARK  Name = 
REMARK  6 active torsions:
REMARK  status: ('A' for Active; 'I' for Inactive)
REMARK    1  A    between atoms: C_2  and  C_3
REMARK    2  A    between atoms: C_3  and  N_4
REMARK    3  A    between atoms: C_8  and  C_9
REMARK    4  A    between atoms: C_9  and  C_11
REMARK    5  A    between atoms: N_17  and  C_18
REMARK    6  A    between atoms: C_18  and  C_19
REMARK                            x       y       z     vdW  Elec       q    Type
REMARK                         _______ _______ _______ _____ _____    ______ ____
ROOT
ATOM      1  C   UNL     1       4.442   6.905  18.081  0.00  0.00    +0.000 C 
ENDROOT
BRANCH   1   2
ATOM      2  N   UNL     1       4.849   5.873  17.128  0.00  0.00    +0.000 N 
ATOM      3  C   UNL     1       5.153   6.113  15.807  0.00  0.00    +0.000 A 
ATOM      4  C   UNL     1       5.486   4.924  15.208  0.00  0.00    +0.000 A 
ATOM      5  C   UNL     1       5.341   3.920  16.185  0.00  0.00    +0.000 A 
ATOM      6  C   UNL     1       4.967   4.513  17.387  0.00  0.00    +0.000 A 
BRANCH   6   7
ATOM      7  C   UNL     1       4.698   3.851  18.661  0.00  0.00    +0.000 C 
ATOM      8  O   UNL     1       5.587   3.487  19.427  0.00  0.00    +0.000 OA
BRANCH   7   9
ATOM      9  C   UNL     1       3.277   3.587  19.056  0.00  0.00    +0.000 A 
ATOM     10  C   UNL     1       2.768   4.145  20.234  0.00  0.00    +0.000 A 
ATOM     11  C   UNL     1       1.445   3.895  20.613  0.00  0.00    +0.000 A 
ATOM     12  C   UNL     1       0.631   3.081  19.824  0.00  0.00    +0.000 A 
ATOM     13  C   UNL     1       1.138   2.508  18.660  0.00  0.00    +0.000 A 
ATOM     14  C   UNL     1       2.460   2.752  18.280  0.00  0.00    +0.000 A 
ENDBRANCH   7   9
ENDBRANCH   6   7
ENDBRANCH   1   2
BRANCH   1  16
ATOM     15  O   UNL     1       2.087   6.489  17.755  0.00  0.00    +0.000 OA
ATOM     16  C   UNL     1       2.980   7.308  17.950  0.00  0.00    +0.000 C 
ATOM     17  N   UNL     1       2.738   8.665  18.039  0.00  0.00    +0.000 N 
ATOM     18  H   UNL     1       3.501   9.301  18.232  0.00  0.00    +0.000 HD
BRANCH  17  19
ATOM     19  C   UNL     1       1.417   9.233  17.857  0.00  0.00    +0.000 C 
BRANCH  19  20
ATOM     20  C   UNL     1       0.791   9.586  19.183  0.00  0.00    +0.000 A 
ATOM     21  C   UNL     1       1.129   8.867  20.341  0.00  0.00    +0.000 A 
ATOM     22  C   UNL     1       0.568   9.202  21.577  0.00  0.00    +0.000 A 
ATOM     23  C   UNL     1      -0.333  10.260  21.664  0.00  0.00    +0.000 A 
ATOM     24 CL   UNL     1      -1.022  10.677  23.184  0.00  0.00    +0.000 Cl
ATOM     25  C   UNL     1      -0.676  10.987  20.527  0.00  0.00    +0.000 A 
ATOM     26  C   UNL     1      -0.117  10.650  19.290  0.00  0.00    +0.000 A 
ENDBRANCH  19  20
ENDBRANCH  17  19
ENDBRANCH   1  16
TORSDOF 6
ENDMDL
MODEL 4
REMARK VINA RESULT:      -7.8      3.294      5.816
REMARK  Name = 
REMARK  6 active torsions:
REMARK  status: ('A' for Active; 'I' for Inactive)
REMARK    1  A    between atoms: C_2  and  C_3
REMARK    2  A    between atoms: C_3  and  N_4
REMARK    3  A    between atoms: C_8  and  C_9
REMARK    4  A    between atoms: C_9  and  C_11
REMARK    5  A    between atoms: N_17  and  C_18
REMARK    6  A    between atoms: C_18  and  C_19
REMARK                            x       y       z     vdW  Elec       q    Type
REMARK                         _______ _______ _______ _____ _____    ______ ____
ROOT
ATOM      1  C   UNL     1       6.142   7.018  17.056  0.00  0.00    +0.000 C 
ENDROOT
BRANCH   1   2
ATOM      2  N   UNL     1       6.196   5.748  16.332  0.00  0.00    +0.000 N 
ATOM      3  C   UNL     1       6.632   5.613  15.033  0.00  0.00    +0.000 A 
ATOM      4  C   UNL     1       6.542   4.292  14.674  0.00  0.00    +0.000 A 
ATOM      5  C   UNL     1       5.996   3.604  15.774  0.00  0.00    +0.000 A 
ATOM      6  C   UNL     1       5.802   4.507  16.816  0.00  0.00    +0.000 A 
BRANCH   6   7
ATOM      7  C   UNL     1       5.248   4.234  18.140  0.00  0.00    +0.000 C 
ATOM      8  O   UNL     1       5.904   4.338  19.174  0.00  0.00    +0.000 OA
BRANCH   7   9
ATOM      9  C   UNL     1       3.822   3.791  18.253  0.00  0.00    +0.000 A 
ATOM     10  C   UNL     1       3.522   2.558  18.845  0.00  0.00    +0.000 A 
ATOM     11  C   UNL     1       2.193   2.134  18.946  0.00  0.00    +0.000 A 
ATOM     12  C   UNL     1       1.161   2.933  18.449  0.00  0.00    +0.000 A 
ATOM     13  C   UNL     1       1.456   4.153  17.844  0.00  0.00    +0.000 A 
ATOM     14  C   UNL     1       2.782   4.577  17.737  0.00  0.00    +0.000 A 
ENDBRANCH   7   9
ENDBRANCH   6   7
ENDBRANCH   1   2
BRANCH   1  16
ATOM     15  O   UNL     1       8.037   6.443  18.434  0.00  0.00    +0.000 OA
ATOM     16  C   UNL     1       7.404   7.318  17.850  0.00  0.00    +0.000 C 
ATOM     17  N   UNL     1       7.768   8.651  17.888  0.00  0.00    +0.000 N 
ATOM     18  H   UNL     1       7.235   9.333  17.366  0.00  0.00    +0.000 HD
BRANCH  17  19
ATOM     19  C   UNL     1       8.896   9.127  18.664  0.00  0.00    +0.000 C 
BRANCH  19  20
ATOM     20  C   UNL     1       9.164  10.586  18.391  0.00  0.00    +0.000 A 
ATOM     21  C   UNL     1       8.202  11.375  17.741  0.00  0.00    +0.000 A 
ATOM     22  C   UNL     1       8.436  12.733  17.504  0.00  0.00    +0.000 A 
ATOM     23  C   UNL     1       9.633  13.312  17.918  0.00  0.00    +0.000 A 
ATOM     24 CL   UNL     1       9.922  14.983  17.630  0.00  0.00    +0.000 Cl
ATOM     25  C   UNL     1      10.597  12.545  18.568  0.00  0.00    +0.000 A 
ATOM     26  C   UNL     1      10.364  11.186  18.802  0.00  0.00    +0.000 A 
ENDBRANCH  19  20
ENDBRANCH  17  19
ENDBRANCH   1  16
TORSDOF 6
ENDMDL
MODEL 5
REMARK VINA RESULT:      -7.7      2.900      3.921
REMARK  Name = 
REMARK  6 active torsions:
REMARK  status: ('A' for Active; 'I' for Inactive)
REMARK    1  A    between atoms: C_2  and  C_3
REMARK    2  A    between atoms: C_3  and  N_4
REMARK    3  A    between atoms: C_8  and  C_9
REMARK    4  A    between atoms: C_9  and  C_11
REMARK    5  A    between atoms: N_17  and  C_18
REMARK    6  A    between atoms: C_18  and  C_19
REMARK                            x       y       z     vdW  Elec       q    Type
REMARK                         _______ _______ _______ _____ _____    ______ ____
ROOT
ATOM      1  C   UNL     1       5.211   5.239  19.355  0.00  0.00    +0.000 C 
ENDROOT
BRANCH   1   2
ATOM      2  N   UNL     1       3.908   4.784  18.871  0.00  0.00    +0.000 N 
ATOM      3  C   UNL     1       3.496   3.471  18.865  0.00  0.00    +0.000 A 
ATOM      4  C   UNL     1       2.230   3.408  18.339  0.00  0.00    +0.000 A 
ATOM      5  C   UNL     1       1.873   4.720  17.974  0.00  0.00    +0.000 A 
ATOM      6  C   UNL     1       2.908   5.582  18.326  0.00  0.00    +0.000 A 
BRANCH   6   7
ATOM      7  C   UNL     1       2.971   7.027  18.126  0.00  0.00    +0.000 C 
ATOM      8  O   UNL     1       3.708   7.556  17.297  0.00  0.00    +0.000 OA
BRANCH   7   9
ATOM      9  C   UNL     1       2.115   7.916  18.975  0.00  0.00    +0.000 A 
ATOM     10  C   UNL     1       1.596   9.100  18.438  0.00  0.00    +0.000 A 
ATOM     11  C   UNL     1       0.803   9.940  19.227  0.00  0.00    +0.000 A 
ATOM     12  C   UNL     1       0.534   9.605  20.555  0.00  0.00    +0.000 A 
ATOM     13  C   UNL     1       1.062   8.437  21.100  0.00  0.00    +0.000 A 
ATOM     14  C   UNL     1       1.858   7.598  20.316  0.00  0.00    +0.000 A 
ENDBRANCH   7   9
ENDBRANCH   6   7
ENDBRANCH   1   2
BRANCH   1  16
ATOM     15  O   UNL     1       7.324   4.389  18.558  0.00  0.00    +0.000 OA
ATOM     16  C   UNL     1       6.328   5.072  18.336  0.00  0.00    +0.000 C 
ATOM     17  N   UNL     1       6.151   5.767  17.156  0.00  0.00    +0.000 N 
ATOM     18  H   UNL     1       5.300   6.292  17.003  0.00  0.00    +0.000 HD
BRANCH  17  19
ATOM     19  C   UNL     1       7.152   5.787  16.108  0.00  0.00    +0.000 C 
BRANCH  19  20
ATOM     20  C   UNL     1       6.695   4.998  14.905  0.00  0.00    +0.000 A 
ATOM     21  C   UNL     1       7.486   4.949  13.747  0.00  0.00    +0.000 A 
ATOM     22  C   UNL     1       7.078   4.203  12.637  0.00  0.00    +0.000 A 
ATOM     23  C   UNL     1       5.877   3.499  12.679  0.00  0.00    +0.000 A 
ATOM     24 CL   UNL     1       5.374   2.578  11.316  0.00  0.00    +0.000 Cl
ATOM     25  C   UNL     1       5.081   3.535  13.822  0.00  0.00    +0.000 A 
ATOM     26  C   UNL     1       5.489   4.283  14.930  0.00  0.00    +0.000 A 
ENDBRANCH  19  20
ENDBRANCH  17  19
ENDBRANCH   1  16
TORSDOF 6
ENDMDL
MODEL 6
REMARK VINA RESULT:      -7.7      2.975      3.929
REMARK  Name = 
REMARK  6 active torsions:
REMARK  status: ('A' for Active; 'I' for Inactive)
REMARK    1  A    between atoms: C_2  and  C_3
REMARK    2  A    between atoms: C_3  and  N_4
REMARK    3  A    between atoms: C_8  and  C_9
REMARK    4  A    between atoms: C_9  and  C_11
REMARK    5  A    between atoms: N_17  and  C_18
REMARK    6  A    between atoms: C_18  and  C_19
REMARK                            x       y       z     vdW  Elec       q    Type
REMARK                         _______ _______ _______ _____ _____    ______ ____
ROOT
ATOM      1  C   UNL     1       5.562   5.171  19.261  0.00  0.00    +0.000 C 
ENDROOT
BRANCH   1   2
ATOM      2  N   UNL     1       4.252   4.644  18.877  0.00  0.00    +0.000 N 
ATOM      3  C   UNL     1       3.872   3.329  19.019  0.00  0.00    +0.000 A 
ATOM      4  C   UNL     1       2.589   3.189  18.554  0.00  0.00    +0.000 A 
ATOM      5  C   UNL     1       2.187   4.450  18.074  0.00  0.00    +0.000 A 
ATOM      6  C   UNL     1       3.214   5.363  18.296  0.00  0.00    +0.000 A 
BRANCH   6   7
ATOM      7  C   UNL     1       3.236   6.782  17.950  0.00  0.00    +0.000 C 
ATOM      8  O   UNL     1       3.959   7.245  17.072  0.00  0.00    +0.000 OA
BRANCH   7   9
ATOM      9  C   UNL     1       2.350   7.727  18.703  0.00  0.00    +0.000 A 
ATOM     10  C   UNL     1       2.088   7.501  20.059  0.00  0.00    +0.000 A 
ATOM     11  C   UNL     1       1.255   8.374  20.768  0.00  0.00    +0.000 A 
ATOM     12  C   UNL     1       0.675   9.467  20.123  0.00  0.00    +0.000 A 
ATOM     13  C   UNL     1       0.919   9.687  18.769  0.00  0.00    +0.000 A 
ATOM     14  C   UNL     1       1.746   8.815  18.058  0.00  0.00    +0.000 A 
ENDBRANCH   7   9
ENDBRANCH   6   7
ENDBRANCH   1   2
BRANCH   1  16
ATOM     15  O   UNL     1       7.653   4.359  18.372  0.00  0.00    +0.000 OA
ATOM     16  C   UNL     1       6.623   5.000  18.184  0.00  0.00    +0.000 C 
ATOM     17  N   UNL     1       6.354   5.643  16.991  0.00  0.00    +0.000 N 
ATOM     18  H   UNL     1       5.478   6.133  16.870  0.00  0.00    +0.000 HD
BRANCH  17  19
ATOM     19  C   UNL     1       7.291   5.654  15.885  0.00  0.00    +0.000 C 
BRANCH  19  20
ATOM     20  C   UNL     1       6.744   4.891  14.704  0.00  0.00    +0.000 A 
ATOM     21  C   UNL     1       7.508   4.755  13.533  0.00  0.00    +0.000 A 
ATOM     22  C   UNL     1       7.016   4.032  12.442  0.00  0.00    +0.000 A 
ATOM     23  C   UNL     1       5.758   3.439  12.515  0.00  0.00    +0.000 A 
ATOM     24 CL   UNL     1       5.152   2.546  11.175  0.00  0.00    +0.000 Cl
ATOM     25  C   UNL     1       4.989   3.561  13.670  0.00  0.00    +0.000 A 
ATOM     26  C   UNL     1       5.480   4.286  14.760  0.00  0.00    +0.000 A 
ENDBRANCH  19  20
ENDBRANCH  17  19
ENDBRANCH   1  16
TORSDOF 6
ENDMDL
MODEL 7
REMARK VINA RESULT:      -7.5      0.897      1.674
REMARK  Name = 
REMARK  6 active torsions:
REMARK  status: ('A' for Active; 'I' for Inactive)
REMARK    1  A    between atoms: C_2  and  C_3
REMARK    2  A    between atoms: C_3  and  N_4
REMARK    3  A    between atoms: C_8  and  C_9
REMARK    4  A    between atoms: C_9  and  C_11
REMARK    5  A    between atoms: N_17  and  C_18
REMARK    6  A    between atoms: C_18  and  C_19
REMARK                            x       y       z     vdW  Elec       q    Type
REMARK                         _______ _______ _______ _____ _____    ______ ____
ROOT
ATOM      1  C   UNL     1       3.705   2.341  18.696  0.00  0.00    +0.000 C 
ENDROOT
BRANCH   1   2
ATOM      2  N   UNL     1       2.544   2.870  19.413  0.00  0.00    +0.000 N 
ATOM      3  C   UNL     1       1.409   2.145  19.695  0.00  0.00    +0.000 A 
ATOM      4  C   UNL     1       0.527   2.951  20.368  0.00  0.00    +0.000 A 
ATOM      5  C   UNL     1       1.125   4.222  20.464  0.00  0.00    +0.000 A 
ATOM      6  C   UNL     1       2.392   4.166  19.890  0.00  0.00    +0.000 A 
BRANCH   6   7
ATOM      7  C   UNL     1       3.360   5.253  19.759  0.00  0.00    +0.000 C 
ATOM      8  O   UNL     1       4.532   5.151  20.114  0.00  0.00    +0.000 OA
BRANCH   7   9
ATOM      9  C   UNL     1       2.910   6.560  19.183  0.00  0.00    +0.000 A 
ATOM     10  C   UNL     1       3.344   6.943  17.908  0.00  0.00    +0.000 A 
ATOM     11  C   UNL     1       2.935   8.166  17.366  0.00  0.00    +0.000 A 
ATOM     12  C   UNL     1       2.101   9.014  18.097  0.00  0.00    +0.000 A 
ATOM     13  C   UNL     1       1.680   8.645  19.373  0.00  0.00    +0.000 A 
ATOM     14  C   UNL     1       2.090   7.427  19.919  0.00  0.00    +0.000 A 
ENDBRANCH   7   9
ENDBRANCH   6   7
ENDBRANCH   1   2
BRANCH   1  16
ATOM     15  O   UNL     1       3.450   3.543  16.619  0.00  0.00    +0.000 OA
ATOM     16  C   UNL     1       4.176   3.237  17.560  0.00  0.00    +0.000 C 
ATOM     17  N   UNL     1       5.489   3.658  17.654  0.00  0.00    +0.000 N 
ATOM     18  H   UNL     1       6.041   3.408  18.464  0.00  0.00    +0.000 HD
BRANCH  17  19
ATOM     19  C   UNL     1       6.127   4.450  16.621  0.00  0.00    +0.000 C 
BRANCH  19  20
ATOM     20  C   UNL     1       6.840   5.640  17.213  0.00  0.00    +0.000 A 
ATOM     21  C   UNL     1       6.724   6.906  16.615  0.00  0.00    +0.000 A 
ATOM     22  C   UNL     1       7.366   8.017  17.170  0.00  0.00    +0.000 A 
ATOM     23  C   UNL     1       8.125   7.871  18.329  0.00  0.00    +0.000 A 
ATOM     24 CL   UNL     1       8.912   9.238  19.016  0.00  0.00    +0.000 Cl
ATOM     25  C   UNL     1       8.246   6.625  18.937  0.00  0.00    +0.000 A 
ATOM     26  C   UNL     1       7.607   5.513  18.380  0.00  0.00    +0.000 A 
ENDBRANCH  19  20
ENDBRANCH  17  19
ENDBRANCH   1  16
TORSDOF 6
ENDMDL
MODEL 8
REMARK VINA RESULT:      -7.5      3.169      6.711
REMARK  Name = 
REMARK  6 active torsions:
REMARK  status: ('A' for Active; 'I' for Inactive)
REMARK    1  A    between atoms: C_2  and  C_3
REMARK    2  A    between atoms: C_3  and  N_4
REMARK    3  A    between atoms: C_8  and  C_9
REMARK    4  A    between atoms: C_9  and  C_11
REMARK    5  A    between atoms: N_17  and  C_18
REMARK    6  A    between atoms: C_18  and  C_19
REMARK                            x       y       z     vdW  Elec       q    Type
REMARK                         _______ _______ _______ _____ _____    ______ ____
ROOT
ATOM      1  C   UNL     1       2.961   5.954  19.589  0.00  0.00    +0.000 C 
ENDROOT
BRANCH   1   2
ATOM      2  N   UNL     1       2.678   4.618  19.065  0.00  0.00    +0.000 N 
ATOM      3  C   UNL     1       1.428   4.043  19.039  0.00  0.00    +0.000 A 
ATOM      4  C   UNL     1       1.530   2.789  18.491  0.00  0.00    +0.000 A 
ATOM      5  C   UNL     1       2.893   2.575  18.211  0.00  0.00    +0.000 A 
ATOM      6  C   UNL     1       3.606   3.723  18.547  0.00  0.00    +0.000 A 
BRANCH   6   7
ATOM      7  C   UNL     1       5.046   3.943  18.433  0.00  0.00    +0.000 C 
ATOM      8  O   UNL     1       5.807   3.899  19.397  0.00  0.00    +0.000 OA
BRANCH   7   9
ATOM      9  C   UNL     1       5.629   4.251  17.089  0.00  0.00    +0.000 A 
ATOM     10  C   UNL     1       6.980   4.603  16.982  0.00  0.00    +0.000 A 
ATOM     11  C   UNL     1       7.530   4.901  15.730  0.00  0.00    +0.000 A 
ATOM     12  C   UNL     1       6.732   4.859  14.585  0.00  0.00    +0.000 A 
ATOM     13  C   UNL     1       5.383   4.526  14.689  0.00  0.00    +0.000 A 
ATOM     14  C   UNL     1       4.830   4.232  15.937  0.00  0.00    +0.000 A 
ENDBRANCH   7   9
ENDBRANCH   6   7
ENDBRANCH   1   2
BRANCH   1  16
ATOM     15  O   UNL     1       3.458   7.053  17.499  0.00  0.00    +0.000 OA
ATOM     16  C   UNL     1       2.821   7.055  18.548  0.00  0.00    +0.000 C 
ATOM     17  N   UNL     1       1.947   8.070  18.885  0.00  0.00    +0.000 N 
ATOM     18  H   UNL     1       1.419   8.015  19.746  0.00  0.00    +0.000 HD
BRANCH  17  19
ATOM     19  C   UNL     1       1.752   9.238  18.049  0.00  0.00    +0.000 C 
BRANCH  19  20
ATOM     20  C   UNL     1       0.526  10.010  18.472  0.00  0.00    +0.000 A 
ATOM     21  C   UNL     1       0.562  10.831  19.611  0.00  0.00    +0.000 A 
ATOM     22  C   UNL     1      -0.564  11.564  19.997  0.00  0.00    +0.000 A 
ATOM     23  C   UNL     1      -1.733  11.483  19.244  0.00  0.00    +0.000 A 
ATOM     24 CL   UNL     1      -3.119  12.387  19.715  0.00  0.00    +0.000 Cl
ATOM     25  C   UNL     1      -1.785  10.678  18.110  0.00  0.00    +0.000 A 
ATOM     26  C   UNL     1      -0.660   9.942  17.726  0.00  0.00    +0.000 A 
ENDBRANCH  19  20
ENDBRANCH  17  19
ENDBRANCH   1  16
TORSDOF 6
ENDMDL
MODEL 9
REMARK VINA RESULT:      -7.4      3.115      6.540
REMARK  Name = 
REMARK  6 active torsions:
REMARK  status: ('A' for Active; 'I' for Inactive)
REMARK    1  A    between atoms: C_2  and  C_3
REMARK    2  A    between atoms: C_3  and  N_4
REMARK    3  A    between atoms: C_8  and  C_9
REMARK    4  A    between atoms: C_9  and  C_11
REMARK    5  A    between atoms: N_17  and  C_18
REMARK    6  A    between atoms: C_18  and  C_19
REMARK                            x       y       z     vdW  Elec       q    Type
REMARK                         _______ _______ _______ _____ _____    ______ ____
ROOT
ATOM      1  C   UNL     1       2.716   5.507  20.568  0.00  0.00    +0.000 C 
ENDROOT
BRANCH   1   2
ATOM      2  N   UNL     1       2.239   4.258  19.976  0.00  0.00    +0.000 N 
ATOM      3  C   UNL     1       0.918   3.875  19.931  0.00  0.00    +0.000 A 
ATOM      4  C   UNL     1       0.834   2.652  19.314  0.00  0.00    +0.000 A 
ATOM      5  C   UNL     1       2.151   2.257  19.009  0.00  0.00    +0.000 A 
ATOM      6  C   UNL     1       3.025   3.267  19.400  0.00  0.00    +0.000 A 
BRANCH   6   7
ATOM      7  C   UNL     1       4.481   3.280  19.284  0.00  0.00    +0.000 C 
ATOM      8  O   UNL     1       5.215   2.601  19.998  0.00  0.00    +0.000 OA
BRANCH   7   9
ATOM      9  C   UNL     1       5.120   4.169  18.261  0.00  0.00    +0.000 A 
ATOM     10  C   UNL     1       4.601   4.217  16.961  0.00  0.00    +0.000 A 
ATOM     11  C   UNL     1       5.197   5.038  15.999  0.00  0.00    +0.000 A 
ATOM     12  C   UNL     1       6.317   5.805  16.327  0.00  0.00    +0.000 A 
ATOM     13  C   UNL     1       6.848   5.747  17.614  0.00  0.00    +0.000 A 
ATOM     14  C   UNL     1       6.258   4.925  18.576  0.00  0.00    +0.000 A 
ENDBRANCH   7   9
ENDBRANCH   6   7
ENDBRANCH   1   2
BRANCH   1  16
ATOM     15  O   UNL     1       2.796   6.804  18.535  0.00  0.00    +0.000 OA
ATOM     16  C   UNL     1       2.440   6.731  19.707  0.00  0.00    +0.000 C 
ATOM     17  N   UNL     1       1.784   7.763  20.352  0.00  0.00    +0.000 N 
ATOM     18  H   UNL     1       1.481   7.647  21.309  0.00  0.00    +0.000 HD
BRANCH  17  19
ATOM     19  C   UNL     1       1.512   9.033  19.708  0.00  0.00    +0.000 C 
BRANCH  19  20
ATOM     20  C   UNL     1       0.727   9.945  20.618  0.00  0.00    +0.000 A 
ATOM     21  C   UNL     1       0.128   9.440  21.783  0.00  0.00    +0.000 A 
ATOM     22  C   UNL     1      -0.584  10.283  22.642  0.00  0.00    +0.000 A 
ATOM     23  C   UNL     1      -0.699  11.638  22.341  0.00  0.00    +0.000 A 
ATOM     24 CL   UNL     1      -1.572  12.679  23.397  0.00  0.00    +0.000 Cl
ATOM     25  C   UNL     1      -0.109  12.157  21.192  0.00  0.00    +0.000 A 
ATOM     26  C   UNL     1       0.601  11.312  20.333  0.00  0.00    +0.000 A 
ENDBRANCH  19  20
ENDBRANCH  17  19
ENDBRANCH   1  16
TORSDOF 6
ENDMDL
