MODEL 1
REMARK VINA RESULT:      -7.3      0.000      0.000
REMARK  Name = 
REMARK  8 active torsions:
REMARK  status: ('A' for Active; 'I' for Inactive)
REMARK    1  A    between atoms: C_1  and  C_2
REMARK    2  A    between atoms: C_2  and  C_3
REMARK    3  A    between atoms: C_2  and  C_4
REMARK    4  A    between atoms: C_2  and  O_5
REMARK    5  A    between atoms: O_5  and  C_6
REMARK    6  A    between atoms: N_8  and  C_9
REMARK    7  A    between atoms: N_12  and  S_13
REMARK    8  A    between atoms: S_13  and  C_16
REMARK                            x       y       z     vdW  Elec       q    Type
REMARK                         _______ _______ _______ _____ _____    ______ ____
ROOT
ATOM      1  C   UNL     1       2.630   5.678  19.477  0.00  0.00    +0.000 C 
ATOM      2  C   UNL     1       2.150   6.239  18.144  0.00  0.00    +0.000 C 
ATOM      3  C   UNL     1       2.047   7.753  18.156  0.00  0.00    +0.000 C 
ATOM      4  N   UNL     1       1.218   8.270  19.284  0.00  0.00    +0.000 NA
ATOM      5  C   UNL     1       1.534   7.668  20.619  0.00  0.00    +0.000 C 
ATOM      6  C   UNL     1       1.723   6.165  20.595  0.00  0.00    +0.000 C 
ENDROOT
BRANCH   1   9
ATOM      7  C   UNL     1       4.947   4.926  19.313  0.00  0.00    +0.000 C 
ATOM      8  O   UNL     1       4.576   3.867  18.815  0.00  0.00    +0.000 OA
ATOM      9  N   UNL     1       4.063   5.894  19.709  0.00  0.00    +0.000 N 
ATOM     10  H   UNL     1       4.447   6.788  19.980  0.00  0.00    +0.000 HD
BRANCH   7  11
ATOM     11  O   UNL     1       6.251   5.264  19.527  0.00  0.00    +0.000 OA
BRANCH  11  13
ATOM     12  C   UNL     1       8.142   6.708  18.860  0.00  0.00    +0.000 C 
ATOM     13  C   UNL     1       7.004   5.778  18.387  0.00  0.00    +0.000 C 
ATOM     14  C   UNL     1       6.077   6.458  17.360  0.00  0.00    +0.000 C 
ATOM     15  C   UNL     1       7.666   4.584  17.675  0.00  0.00    +0.000 C 
ENDBRANCH  11  13
ENDBRANCH   7  11
ENDBRANCH   1   9
BRANCH   4  16
ATOM     16  S   UNL     1       1.273  10.008  19.421  0.00  0.00    +0.000 S 
ATOM     17  O   UNL     1       1.390  10.338  20.826  0.00  0.00    +0.000 OA
ATOM     18  O   UNL     1       2.267  10.461  18.468  0.00  0.00    +0.000 OA
BRANCH  16  19
ATOM     19  C   UNL     1      -0.312  10.555  18.863  0.00  0.00    +0.000 A 
ATOM     20  C   UNL     1      -1.051  11.453  19.648  0.00  0.00    +0.000 A 
ATOM     21  C   UNL     1      -2.307  11.875  19.213  0.00  0.00    +0.000 A 
ATOM     22  C   UNL     1      -2.819  11.398  18.008  0.00  0.00    +0.000 A 
ATOM     23  C   UNL     1      -2.066  10.517  17.221  0.00  0.00    +0.000 A 
ATOM     24  C   UNL     1      -0.818  10.072  17.656  0.00  0.00    +0.000 A 
ATOM     25  O   UNL     1      -2.496  10.045  16.007  0.00  0.00    +0.000 OA
ATOM     26  C   UNL     1      -3.585  10.830  15.503  0.00  0.00    +0.000 C 
ATOM     27  C   UNL     1      -4.621  11.067  16.588  0.00  0.00    +0.000 C 
ATOM     28  O   UNL     1      -4.065  11.847  17.653  0.00  0.00    +0.000 OA
ENDBRANCH  16  19
ENDBRANCH   4  16
TORSDOF 5
ENDMDL
MODEL 2
REMARK VINA RESULT:      -7.2      3.459      5.608
REMARK  Name = 
REMARK  8 active torsions:
REMARK  status: ('A' for Active; 'I' for Inactive)
REMARK    1  A    between atoms: C_1  and  C_2
REMARK    2  A    between atoms: C_2  and  C_3
REMARK    3  A    between atoms: C_2  and  C_4
REMARK    4  A    between atoms: C_2  and  O_5
REMARK    5  A    between atoms: O_5  and  C_6
REMARK    6  A    between atoms: N_8  and  C_9
REMARK    7  A    between atoms: N_12  and  S_13
REMARK    8  A    between atoms: S_13  and  C_16
REMARK                            x       y       z     vdW  Elec       q    Type
REMARK                         _______ _______ _______ _____ _____    ______ ____
ROOT
ATOM      1  C   UNL     1       6.694   5.254  16.637  0.00  0.00    +0.000 C 
ATOM      2  C   UNL     1       6.754   4.839  18.101  0.00  0.00    +0.000 C 
ATOM      3  C   UNL     1       5.375   4.659  18.710  0.00  0.00    +0.000 C 
ATOM      4  N   UNL     1       4.501   5.855  18.529  0.00  0.00    +0.000 NA
ATOM      5  C   UNL     1       4.487   6.415  17.139  0.00  0.00    +0.000 C 
ATOM      6  C   UNL     1       5.856   6.514  16.495  0.00  0.00    +0.000 C 
ENDROOT
BRANCH   1   9
ATOM      7  C   UNL     1       6.635   4.242  14.415  0.00  0.00    +0.000 C 
ATOM      8  O   UNL     1       7.195   5.227  13.943  0.00  0.00    +0.000 OA
ATOM      9  N   UNL     1       6.309   4.156  15.743  0.00  0.00    +0.000 N 
ATOM     10  H   UNL     1       5.977   3.263  16.080  0.00  0.00    +0.000 HD
BRANCH   7  11
ATOM     11  O   UNL     1       6.278   3.138  13.698  0.00  0.00    +0.000 OA
BRANCH  11  13
ATOM     12  C   UNL     1       7.168   4.298  11.706  0.00  0.00    +0.000 C 
ATOM     13  C   UNL     1       6.127   3.300  12.254  0.00  0.00    +0.000 C 
ATOM     14  C   UNL     1       4.684   3.689  11.879  0.00  0.00    +0.000 C 
ATOM     15  C   UNL     1       6.415   1.940  11.590  0.00  0.00    +0.000 C 
ENDBRANCH  11  13
ENDBRANCH   7  11
ENDBRANCH   1   9
BRANCH   4  16
ATOM     16  S   UNL     1       2.857   5.573  19.039  0.00  0.00    +0.000 S 
ATOM     17  O   UNL     1       2.159   4.925  17.948  0.00  0.00    +0.000 OA
ATOM     18  O   UNL     1       2.937   4.948  20.344  0.00  0.00    +0.000 OA
BRANCH  16  19
ATOM     19  C   UNL     1       2.166   7.187  19.245  0.00  0.00    +0.000 A 
ATOM     20  C   UNL     1       2.057   8.041  18.137  0.00  0.00    +0.000 A 
ATOM     21  C   UNL     1       1.523   9.318  18.303  0.00  0.00    +0.000 A 
ATOM     22  C   UNL     1       1.107   9.737  19.566  0.00  0.00    +0.000 A 
ATOM     23  C   UNL     1       1.203   8.871  20.663  0.00  0.00    +0.000 A 
ATOM     24  C   UNL     1       1.754   7.599  20.513  0.00  0.00    +0.000 A 
ATOM     25  O   UNL     1       0.774   9.209  21.921  0.00  0.00    +0.000 OA
ATOM     26  C   UNL     1      -0.086  10.355  21.884  0.00  0.00    +0.000 C 
ATOM     27  C   UNL     1       0.513  11.446  21.014  0.00  0.00    +0.000 C 
ATOM     28  O   UNL     1       0.606  11.010  19.653  0.00  0.00    +0.000 OA
ENDBRANCH  16  19
ENDBRANCH   4  16
TORSDOF 5
ENDMDL
MODEL 3
REMARK VINA RESULT:      -7.1      3.354      5.307
REMARK  Name = 
REMARK  8 active torsions:
REMARK  status: ('A' for Active; 'I' for Inactive)
REMARK    1  A    between atoms: C_1  and  C_2
REMARK    2  A    between atoms: C_2  and  C_3
REMARK    3  A    between atoms: C_2  and  C_4
REMARK    4  A    between atoms: C_2  and  O_5
REMARK    5  A    between atoms: O_5  and  C_6
REMARK    6  A    between atoms: N_8  and  C_9
REMARK    7  A    between atoms: N_12  and  S_13
REMARK    8  A    between atoms: S_13  and  C_16
REMARK                            x       y       z     vdW  Elec       q    Type
REMARK                         _______ _______ _______ _____ _____    ______ ____
ROOT
ATOM      1  C   UNL     1       6.500   5.684  16.567  0.00  0.00    +0.000 C 
ATOM      2  C   UNL     1       6.672   5.272  18.023  0.00  0.00    +0.000 C 
ATOM      3  C   UNL     1       5.347   4.964  18.698  0.00  0.00    +0.000 C 
ATOM      4  N   UNL     1       4.358   6.074  18.569  0.00  0.00    +0.000 NA
ATOM      5  C   UNL     1       4.225   6.635  17.185  0.00  0.00    +0.000 C 
ATOM      6  C   UNL     1       5.544   6.861  16.475  0.00  0.00    +0.000 C 
ENDROOT
BRANCH   1   9
ATOM      7  C   UNL     1       6.846   4.435  14.497  0.00  0.00    +0.000 C 
ATOM      8  O   UNL     1       7.675   5.261  14.128  0.00  0.00    +0.000 OA
ATOM      9  N   UNL     1       6.174   4.557  15.684  0.00  0.00    +0.000 N 
ATOM     10  H   UNL     1       5.613   3.771  15.981  0.00  0.00    +0.000 HD
BRANCH   7  11
ATOM     11  O   UNL     1       6.499   3.320  13.792  0.00  0.00    +0.000 OA
BRANCH  11  13
ATOM     12  C   UNL     1       7.182   4.565  11.771  0.00  0.00    +0.000 C 
ATOM     13  C   UNL     1       6.255   3.483  12.362  0.00  0.00    +0.000 C 
ATOM     14  C   UNL     1       4.767   3.761  12.073  0.00  0.00    +0.000 C 
ATOM     15  C   UNL     1       6.609   2.156  11.664  0.00  0.00    +0.000 C 
ENDBRANCH  11  13
ENDBRANCH   7  11
ENDBRANCH   1   9
BRANCH   4  16
ATOM     16  S   UNL     1       2.775   5.641  19.157  0.00  0.00    +0.000 S 
ATOM     17  O   UNL     1       2.013   5.124  18.039  0.00  0.00    +0.000 OA
ATOM     18  O   UNL     1       2.987   4.838  20.344  0.00  0.00    +0.000 OA
BRANCH  16  19
ATOM     19  C   UNL     1       2.043   7.172  19.653  0.00  0.00    +0.000 A 
ATOM     20  C   UNL     1       1.508   7.298  20.944  0.00  0.00    +0.000 A 
ATOM     21  C   UNL     1       0.920   8.501  21.331  0.00  0.00    +0.000 A 
ATOM     22  C   UNL     1       0.864   9.565  20.433  0.00  0.00    +0.000 A 
ATOM     23  C   UNL     1       1.417   9.437  19.152  0.00  0.00    +0.000 A 
ATOM     24  C   UNL     1       1.989   8.231  18.747  0.00  0.00    +0.000 A 
ATOM     25  O   UNL     1       1.430  10.459  18.238  0.00  0.00    +0.000 OA
ATOM     26  C   UNL     1       1.163  11.719  18.867  0.00  0.00    +0.000 C 
ATOM     27  C   UNL     1      -0.029  11.608  19.801  0.00  0.00    +0.000 C 
ATOM     28  O   UNL     1       0.259  10.711  20.880  0.00  0.00    +0.000 OA
ENDBRANCH  16  19
ENDBRANCH   4  16
TORSDOF 5
ENDMDL
MODEL 4
REMARK VINA RESULT:      -7.0      2.472      8.818
REMARK  Name = 
REMARK  8 active torsions:
REMARK  status: ('A' for Active; 'I' for Inactive)
REMARK    1  A    between atoms: C_1  and  C_2
REMARK    2  A    between atoms: C_2  and  C_3
REMARK    3  A    between atoms: C_2  and  C_4
REMARK    4  A    between atoms: C_2  and  O_5
REMARK    5  A    between atoms: O_5  and  C_6
REMARK    6  A    between atoms: N_8  and  C_9
REMARK    7  A    between atoms: N_12  and  S_13
REMARK    8  A    between atoms: S_13  and  C_16
REMARK                            x       y       z     vdW  Elec       q    Type
REMARK                         _______ _______ _______ _____ _____    ______ ____
ROOT
ATOM      1  C   UNL     1       0.947   9.801  18.833  0.00  0.00    +0.000 C 
ATOM      2  C   UNL     1       2.128   9.631  17.885  0.00  0.00    +0.000 C 
ATOM      3  C   UNL     1       2.517   8.175  17.700  0.00  0.00    +0.000 C 
ATOM      4  N   UNL     1       2.762   7.472  18.993  0.00  0.00    +0.000 NA
ATOM      5  C   UNL     1       1.710   7.695  20.036  0.00  0.00    +0.000 C 
ATOM      6  C   UNL     1       1.255   9.136  20.163  0.00  0.00    +0.000 C 
ENDROOT
BRANCH   1   9
ATOM      7  C   UNL     1      -1.464  10.098  18.583  0.00  0.00    +0.000 C 
ATOM      8  O   UNL     1      -1.447  10.999  19.418  0.00  0.00    +0.000 OA
ATOM      9  N   UNL     1      -0.334   9.409  18.232  0.00  0.00    +0.000 N 
ATOM     10  H   UNL     1      -0.402   8.781  17.444  0.00  0.00    +0.000 HD
BRANCH   7  11
ATOM     11  O   UNL     1      -2.580   9.683  17.917  0.00  0.00    +0.000 OA
BRANCH  11  13
ATOM     12  C   UNL     1      -4.434  11.128  17.161  0.00  0.00    +0.000 C 
ATOM     13  C   UNL     1      -3.056  10.522  16.822  0.00  0.00    +0.000 C 
ATOM     14  C   UNL     1      -3.063   9.755  15.486  0.00  0.00    +0.000 C 
ATOM     15  C   UNL     1      -2.075  11.699  16.662  0.00  0.00    +0.000 C 
ENDBRANCH  11  13
ENDBRANCH   7  11
ENDBRANCH   1   9
BRANCH   4  16
ATOM     16  S   UNL     1       3.001   5.756  18.793  0.00  0.00    +0.000 S 
ATOM     17  O   UNL     1       3.373   5.207  20.081  0.00  0.00    +0.000 OA
ATOM     18  O   UNL     1       1.837   5.262  18.085  0.00  0.00    +0.000 OA
BRANCH  16  19
ATOM     19  C   UNL     1       4.398   5.617  17.718  0.00  0.00    +0.000 A 
ATOM     20  C   UNL     1       5.633   6.151  18.115  0.00  0.00    +0.000 A 
ATOM     21  C   UNL     1       6.731   6.052  17.262  0.00  0.00    +0.000 A 
ATOM     22  C   UNL     1       6.592   5.430  16.023  0.00  0.00    +0.000 A 
ATOM     23  C   UNL     1       5.360   4.883  15.643  0.00  0.00    +0.000 A 
ATOM     24  C   UNL     1       4.250   4.994  16.479  0.00  0.00    +0.000 A 
ATOM     25  O   UNL     1       5.169   4.222  14.456  0.00  0.00    +0.000 OA
ATOM     26  C   UNL     1       6.421   3.853  13.863  0.00  0.00    +0.000 C 
ATOM     27  C   UNL     1       7.390   5.022  13.885  0.00  0.00    +0.000 C 
ATOM     28  O   UNL     1       7.712   5.383  15.233  0.00  0.00    +0.000 OA
ENDBRANCH  16  19
ENDBRANCH   4  16
TORSDOF 5
ENDMDL
MODEL 5
REMARK VINA RESULT:      -7.0      2.302      8.815
REMARK  Name = 
REMARK  8 active torsions:
REMARK  status: ('A' for Active; 'I' for Inactive)
REMARK    1  A    between atoms: C_1  and  C_2
REMARK    2  A    between atoms: C_2  and  C_3
REMARK    3  A    between atoms: C_2  and  C_4
REMARK    4  A    between atoms: C_2  and  O_5
REMARK    5  A    between atoms: O_5  and  C_6
REMARK    6  A    between atoms: N_8  and  C_9
REMARK    7  A    between atoms: N_12  and  S_13
REMARK    8  A    between atoms: S_13  and  C_16
REMARK                            x       y       z     vdW  Elec       q    Type
REMARK                         _______ _______ _______ _____ _____    ______ ____
ROOT
ATOM      1  C   UNL     1       0.920   9.774  19.049  0.00  0.00    +0.000 C 
ATOM      2  C   UNL     1       2.103   9.472  18.138  0.00  0.00    +0.000 C 
ATOM      3  C   UNL     1       2.393   7.985  18.038  0.00  0.00    +0.000 C 
ATOM      4  N   UNL     1       2.565   7.337  19.371  0.00  0.00    +0.000 NA
ATOM      5  C   UNL     1       1.512   7.688  20.377  0.00  0.00    +0.000 C 
ATOM      6  C   UNL     1       1.157   9.161  20.419  0.00  0.00    +0.000 C 
ENDROOT
BRANCH   1   9
ATOM      7  C   UNL     1      -1.474  10.179  18.785  0.00  0.00    +0.000 C 
ATOM      8  O   UNL     1      -1.421  11.080  19.617  0.00  0.00    +0.000 OA
ATOM      9  N   UNL     1      -0.374   9.439  18.441  0.00  0.00    +0.000 N 
ATOM     10  H   UNL     1      -0.466   8.813  17.654  0.00  0.00    +0.000 HD
BRANCH   7  11
ATOM     11  O   UNL     1      -2.603   9.814  18.114  0.00  0.00    +0.000 OA
BRANCH  11  13
ATOM     12  C   UNL     1      -2.924   9.682  15.668  0.00  0.00    +0.000 C 
ATOM     13  C   UNL     1      -2.951  10.581  16.921  0.00  0.00    +0.000 C 
ATOM     14  C   UNL     1      -2.054  11.826  16.772  0.00  0.00    +0.000 C 
ATOM     15  C   UNL     1      -4.398  11.085  17.084  0.00  0.00    +0.000 C 
ENDBRANCH  11  13
ENDBRANCH   7  11
ENDBRANCH   1   9
BRANCH   4  16
ATOM     16  S   UNL     1       2.687   5.600  19.266  0.00  0.00    +0.000 S 
ATOM     17  O   UNL     1       2.903   5.090  20.604  0.00  0.00    +0.000 OA
ATOM     18  O   UNL     1       1.554   5.158  18.478  0.00  0.00    +0.000 OA
BRANCH  16  19
ATOM     19  C   UNL     1       4.156   5.307  18.328  0.00  0.00    +0.000 A 
ATOM     20  C   UNL     1       5.406   5.353  18.965  0.00  0.00    +0.000 A 
ATOM     21  C   UNL     1       6.565   5.134  18.222  0.00  0.00    +0.000 A 
ATOM     22  C   UNL     1       6.474   4.876  16.856  0.00  0.00    +0.000 A 
ATOM     23  C   UNL     1       5.221   4.814  16.231  0.00  0.00    +0.000 A 
ATOM     24  C   UNL     1       4.056   5.052  16.961  0.00  0.00    +0.000 A 
ATOM     25  O   UNL     1       5.063   4.524  14.900  0.00  0.00    +0.000 OA
ATOM     26  C   UNL     1       6.255   3.950  14.350  0.00  0.00    +0.000 C 
ATOM     27  C   UNL     1       7.477   4.749  14.770  0.00  0.00    +0.000 C 
ATOM     28  O   UNL     1       7.657   4.685  16.189  0.00  0.00    +0.000 OA
ENDBRANCH  16  19
ENDBRANCH   4  16
TORSDOF 5
ENDMDL
MODEL 6
REMARK VINA RESULT:      -6.9      0.839      1.780
REMARK  Name = 
REMARK  8 active torsions:
REMARK  status: ('A' for Active; 'I' for Inactive)
REMARK    1  A    between atoms: C_1  and  C_2
REMARK    2  A    between atoms: C_2  and  C_3
REMARK    3  A    between atoms: C_2  and  C_4
REMARK    4  A    between atoms: C_2  and  O_5
REMARK    5  A    between atoms: O_5  and  C_6
REMARK    6  A    between atoms: N_8  and  C_9
REMARK    7  A    between atoms: N_12  and  S_13
REMARK    8  A    between atoms: S_13  and  C_16
REMARK                            x       y       z     vdW  Elec       q    Type
REMARK                         _______ _______ _______ _____ _____    ______ ____
ROOT
ATOM      1  C   UNL     1       2.747   5.595  19.565  0.00  0.00    +0.000 C 
ATOM      2  C   UNL     1       2.215   5.910  18.172  0.00  0.00    +0.000 C 
ATOM      3  C   UNL     1       2.042   7.400  17.942  0.00  0.00    +0.000 C 
ATOM      4  N   UNL     1       1.211   8.057  18.993  0.00  0.00    +0.000 NA
ATOM      5  C   UNL     1       1.581   7.695  20.399  0.00  0.00    +0.000 C 
ATOM      6  C   UNL     1       1.840   6.217  20.614  0.00  0.00    +0.000 C 
ENDROOT
BRANCH   1   9
ATOM      7  C   UNL     1       5.096   4.945  19.411  0.00  0.00    +0.000 C 
ATOM      8  O   UNL     1       4.768   3.817  19.054  0.00  0.00    +0.000 OA
ATOM      9  N   UNL     1       4.173   5.908  19.721  0.00  0.00    +0.000 N 
ATOM     10  H   UNL     1       4.516   6.846  19.872  0.00  0.00    +0.000 HD
BRANCH   7  11
ATOM     11  O   UNL     1       6.385   5.370  19.540  0.00  0.00    +0.000 OA
BRANCH  11  13
ATOM     12  C   UNL     1       7.712   4.577  17.612  0.00  0.00    +0.000 C 
ATOM     13  C   UNL     1       7.075   5.790  18.323  0.00  0.00    +0.000 C 
ATOM     14  C   UNL     1       8.097   6.907  18.612  0.00  0.00    +0.000 C 
ATOM     15  C   UNL     1       6.026   6.377  17.359  0.00  0.00    +0.000 C 
ENDBRANCH  11  13
ENDBRANCH   7  11
ENDBRANCH   1   9
BRANCH   4  16
ATOM     16  S   UNL     1       1.187   9.795  18.846  0.00  0.00    +0.000 S 
ATOM     17  O   UNL     1       1.407  10.354  20.163  0.00  0.00    +0.000 OA
ATOM     18  O   UNL     1       2.070  10.123  17.744  0.00  0.00    +0.000 OA
BRANCH  16  19
ATOM     19  C   UNL     1      -0.467  10.183  18.358  0.00  0.00    +0.000 A 
ATOM     20  C   UNL     1      -1.000   9.610  17.194  0.00  0.00    +0.000 A 
ATOM     21  C   UNL     1      -2.300   9.926  16.803  0.00  0.00    +0.000 A 
ATOM     22  C   UNL     1      -3.057  10.811  17.568  0.00  0.00    +0.000 A 
ATOM     23  C   UNL     1      -2.524  11.365  18.739  0.00  0.00    +0.000 A 
ATOM     24  C   UNL     1      -1.218  11.072  19.128  0.00  0.00    +0.000 A 
ATOM     25  O   UNL     1      -3.233  12.209  19.556  0.00  0.00    +0.000 OA
ATOM     26  C   UNL     1      -4.636  12.148  19.272  0.00  0.00    +0.000 C 
ATOM     27  C   UNL     1      -4.882  12.224  17.775  0.00  0.00    +0.000 C 
ATOM     28  O   UNL     1      -4.321  11.085  17.113  0.00  0.00    +0.000 OA
ENDBRANCH  16  19
ENDBRANCH   4  16
TORSDOF 5
ENDMDL
MODEL 7
REMARK VINA RESULT:      -6.5      3.066      9.412
REMARK  Name = 
REMARK  8 active torsions:
REMARK  status: ('A' for Active; 'I' for Inactive)
REMARK    1  A    between atoms: C_1  and  C_2
REMARK    2  A    between atoms: C_2  and  C_3
REMARK    3  A    between atoms: C_2  and  C_4
REMARK    4  A    between atoms: C_2  and  O_5
REMARK    5  A    between atoms: O_5  and  C_6
REMARK    6  A    between atoms: N_8  and  C_9
REMARK    7  A    between atoms: N_12  and  S_13
REMARK    8  A    between atoms: S_13  and  C_16
REMARK                            x       y       z     vdW  Elec       q    Type
REMARK                         _______ _______ _______ _____ _____    ______ ____
ROOT
ATOM      1  C   UNL     1      -1.730  12.644  19.770  0.00  0.00    +0.000 C 
ATOM      2  C   UNL     1      -1.466  11.513  18.784  0.00  0.00    +0.000 C 
ATOM      3  C   UNL     1      -0.958  10.256  19.468  0.00  0.00    +0.000 C 
ATOM      4  N   UNL     1       0.235  10.505  20.328  0.00  0.00    +0.000 NA
ATOM      5  C   UNL     1       0.113  11.689  21.239  0.00  0.00    +0.000 C 
ATOM      6  C   UNL     1      -0.476  12.922  20.582  0.00  0.00    +0.000 C 
ENDROOT
BRANCH   1   9
ATOM      7  C   UNL     1      -3.586  13.536  21.084  0.00  0.00    +0.000 C 
ATOM      8  O   UNL     1      -3.149  14.675  20.941  0.00  0.00    +0.000 OA
ATOM      9  N   UNL     1      -2.946  12.441  20.567  0.00  0.00    +0.000 N 
ATOM     10  H   UNL     1      -3.435  11.558  20.607  0.00  0.00    +0.000 HD
BRANCH   7  11
ATOM     11  O   UNL     1      -4.732  13.226  21.755  0.00  0.00    +0.000 OA
BRANCH  11  13
ATOM     12  C   UNL     1      -4.782  14.906  23.565  0.00  0.00    +0.000 C 
ATOM     13  C   UNL     1      -4.728  13.407  23.203  0.00  0.00    +0.000 C 
ATOM     14  C   UNL     1      -3.533  12.686  23.858  0.00  0.00    +0.000 C 
ATOM     15  C   UNL     1      -6.008  12.762  23.768  0.00  0.00    +0.000 C 
ENDBRANCH  11  13
ENDBRANCH   7  11
ENDBRANCH   1   9
BRANCH   4  16
ATOM     16  S   UNL     1       0.688   9.112  21.274  0.00  0.00    +0.000 S 
ATOM     17  O   UNL     1       1.602   9.555  22.307  0.00  0.00    +0.000 OA
ATOM     18  O   UNL     1      -0.546   8.433  21.617  0.00  0.00    +0.000 OA
BRANCH  16  19
ATOM     19  C   UNL     1       1.589   8.081  20.155  0.00  0.00    +0.000 A 
ATOM     20  C   UNL     1       1.975   8.587  18.904  0.00  0.00    +0.000 A 
ATOM     21  C   UNL     1       2.674   7.770  18.018  0.00  0.00    +0.000 A 
ATOM     22  C   UNL     1       2.981   6.459  18.378  0.00  0.00    +0.000 A 
ATOM     23  C   UNL     1       2.608   5.968  19.636  0.00  0.00    +0.000 A 
ATOM     24  C   UNL     1       1.890   6.770  20.523  0.00  0.00    +0.000 A 
ATOM     25  O   UNL     1       2.916   4.702  20.065  0.00  0.00    +0.000 OA
ATOM     26  C   UNL     1       3.941   4.115  19.254  0.00  0.00    +0.000 C 
ATOM     27  C   UNL     1       3.638   4.319  17.779  0.00  0.00    +0.000 C 
ATOM     28  O   UNL     1       3.658   5.712  17.449  0.00  0.00    +0.000 OA
ENDBRANCH  16  19
ENDBRANCH   4  16
TORSDOF 5
ENDMDL
MODEL 8
REMARK VINA RESULT:      -6.5      3.100      9.153
REMARK  Name = 
REMARK  8 active torsions:
REMARK  status: ('A' for Active; 'I' for Inactive)
REMARK    1  A    between atoms: C_1  and  C_2
REMARK    2  A    between atoms: C_2  and  C_3
REMARK    3  A    between atoms: C_2  and  C_4
REMARK    4  A    between atoms: C_2  and  O_5
REMARK    5  A    between atoms: O_5  and  C_6
REMARK    6  A    between atoms: N_8  and  C_9
REMARK    7  A    between atoms: N_12  and  S_13
REMARK    8  A    between atoms: S_13  and  C_16
REMARK                            x       y       z     vdW  Elec       q    Type
REMARK                         _______ _______ _______ _____ _____    ______ ____
ROOT
ATOM      1  C   UNL     1      -0.959  12.760  19.547  0.00  0.00    +0.000 C 
ATOM      2  C   UNL     1      -1.126  11.503  18.703  0.00  0.00    +0.000 C 
ATOM      3  C   UNL     1      -0.780  10.240  19.470  0.00  0.00    +0.000 C 
ATOM      4  N   UNL     1       0.575  10.291  20.091  0.00  0.00    +0.000 NA
ATOM      5  C   UNL     1       0.876  11.558  20.833  0.00  0.00    +0.000 C 
ATOM      6  C   UNL     1       0.452  12.819  20.107  0.00  0.00    +0.000 C 
ENDROOT
BRANCH   1   9
ATOM      7  C   UNL     1      -2.314  14.191  20.990  0.00  0.00    +0.000 C 
ATOM      8  O   UNL     1      -1.683  15.177  20.618  0.00  0.00    +0.000 OA
ATOM      9  N   UNL     1      -2.023  12.929  20.544  0.00  0.00    +0.000 N 
ATOM     10  H   UNL     1      -2.671  12.193  20.787  0.00  0.00    +0.000 HD
BRANCH   7  11
ATOM     11  O   UNL     1      -3.357  14.228  21.868  0.00  0.00    +0.000 OA
BRANCH  11  13
ATOM     12  C   UNL     1      -1.601  14.140  23.603  0.00  0.00    +0.000 C 
ATOM     13  C   UNL     1      -3.078  13.861  23.253  0.00  0.00    +0.000 C 
ATOM     14  C   UNL     1      -3.486  12.403  23.543  0.00  0.00    +0.000 C 
ATOM     15  C   UNL     1      -3.934  14.759  24.166  0.00  0.00    +0.000 C 
ENDBRANCH  11  13
ENDBRANCH   7  11
ENDBRANCH   1   9
BRANCH   4  16
ATOM     16  S   UNL     1       0.889   8.935  21.143  0.00  0.00    +0.000 S 
ATOM     17  O   UNL     1       1.812   9.373  22.168  0.00  0.00    +0.000 OA
ATOM     18  O   UNL     1      -0.406   8.386  21.496  0.00  0.00    +0.000 OA
BRANCH  16  19
ATOM     19  C   UNL     1       1.725   7.758  20.124  0.00  0.00    +0.000 A 
ATOM     20  C   UNL     1       2.162   8.134  18.844  0.00  0.00    +0.000 A 
ATOM     21  C   UNL     1       2.810   7.201  18.036  0.00  0.00    +0.000 A 
ATOM     22  C   UNL     1       3.015   5.904  18.503  0.00  0.00    +0.000 A 
ATOM     23  C   UNL     1       2.592   5.542  19.788  0.00  0.00    +0.000 A 
ATOM     24  C   UNL     1       1.924   6.461  20.597  0.00  0.00    +0.000 A 
ATOM     25  O   UNL     1       2.800   4.294  20.320  0.00  0.00    +0.000 OA
ATOM     26  C   UNL     1       3.789   3.573  19.574  0.00  0.00    +0.000 C 
ATOM     27  C   UNL     1       3.520   3.682  18.084  0.00  0.00    +0.000 C 
ATOM     28  O   UNL     1       3.647   5.039  17.647  0.00  0.00    +0.000 OA
ENDBRANCH  16  19
ENDBRANCH   4  16
TORSDOF 5
ENDMDL
MODEL 9
REMARK VINA RESULT:      -6.4      2.882      9.546
REMARK  Name = 
REMARK  8 active torsions:
REMARK  status: ('A' for Active; 'I' for Inactive)
REMARK    1  A    between atoms: C_1  and  C_2
REMARK    2  A    between atoms: C_2  and  C_3
REMARK    3  A    between atoms: C_2  and  C_4
REMARK    4  A    between atoms: C_2  and  O_5
REMARK    5  A    between atoms: O_5  and  C_6
REMARK    6  A    between atoms: N_8  and  C_9
REMARK    7  A    between atoms: N_12  and  S_13
REMARK    8  A    between atoms: S_13  and  C_16
REMARK                            x       y       z     vdW  Elec       q    Type
REMARK                         _______ _______ _______ _____ _____    ______ ____
ROOT
ATOM      1  C   UNL     1      -2.123  12.543  19.784  0.00  0.00    +0.000 C 
ATOM      2  C   UNL     1      -1.632  11.539  18.749  0.00  0.00    +0.000 C 
ATOM      3  C   UNL     1      -1.031  10.298  19.386  0.00  0.00    +0.000 C 
ATOM      4  N   UNL     1       0.039  10.614  20.375  0.00  0.00    +0.000 NA
ATOM      5  C   UNL     1      -0.312  11.693  21.353  0.00  0.00    +0.000 C 
ATOM      6  C   UNL     1      -0.991  12.898  20.733  0.00  0.00    +0.000 C 
ENDROOT
BRANCH   1   9
ATOM      7  C   UNL     1      -4.298  13.086  20.754  0.00  0.00    +0.000 C 
ATOM      8  O   UNL     1      -4.101  14.280  20.546  0.00  0.00    +0.000 OA
ATOM      9  N   UNL     1      -3.369  12.129  20.441  0.00  0.00    +0.000 N 
ATOM     10  H   UNL     1      -3.658  11.164  20.514  0.00  0.00    +0.000 HD
BRANCH   7  11
ATOM     11  O   UNL     1      -5.435  12.576  21.306  0.00  0.00    +0.000 OA
BRANCH  11  13
ATOM     12  C   UNL     1      -6.229  12.285  18.985  0.00  0.00    +0.000 C 
ATOM     13  C   UNL     1      -6.623  12.519  20.459  0.00  0.00    +0.000 C 
ATOM     14  C   UNL     1      -7.505  13.770  20.641  0.00  0.00    +0.000 C 
ATOM     15  C   UNL     1      -7.465  11.306  20.898  0.00  0.00    +0.000 C 
ENDBRANCH  11  13
ENDBRANCH   7  11
ENDBRANCH   1   9
BRANCH   4  16
ATOM     16  S   UNL     1       0.581   9.210  21.257  0.00  0.00    +0.000 S 
ATOM     17  O   UNL     1       1.460   9.662  22.315  0.00  0.00    +0.000 OA
ATOM     18  O   UNL     1      -0.607   8.436  21.560  0.00  0.00    +0.000 OA
BRANCH  16  19
ATOM     19  C   UNL     1       1.550   8.294  20.096  0.00  0.00    +0.000 A 
ATOM     20  C   UNL     1       1.827   8.847  18.836  0.00  0.00    +0.000 A 
ATOM     21  C   UNL     1       2.581   8.119  17.917  0.00  0.00    +0.000 A 
ATOM     22  C   UNL     1       3.049   6.851  18.254  0.00  0.00    +0.000 A 
ATOM     23  C   UNL     1       2.784   6.314  19.521  0.00  0.00    +0.000 A 
ATOM     24  C   UNL     1       2.013   7.024  20.441  0.00  0.00    +0.000 A 
ATOM     25  O   UNL     1       3.251   5.090  19.927  0.00  0.00    +0.000 OA
ATOM     26  C   UNL     1       4.304   4.628  19.073  0.00  0.00    +0.000 C 
ATOM     27  C   UNL     1       3.924   4.802  17.612  0.00  0.00    +0.000 C 
ATOM     28  O   UNL     1       3.772   6.190  17.294  0.00  0.00    +0.000 OA
ENDBRANCH  16  19
ENDBRANCH   4  16
TORSDOF 5
ENDMDL
