MODEL 1
REMARK VINA RESULT:      -8.4      0.000      0.000
REMARK  Name = 
REMARK  3 active torsions:
REMARK  status: ('A' for Active; 'I' for Inactive)
REMARK    1  A    between atoms: C_1  and  C_2
REMARK    2  A    between atoms: C_4  and  C_5
REMARK    3  A    between atoms: C_8  and  C_9
REMARK                            x       y       z     vdW  Elec       q    Type
REMARK                         _______ _______ _______ _____ _____    ______ ____
ROOT
ATOM      1  C   UNL     1       2.116   5.610  20.237  0.00  0.00    +0.000 A 
ATOM      2  N   UNL     1       1.155   5.066  20.962  0.00  0.00    +0.000 NA
ATOM      3  N   UNL     1       1.121   3.721  20.706  0.00  0.00    +0.000 NA
ATOM      4  C   UNL     1       2.061   3.455  19.828  0.00  0.00    +0.000 A 
ATOM      5  N   UNL     1       2.757   4.604  19.526  0.00  0.00    +0.000 N 
ATOM      6  C   UNL     1       3.855   4.694  18.638  0.00  0.00    +0.000 A 
ATOM      7  C   UNL     1       4.943   5.498  19.009  0.00  0.00    +0.000 A 
ATOM      8  C   UNL     1       6.013   5.683  18.134  0.00  0.00    +0.000 A 
ATOM      9  C   UNL     1       5.993   5.061  16.891  0.00  0.00    +0.000 A 
ATOM     10 BR   UNL     1       7.383   5.401  15.656  0.00  0.00    +0.000 Br
ATOM     11  C   UNL     1       4.941   4.211  16.539  0.00  0.00    +0.000 A 
ATOM     12  C   UNL     1       3.862   3.986  17.417  0.00  0.00    +0.000 A 
ATOM     13  C   UNL     1       2.697   3.163  16.907  0.00  0.00    +0.000 C 
ATOM     14  C   UNL     1       2.129   2.042  17.790  0.00  0.00    +0.000 C 
ATOM     15  C   UNL     1       2.422   2.129  19.279  0.00  0.00    +0.000 C 
ENDROOT
BRANCH   1  19
ATOM     16  C   UNL     1       0.826   9.562  19.198  0.00  0.00    +0.000 C 
ATOM     17  C   UNL     1       1.793   8.858  18.236  0.00  0.00    +0.000 C 
ATOM     18  C   UNL     1       1.837   7.372  18.536  0.00  0.00    +0.000 C 
ATOM     19  C   UNL     1       2.261   7.091  19.987  0.00  0.00    +0.000 C 
ATOM     20  C   UNL     1       1.445   7.928  21.001  0.00  0.00    +0.000 C 
ATOM     21  C   UNL     1       1.353   9.421  20.629  0.00  0.00    +0.000 C 
BRANCH  16  25
ATOM     22  C   UNL     1       0.908  14.571  18.773  0.00  0.00    +0.000 C 
ATOM     23  C   UNL     1       0.674  13.129  18.589  0.00  0.00    +0.000 A 
ATOM     24  C   UNL     1       1.452  12.024  18.797  0.00  0.00    +0.000 A 
ATOM     25  C   UNL     1       0.551  10.938  18.686  0.00  0.00    +0.000 A 
ATOM     26  N   UNL     1      -0.660  11.346  18.290  0.00  0.00    +0.000 NA
ATOM     27  O   UNL     1      -0.578  12.734  18.225  0.00  0.00    +0.000 OA
ENDBRANCH  16  25
ENDBRANCH   1  19
TORSDOF 2
ENDMDL
MODEL 2
REMARK VINA RESULT:      -8.2      3.774      8.203
REMARK  Name = 
REMARK  3 active torsions:
REMARK  status: ('A' for Active; 'I' for Inactive)
REMARK    1  A    between atoms: C_1  and  C_2
REMARK    2  A    between atoms: C_4  and  C_5
REMARK    3  A    between atoms: C_8  and  C_9
REMARK                            x       y       z     vdW  Elec       q    Type
REMARK                         _______ _______ _______ _____ _____    ______ ____
ROOT
ATOM      1  C   UNL     1       0.460   9.904  20.498  0.00  0.00    +0.000 A 
ATOM      2  N   UNL     1       1.035  10.343  21.603  0.00  0.00    +0.000 NA
ATOM      3  N   UNL     1       0.625  11.630  21.829  0.00  0.00    +0.000 NA
ATOM      4  C   UNL     1      -0.196  11.966  20.861  0.00  0.00    +0.000 A 
ATOM      5  N   UNL     1      -0.377  10.898  20.010  0.00  0.00    +0.000 N 
ATOM      6  C   UNL     1      -1.216  10.885  18.870  0.00  0.00    +0.000 A 
ATOM      7  C   UNL     1      -1.988   9.739  18.630  0.00  0.00    +0.000 A 
ATOM      8  C   UNL     1      -2.768   9.644  17.478  0.00  0.00    +0.000 A 
ATOM      9  C   UNL     1      -2.777  10.698  16.572  0.00  0.00    +0.000 A 
ATOM     10 BR   UNL     1      -3.740  10.530  14.954  0.00  0.00    +0.000 Br
ATOM     11  C   UNL     1      -2.059  11.867  16.836  0.00  0.00    +0.000 A 
ATOM     12  C   UNL     1      -1.284  11.998  18.005  0.00  0.00    +0.000 A 
ATOM     13  C   UNL     1      -0.426  13.238  18.150  0.00  0.00    +0.000 C 
ATOM     14  C   UNL     1      -0.444  14.010  19.477  0.00  0.00    +0.000 C 
ATOM     15  C   UNL     1      -0.917  13.249  20.705  0.00  0.00    +0.000 C 
ENDROOT
BRANCH   1  19
ATOM     16  C   UNL     1       3.238   7.114  18.805  0.00  0.00    +0.000 C 
ATOM     17  C   UNL     1       2.397   7.954  17.832  0.00  0.00    +0.000 C 
ATOM     18  C   UNL     1       1.775   9.129  18.562  0.00  0.00    +0.000 C 
ATOM     19  C   UNL     1       0.897   8.674  19.741  0.00  0.00    +0.000 C 
ATOM     20  C   UNL     1       1.633   7.666  20.655  0.00  0.00    +0.000 C 
ATOM     21  C   UNL     1       2.320   6.525  19.880  0.00  0.00    +0.000 C 
BRANCH  16  25
ATOM     22  C   UNL     1       5.612   4.982  14.920  0.00  0.00    +0.000 C 
ATOM     23  C   UNL     1       5.091   5.338  16.250  0.00  0.00    +0.000 A 
ATOM     24  C   UNL     1       4.805   6.532  16.851  0.00  0.00    +0.000 A 
ATOM     25  C   UNL     1       4.089   6.172  18.018  0.00  0.00    +0.000 A 
ATOM     26  N   UNL     1       4.071   4.845  18.191  0.00  0.00    +0.000 NA
ATOM     27  O   UNL     1       4.711   4.320  17.072  0.00  0.00    +0.000 OA
ENDBRANCH  16  25
ENDBRANCH   1  19
TORSDOF 2
ENDMDL
MODEL 3
REMARK VINA RESULT:      -8.1      3.813      5.783
REMARK  Name = 
REMARK  3 active torsions:
REMARK  status: ('A' for Active; 'I' for Inactive)
REMARK    1  A    between atoms: C_1  and  C_2
REMARK    2  A    between atoms: C_4  and  C_5
REMARK    3  A    between atoms: C_8  and  C_9
REMARK                            x       y       z     vdW  Elec       q    Type
REMARK                         _______ _______ _______ _____ _____    ______ ____
ROOT
ATOM      1  C   UNL     1       4.109   3.390  17.714  0.00  0.00    +0.000 A 
ATOM      2  N   UNL     1       4.029   2.104  17.419  0.00  0.00    +0.000 NA
ATOM      3  N   UNL     1       2.845   1.617  17.906  0.00  0.00    +0.000 NA
ATOM      4  C   UNL     1       2.213   2.607  18.493  0.00  0.00    +0.000 A 
ATOM      5  N   UNL     1       2.943   3.769  18.364  0.00  0.00    +0.000 N 
ATOM      6  C   UNL     1       2.560   5.042  18.850  0.00  0.00    +0.000 A 
ATOM      7  C   UNL     1       2.789   6.158  18.033  0.00  0.00    +0.000 A 
ATOM      8  C   UNL     1       2.504   7.441  18.498  0.00  0.00    +0.000 A 
ATOM      9  C   UNL     1       1.987   7.604  19.778  0.00  0.00    +0.000 A 
ATOM     10 BR   UNL     1       1.708   9.345  20.457  0.00  0.00    +0.000 Br
ATOM     11  C   UNL     1       1.700   6.492  20.574  0.00  0.00    +0.000 A 
ATOM     12  C   UNL     1       1.954   5.184  20.117  0.00  0.00    +0.000 A 
ATOM     13  C   UNL     1       1.745   4.042  21.091  0.00  0.00    +0.000 C 
ATOM     14  C   UNL     1       0.970   2.799  20.631  0.00  0.00    +0.000 C 
ATOM     15  C   UNL     1       0.880   2.563  19.132  0.00  0.00    +0.000 C 
ENDROOT
BRANCH   1  19
ATOM     16  C   UNL     1       6.544   6.905  17.996  0.00  0.00    +0.000 C 
ATOM     17  C   UNL     1       6.330   6.303  16.599  0.00  0.00    +0.000 C 
ATOM     18  C   UNL     1       5.165   5.333  16.623  0.00  0.00    +0.000 C 
ATOM     19  C   UNL     1       5.379   4.202  17.644  0.00  0.00    +0.000 C 
ATOM     20  C   UNL     1       5.792   4.745  19.033  0.00  0.00    +0.000 C 
ATOM     21  C   UNL     1       6.927   5.787  18.969  0.00  0.00    +0.000 C 
BRANCH  16  25
ATOM     22  C   UNL     1       9.709  10.596  19.275  0.00  0.00    +0.000 C 
ATOM     23  C   UNL     1       8.848   9.643  18.555  0.00  0.00    +0.000 A 
ATOM     24  C   UNL     1       8.555   8.321  18.747  0.00  0.00    +0.000 A 
ATOM     25  C   UNL     1       7.462   8.078  17.880  0.00  0.00    +0.000 A 
ATOM     26  N   UNL     1       7.205   9.139  17.107  0.00  0.00    +0.000 NA
ATOM     27  O   UNL     1       8.087  10.128  17.533  0.00  0.00    +0.000 OA
ENDBRANCH  16  25
ENDBRANCH   1  19
TORSDOF 2
ENDMDL
MODEL 4
REMARK VINA RESULT:      -7.8      3.748      8.415
REMARK  Name = 
REMARK  3 active torsions:
REMARK  status: ('A' for Active; 'I' for Inactive)
REMARK    1  A    between atoms: C_1  and  C_2
REMARK    2  A    between atoms: C_4  and  C_5
REMARK    3  A    between atoms: C_8  and  C_9
REMARK                            x       y       z     vdW  Elec       q    Type
REMARK                         _______ _______ _______ _____ _____    ______ ____
ROOT
ATOM      1  C   UNL     1       0.185  10.049  20.776  0.00  0.00    +0.000 A 
ATOM      2  N   UNL     1       0.749  10.542  21.865  0.00  0.00    +0.000 NA
ATOM      3  N   UNL     1       0.456  11.877  21.944  0.00  0.00    +0.000 NA
ATOM      4  C   UNL     1      -0.284  12.189  20.904  0.00  0.00    +0.000 A 
ATOM      5  N   UNL     1      -0.529  11.063  20.150  0.00  0.00    +0.000 N 
ATOM      6  C   UNL     1      -1.311  11.013  18.972  0.00  0.00    +0.000 A 
ATOM      7  C   UNL     1      -2.178   9.924  18.799  0.00  0.00    +0.000 A 
ATOM      8  C   UNL     1      -2.910   9.787  17.620  0.00  0.00    +0.000 A 
ATOM      9  C   UNL     1      -2.775  10.741  16.619  0.00  0.00    +0.000 A 
ATOM     10 BR   UNL     1      -3.674  10.501  14.974  0.00  0.00    +0.000 Br
ATOM     11  C   UNL     1      -1.959  11.860  16.809  0.00  0.00    +0.000 A 
ATOM     12  C   UNL     1      -1.230  12.035  18.002  0.00  0.00    +0.000 A 
ATOM     13  C   UNL     1      -0.263  13.199  18.075  0.00  0.00    +0.000 C 
ATOM     14  C   UNL     1      -0.268  14.098  19.320  0.00  0.00    +0.000 C 
ATOM     15  C   UNL     1      -0.869  13.511  20.587  0.00  0.00    +0.000 C 
ENDROOT
BRANCH   1  19
ATOM     16  C   UNL     1       2.732   6.793  19.647  0.00  0.00    +0.000 C 
ATOM     17  C   UNL     1       2.139   7.651  18.520  0.00  0.00    +0.000 C 
ATOM     18  C   UNL     1       1.603   8.953  19.083  0.00  0.00    +0.000 C 
ATOM     19  C   UNL     1       0.535   8.715  20.165  0.00  0.00    +0.000 C 
ATOM     20  C   UNL     1       1.008   7.699  21.232  0.00  0.00    +0.000 C 
ATOM     21  C   UNL     1       1.618   6.418  20.630  0.00  0.00    +0.000 C 
BRANCH  16  25
ATOM     22  C   UNL     1       3.940   2.290  17.765  0.00  0.00    +0.000 C 
ATOM     23  C   UNL     1       3.940   3.689  18.225  0.00  0.00    +0.000 A 
ATOM     24  C   UNL     1       2.993   4.675  18.211  0.00  0.00    +0.000 A 
ATOM     25  C   UNL     1       3.533   5.687  19.042  0.00  0.00    +0.000 A 
ATOM     26  N   UNL     1       4.785   5.397  19.415  0.00  0.00    +0.000 NA
ATOM     27  O   UNL     1       5.042   4.133  18.892  0.00  0.00    +0.000 OA
ENDBRANCH  16  25
ENDBRANCH   1  19
TORSDOF 2
ENDMDL
MODEL 5
REMARK VINA RESULT:      -7.7      3.898      8.022
REMARK  Name = 
REMARK  3 active torsions:
REMARK  status: ('A' for Active; 'I' for Inactive)
REMARK    1  A    between atoms: C_1  and  C_2
REMARK    2  A    between atoms: C_4  and  C_5
REMARK    3  A    between atoms: C_8  and  C_9
REMARK                            x       y       z     vdW  Elec       q    Type
REMARK                         _______ _______ _______ _____ _____    ______ ____
ROOT
ATOM      1  C   UNL     1       0.885   8.950  20.659  0.00  0.00    +0.000 A 
ATOM      2  N   UNL     1       1.444   8.994  21.855  0.00  0.00    +0.000 NA
ATOM      3  N   UNL     1       1.001  10.115  22.504  0.00  0.00    +0.000 NA
ATOM      4  C   UNL     1       0.176  10.746  21.701  0.00  0.00    +0.000 A 
ATOM      5  N   UNL     1       0.025  10.033  20.532  0.00  0.00    +0.000 N 
ATOM      6  C   UNL     1      -0.808  10.394  19.447  0.00  0.00    +0.000 A 
ATOM      7  C   UNL     1      -1.550   9.384  18.817  0.00  0.00    +0.000 A 
ATOM      8  C   UNL     1      -2.322   9.675  17.693  0.00  0.00    +0.000 A 
ATOM      9  C   UNL     1      -2.354  10.976  17.205  0.00  0.00    +0.000 A 
ATOM     10 BR   UNL     1      -3.306  11.353  15.616  0.00  0.00    +0.000 Br
ATOM     11  C   UNL     1      -1.667  11.998  17.864  0.00  0.00    +0.000 A 
ATOM     12  C   UNL     1      -0.901  11.735  19.017  0.00  0.00    +0.000 A 
ATOM     13  C   UNL     1      -0.075  12.869  19.590  0.00  0.00    +0.000 C 
ATOM     14  C   UNL     1      -0.118  13.135  21.102  0.00  0.00    +0.000 C 
ATOM     15  C   UNL     1      -0.577  11.988  21.987  0.00  0.00    +0.000 C 
ENDROOT
BRANCH   1  19
ATOM     16  C   UNL     1       3.736   7.061  18.077  0.00  0.00    +0.000 C 
ATOM     17  C   UNL     1       2.805   8.111  17.454  0.00  0.00    +0.000 C 
ATOM     18  C   UNL     1       2.151   8.939  18.543  0.00  0.00    +0.000 C 
ATOM     19  C   UNL     1       1.356   8.067  19.530  0.00  0.00    +0.000 C 
ATOM     20  C   UNL     1       2.190   6.869  20.045  0.00  0.00    +0.000 C 
ATOM     21  C   UNL     1       2.905   6.092  18.922  0.00  0.00    +0.000 C 
BRANCH  16  25
ATOM     22  C   UNL     1       6.330   3.728  15.348  0.00  0.00    +0.000 C 
ATOM     23  C   UNL     1       5.687   4.941  15.882  0.00  0.00    +0.000 A 
ATOM     24  C   UNL     1       4.496   5.162  16.518  0.00  0.00    +0.000 A 
ATOM     25  C   UNL     1       4.603   6.487  17.004  0.00  0.00    +0.000 A 
ATOM     26  N   UNL     1       5.720   7.080  16.566  0.00  0.00    +0.000 NA
ATOM     27  O   UNL     1       6.402   6.100  15.851  0.00  0.00    +0.000 OA
ENDBRANCH  16  25
ENDBRANCH   1  19
TORSDOF 2
ENDMDL
MODEL 6
REMARK VINA RESULT:      -7.6      3.327      8.586
REMARK  Name = 
REMARK  3 active torsions:
REMARK  status: ('A' for Active; 'I' for Inactive)
REMARK    1  A    between atoms: C_1  and  C_2
REMARK    2  A    between atoms: C_4  and  C_5
REMARK    3  A    between atoms: C_8  and  C_9
REMARK                            x       y       z     vdW  Elec       q    Type
REMARK                         _______ _______ _______ _____ _____    ______ ____
ROOT
ATOM      1  C   UNL     1       0.182  10.767  19.309  0.00  0.00    +0.000 A 
ATOM      2  N   UNL     1      -1.072  10.385  19.466  0.00  0.00    +0.000 NA
ATOM      3  N   UNL     1      -1.822  11.476  19.815  0.00  0.00    +0.000 NA
ATOM      4  C   UNL     1      -1.020  12.514  19.870  0.00  0.00    +0.000 A 
ATOM      5  N   UNL     1       0.256  12.138  19.514  0.00  0.00    +0.000 N 
ATOM      6  C   UNL     1       1.378  12.998  19.433  0.00  0.00    +0.000 A 
ATOM      7  C   UNL     1       2.258  12.837  18.354  0.00  0.00    +0.000 A 
ATOM      8  C   UNL     1       3.420  13.605  18.273  0.00  0.00    +0.000 A 
ATOM      9  C   UNL     1       3.695  14.533  19.270  0.00  0.00    +0.000 A 
ATOM     10 BR   UNL     1       5.322  15.493  19.228  0.00  0.00    +0.000 Br
ATOM     11  C   UNL     1       2.792  14.740  20.316  0.00  0.00    +0.000 A 
ATOM     12  C   UNL     1       1.599  13.997  20.405  0.00  0.00    +0.000 A 
ATOM     13  C   UNL     1       0.741  14.182  21.642  0.00  0.00    +0.000 C 
ATOM     14  C   UNL     1      -0.772  14.386  21.479  0.00  0.00    +0.000 C 
ATOM     15  C   UNL     1      -1.390  13.914  20.172  0.00  0.00    +0.000 C 
ENDROOT
BRANCH   1  19
ATOM     16  C   UNL     1       2.203   7.046  18.646  0.00  0.00    +0.000 C 
ATOM     17  C   UNL     1       2.132   7.565  20.090  0.00  0.00    +0.000 C 
ATOM     18  C   UNL     1       1.079   8.650  20.202  0.00  0.00    +0.000 C 
ATOM     19  C   UNL     1       1.359   9.824  19.247  0.00  0.00    +0.000 C 
ATOM     20  C   UNL     1       1.634   9.341  17.802  0.00  0.00    +0.000 C 
ATOM     21  C   UNL     1       2.651   8.185  17.726  0.00  0.00    +0.000 C 
BRANCH  16  25
ATOM     22  C   UNL     1       3.374   2.194  18.047  0.00  0.00    +0.000 C 
ATOM     23  C   UNL     1       3.393   3.642  18.313  0.00  0.00    +0.000 A 
ATOM     24  C   UNL     1       2.753   4.704  17.737  0.00  0.00    +0.000 A 
ATOM     25  C   UNL     1       2.993   5.779  18.627  0.00  0.00    +0.000 A 
ATOM     26  N   UNL     1       3.844   5.428  19.599  0.00  0.00    +0.000 NA
ATOM     27  O   UNL     1       4.099   4.075  19.394  0.00  0.00    +0.000 OA
ENDBRANCH  16  25
ENDBRANCH   1  19
TORSDOF 2
ENDMDL
MODEL 7
REMARK VINA RESULT:      -7.2      8.751     12.172
REMARK  Name = 
REMARK  3 active torsions:
REMARK  status: ('A' for Active; 'I' for Inactive)
REMARK    1  A    between atoms: C_1  and  C_2
REMARK    2  A    between atoms: C_4  and  C_5
REMARK    3  A    between atoms: C_8  and  C_9
REMARK                            x       y       z     vdW  Elec       q    Type
REMARK                         _______ _______ _______ _____ _____    ______ ____
ROOT
ATOM      1  C   UNL     1      10.705  13.724  18.520  0.00  0.00    +0.000 A 
ATOM      2  N   UNL     1      11.507  13.723  17.470  0.00  0.00    +0.000 NA
ATOM      3  N   UNL     1      11.982  14.993  17.281  0.00  0.00    +0.000 NA
ATOM      4  C   UNL     1      11.468  15.759  18.216  0.00  0.00    +0.000 A 
ATOM      5  N   UNL     1      10.685  15.003  19.060  0.00  0.00    +0.000 N 
ATOM      6  C   UNL     1       9.993  15.485  20.197  0.00  0.00    +0.000 A 
ATOM      7  C   UNL     1      10.001  14.701  21.359  0.00  0.00    +0.000 A 
ATOM      8  C   UNL     1       9.267  15.093  22.478  0.00  0.00    +0.000 A 
ATOM      9  C   UNL     1       8.532  16.271  22.433  0.00  0.00    +0.000 A 
ATOM     10 BR   UNL     1       7.445  16.749  23.904  0.00  0.00    +0.000 Br
ATOM     11  C   UNL     1       8.568  17.088  21.300  0.00  0.00    +0.000 A 
ATOM     12  C   UNL     1       9.323  16.727  20.166  0.00  0.00    +0.000 A 
ATOM     13  C   UNL     1       9.200  17.595  18.930  0.00  0.00    +0.000 C 
ATOM     14  C   UNL     1      10.474  18.032  18.193  0.00  0.00    +0.000 C 
ATOM     15  C   UNL     1      11.723  17.200  18.433  0.00  0.00    +0.000 C 
ENDROOT
BRANCH   1  19
ATOM     16  C   UNL     1       8.848   9.881  18.128  0.00  0.00    +0.000 C 
ATOM     17  C   UNL     1       7.998  11.116  17.793  0.00  0.00    +0.000 C 
ATOM     18  C   UNL     1       8.890  12.328  17.606  0.00  0.00    +0.000 C 
ATOM     19  C   UNL     1       9.741  12.613  18.856  0.00  0.00    +0.000 C 
ATOM     20  C   UNL     1      10.474  11.347  19.360  0.00  0.00    +0.000 C 
ATOM     21  C   UNL     1       9.558  10.111  19.465  0.00  0.00    +0.000 C 
BRANCH  16  25
ATOM     22  C   UNL     1       7.509   5.043  17.876  0.00  0.00    +0.000 C 
ATOM     23  C   UNL     1       7.533   6.514  17.909  0.00  0.00    +0.000 A 
ATOM     24  C   UNL     1       8.284   7.419  18.608  0.00  0.00    +0.000 A 
ATOM     25  C   UNL     1       8.003   8.659  17.985  0.00  0.00    +0.000 A 
ATOM     26  N   UNL     1       7.035   8.537  17.069  0.00  0.00    +0.000 NA
ATOM     27  O   UNL     1       6.736   7.179  17.027  0.00  0.00    +0.000 OA
ENDBRANCH  16  25
ENDBRANCH   1  19
TORSDOF 2
ENDMDL
MODEL 8
REMARK VINA RESULT:      -7.1      2.919      4.313
REMARK  Name = 
REMARK  3 active torsions:
REMARK  status: ('A' for Active; 'I' for Inactive)
REMARK    1  A    between atoms: C_1  and  C_2
REMARK    2  A    between atoms: C_4  and  C_5
REMARK    3  A    between atoms: C_8  and  C_9
REMARK                            x       y       z     vdW  Elec       q    Type
REMARK                         _______ _______ _______ _____ _____    ______ ____
ROOT
ATOM      1  C   UNL     1       2.942   7.272  17.376  0.00  0.00    +0.000 A 
ATOM      2  N   UNL     1       3.672   7.859  16.446  0.00  0.00    +0.000 NA
ATOM      3  N   UNL     1       4.755   7.065  16.173  0.00  0.00    +0.000 NA
ATOM      4  C   UNL     1       4.676   6.001  16.939  0.00  0.00    +0.000 A 
ATOM      5  N   UNL     1       3.524   6.051  17.692  0.00  0.00    +0.000 N 
ATOM      6  C   UNL     1       3.095   5.063  18.610  0.00  0.00    +0.000 A 
ATOM      7  C   UNL     1       1.734   4.727  18.632  0.00  0.00    +0.000 A 
ATOM      8  C   UNL     1       1.248   3.820  19.573  0.00  0.00    +0.000 A 
ATOM      9  C   UNL     1       2.126   3.248  20.486  0.00  0.00    +0.000 A 
ATOM     10 BR   UNL     1       1.456   2.107  21.835  0.00  0.00    +0.000 Br
ATOM     11  C   UNL     1       3.493   3.532  20.430  0.00  0.00    +0.000 A 
ATOM     12  C   UNL     1       4.012   4.425  19.472  0.00  0.00    +0.000 A 
ATOM     13  C   UNL     1       5.481   4.786  19.566  0.00  0.00    +0.000 C 
ATOM     14  C   UNL     1       6.341   4.758  18.294  0.00  0.00    +0.000 C 
ATOM     15  C   UNL     1       5.605   4.850  16.967  0.00  0.00    +0.000 C 
ENDROOT
BRANCH   1  19
ATOM     16  C   UNL     1       1.313  10.087  20.166  0.00  0.00    +0.000 C 
ATOM     17  C   UNL     1       1.259   8.601  20.548  0.00  0.00    +0.000 C 
ATOM     18  C   UNL     1       2.199   7.802  19.667  0.00  0.00    +0.000 C 
ATOM     19  C   UNL     1       1.863   7.962  18.174  0.00  0.00    +0.000 C 
ATOM     20  C   UNL     1       1.710   9.448  17.771  0.00  0.00    +0.000 C 
ATOM     21  C   UNL     1       0.811  10.253  18.729  0.00  0.00    +0.000 C 
BRANCH  16  25
ATOM     22  C   UNL     1      -2.254  11.881  23.221  0.00  0.00    +0.000 C 
ATOM     23  C   UNL     1      -0.991  11.583  22.527  0.00  0.00    +0.000 A 
ATOM     24  C   UNL     1      -0.473  10.440  21.983  0.00  0.00    +0.000 A 
ATOM     25  C   UNL     1       0.645  10.886  21.237  0.00  0.00    +0.000 A 
ATOM     26  N   UNL     1       0.878  12.189  21.436  0.00  0.00    +0.000 NA
ATOM     27  O   UNL     1      -0.158  12.627  22.257  0.00  0.00    +0.000 OA
ENDBRANCH  16  25
ENDBRANCH   1  19
TORSDOF 2
ENDMDL
MODEL 9
REMARK VINA RESULT:      -6.9      5.635     10.545
REMARK  Name = 
REMARK  3 active torsions:
REMARK  status: ('A' for Active; 'I' for Inactive)
REMARK    1  A    between atoms: C_1  and  C_2
REMARK    2  A    between atoms: C_4  and  C_5
REMARK    3  A    between atoms: C_8  and  C_9
REMARK                            x       y       z     vdW  Elec       q    Type
REMARK                         _______ _______ _______ _____ _____    ______ ____
ROOT
ATOM      1  C   UNL     1      -1.484  12.909  22.663  0.00  0.00    +0.000 A 
ATOM      2  N   UNL     1      -0.554  13.351  23.491  0.00  0.00    +0.000 NA
ATOM      3  N   UNL     1      -0.920  14.593  23.937  0.00  0.00    +0.000 NA
ATOM      4  C   UNL     1      -2.069  14.899  23.379  0.00  0.00    +0.000 A 
ATOM      5  N   UNL     1      -2.501  13.851  22.596  0.00  0.00    +0.000 N 
ATOM      6  C   UNL     1      -3.712  13.813  21.864  0.00  0.00    +0.000 A 
ATOM      7  C   UNL     1      -4.448  12.619  21.864  0.00  0.00    +0.000 A 
ATOM      8  C   UNL     1      -5.605  12.505  21.093  0.00  0.00    +0.000 A 
ATOM      9  C   UNL     1      -6.024  13.587  20.328  0.00  0.00    +0.000 A 
ATOM     10 BR   UNL     1      -7.524  13.402  19.193  0.00  0.00    +0.000 Br
ATOM     11  C   UNL     1      -5.329  14.799  20.371  0.00  0.00    +0.000 A 
ATOM     12  C   UNL     1      -4.173  14.947  21.162  0.00  0.00    +0.000 A 
ATOM     13  C   UNL     1      -3.399  16.246  21.046  0.00  0.00    +0.000 C 
ATOM     14  C   UNL     1      -2.950  16.965  22.326  0.00  0.00    +0.000 C 
ATOM     15  C   UNL     1      -2.868  16.126  23.591  0.00  0.00    +0.000 C 
ENDROOT
BRANCH   1  19
ATOM     16  C   UNL     1       0.670  10.214  20.120  0.00  0.00    +0.000 C 
ATOM     17  C   UNL     1      -0.333  11.167  19.454  0.00  0.00    +0.000 C 
ATOM     18  C   UNL     1      -0.705  12.284  20.409  0.00  0.00    +0.000 C 
ATOM     19  C   UNL     1      -1.301  11.745  21.720  0.00  0.00    +0.000 C 
ATOM     20  C   UNL     1      -0.422  10.633  22.342  0.00  0.00    +0.000 C 
ATOM     21  C   UNL     1       0.004   9.552  21.329  0.00  0.00    +0.000 C 
BRANCH  16  25
ATOM     22  C   UNL     1       3.598   6.766  17.927  0.00  0.00    +0.000 C 
ATOM     23  C   UNL     1       2.586   7.792  18.229  0.00  0.00    +0.000 A 
ATOM     24  C   UNL     1       1.826   8.056  19.335  0.00  0.00    +0.000 A 
ATOM     25  C   UNL     1       1.263   9.329  19.074  0.00  0.00    +0.000 A 
ATOM     26  N   UNL     1       1.542   9.742  17.832  0.00  0.00    +0.000 NA
ATOM     27  O   UNL     1       2.377   8.764  17.298  0.00  0.00    +0.000 OA
ENDBRANCH  16  25
ENDBRANCH   1  19
TORSDOF 2
ENDMDL
