MODEL 1
REMARK VINA RESULT:      -7.5      0.000      0.000
REMARK  Name = 
REMARK  17 active torsions:
REMARK  status: ('A' for Active; 'I' for Inactive)
REMARK    1  A    between atoms: C_1  and  C_2
REMARK    2  A    between atoms: C_4  and  C_5
REMARK    3  A    between atoms: C_7  and  C_8
REMARK    4  A    between atoms: C_8  and  C_9
REMARK    5  A    between atoms: C_9  and  O_10
REMARK    6  A    between atoms: O_10  and  C_11
REMARK    7  A    between atoms: C_11  and  C_12
REMARK    8  A    between atoms: C_12  and  S_13
REMARK    9  A    between atoms: S_13  and  N_16
REMARK   10  A    between atoms: N_16  and  C_17
REMARK   11  A    between atoms: C_17  and  C_18
REMARK   12  A    between atoms: C_18  and  N_19
REMARK   13  A    between atoms: N_19  and  C_20
REMARK   14  A    between atoms: C_20  and  C_21
REMARK   15  A    between atoms: C_21  and  C_22
REMARK   16  A    between atoms: C_25  and  O_26
REMARK   17  A    between atoms: C_29  and  O_30
REMARK                            x       y       z     vdW  Elec       q    Type
REMARK                         _______ _______ _______ _____ _____    ______ ____
ROOT
ATOM      1  C   UNL     1       5.225   4.248  19.138  0.00  0.00    +0.000 C 
ENDROOT
BRANCH   1   2
ATOM      2  N   UNL     1       6.428   4.779  18.444  0.00  0.00    +0.000 NA
ATOM      3  H   UNL     1       6.574   5.729  18.788  0.00  0.00    +0.000 HD
BRANCH   2   4
ATOM      4  S   UNL     1       6.377   4.636  16.757  0.00  0.00    +0.000 S 
ATOM      5  O   UNL     1       5.316   3.690  16.475  0.00  0.00    +0.000 OA
ATOM      6  O   UNL     1       7.731   4.407  16.305  0.00  0.00    +0.000 OA
BRANCH   4   7
ATOM      7  C   UNL     1       5.844   6.262  16.225  0.00  0.00    +0.000 C 
BRANCH   7   8
ATOM      8  C   UNL     1       6.250   7.300  17.252  0.00  0.00    +0.000 C 
BRANCH   8   9
ATOM      9  O   UNL     1       7.664   7.504  17.277  0.00  0.00    +0.000 OA
BRANCH   9  10
ATOM     10  C   UNL     1       7.928   8.869  17.633  0.00  0.00    +0.000 C 
BRANCH  10  11
ATOM     11  C   UNL     1       8.821   8.940  18.864  0.00  0.00    +0.000 C 
BRANCH  11  18
ATOM     12  C   UNL     1      10.824  13.157  16.979  0.00  0.00    +0.000 C 
ATOM     13  C   UNL     1      10.283  12.394  18.152  0.00  0.00    +0.000 A 
ATOM     14  C   UNL     1      10.226  12.977  19.424  0.00  0.00    +0.000 A 
ATOM     15  C   UNL     1       9.721  12.262  20.517  0.00  0.00    +0.000 A 
ATOM     16  C   UNL     1       9.653  12.883  21.881  0.00  0.00    +0.000 C 
ATOM     17  C   UNL     1       9.274  10.948  20.328  0.00  0.00    +0.000 A 
ATOM     18  C   UNL     1       9.336  10.343  19.065  0.00  0.00    +0.000 A 
ATOM     19  C   UNL     1       9.833  11.079  17.981  0.00  0.00    +0.000 A 
ENDBRANCH  11  18
ENDBRANCH  10  11
ENDBRANCH   9  10
ENDBRANCH   8   9
ENDBRANCH   7   8
ENDBRANCH   4   7
ENDBRANCH   2   4
ENDBRANCH   1   2
BRANCH   1  20
ATOM     20  C   UNL     1       4.311   5.428  19.506  0.00  0.00    +0.000 C 
BRANCH  20  21
ATOM     21  N   UNL     1       2.875   5.072  19.435  0.00  0.00    +0.000 NA
ATOM     22  H   UNL     1       2.742   4.177  19.911  0.00  0.00    +0.000 HD
BRANCH  21  23
ATOM     23  C   UNL     1       2.045   6.074  20.133  0.00  0.00    +0.000 C 
BRANCH  23  24
ATOM     24  C   UNL     1       2.158   7.494  19.554  0.00  0.00    +0.000 C 
BRANCH  24  25
ATOM     25  C   UNL     1       1.425   8.512  20.400  0.00  0.00    +0.000 A 
ATOM     26  C   UNL     1       1.458   8.398  21.802  0.00  0.00    +0.000 A 
ATOM     27  C   UNL     1       0.810   9.312  22.628  0.00  0.00    +0.000 A 
ATOM     28  C   UNL     1       0.117  10.389  22.072  0.00  0.00    +0.000 A 
ATOM     29  C   UNL     1       0.063  10.555  20.668  0.00  0.00    +0.000 A 
ATOM     30  N   UNL     1      -0.566  11.593  19.983  0.00  0.00    +0.000 NA
ATOM     31  C   UNL     1      -0.403  11.417  18.703  0.00  0.00    +0.000 A 
ATOM     32  S   UNL     1       0.452  10.046  18.201  0.00  0.00    +0.000 S 
ATOM     33  C   UNL     1       0.708   9.609  19.860  0.00  0.00    +0.000 A 
BRANCH  28  34
ATOM     34  O   UNL     1      -0.509  11.294  22.896  0.00  0.00    +0.000 OA
ATOM     35  H   UNL     1       0.020  12.106  22.939  0.00  0.00    +0.000 HD
ENDBRANCH  28  34
BRANCH  31  36
ATOM     36  O   UNL     1      -0.888  12.313  17.867  0.00  0.00    +0.000 OA
ATOM     37  H   UNL     1      -1.491  12.801  18.454  0.00  0.00    +0.000 HD
ENDBRANCH  31  36
ENDBRANCH  24  25
ENDBRANCH  23  24
ENDBRANCH  21  23
ENDBRANCH  20  21
ENDBRANCH   1  20
TORSDOF 15
ENDMDL
MODEL 2
REMARK VINA RESULT:      -7.3      5.054     10.414
REMARK  Name = 
REMARK  17 active torsions:
REMARK  status: ('A' for Active; 'I' for Inactive)
REMARK    1  A    between atoms: C_1  and  C_2
REMARK    2  A    between atoms: C_4  and  C_5
REMARK    3  A    between atoms: C_7  and  C_8
REMARK    4  A    between atoms: C_8  and  C_9
REMARK    5  A    between atoms: C_9  and  O_10
REMARK    6  A    between atoms: O_10  and  C_11
REMARK    7  A    between atoms: C_11  and  C_12
REMARK    8  A    between atoms: C_12  and  S_13
REMARK    9  A    between atoms: S_13  and  N_16
REMARK   10  A    between atoms: N_16  and  C_17
REMARK   11  A    between atoms: C_17  and  C_18
REMARK   12  A    between atoms: C_18  and  N_19
REMARK   13  A    between atoms: N_19  and  C_20
REMARK   14  A    between atoms: C_20  and  C_21
REMARK   15  A    between atoms: C_21  and  C_22
REMARK   16  A    between atoms: C_25  and  O_26
REMARK   17  A    between atoms: C_29  and  O_30
REMARK                            x       y       z     vdW  Elec       q    Type
REMARK                         _______ _______ _______ _____ _____    ______ ____
ROOT
ATOM      1  C   UNL     1       1.101   9.714  19.864  0.00  0.00    +0.000 C 
ENDROOT
BRANCH   1   2
ATOM      2  N   UNL     1      -0.196   9.861  20.575  0.00  0.00    +0.000 NA
ATOM      3  H   UNL     1      -0.554  10.790  20.351  0.00  0.00    +0.000 HD
BRANCH   2   4
ATOM      4  S   UNL     1      -0.124   9.511  22.231  0.00  0.00    +0.000 S 
ATOM      5  O   UNL     1       1.254   9.738  22.621  0.00  0.00    +0.000 OA
ATOM      6  O   UNL     1      -0.760   8.228  22.426  0.00  0.00    +0.000 OA
BRANCH   4   7
ATOM      7  C   UNL     1      -1.139  10.792  22.965  0.00  0.00    +0.000 C 
BRANCH   7   8
ATOM      8  C   UNL     1      -0.844  12.124  22.306  0.00  0.00    +0.000 C 
BRANCH   8   9
ATOM      9  O   UNL     1      -1.946  13.028  22.409  0.00  0.00    +0.000 OA
BRANCH   9  10
ATOM     10  C   UNL     1      -2.875  12.749  21.350  0.00  0.00    +0.000 C 
BRANCH  10  11
ATOM     11  C   UNL     1      -2.156  12.685  20.009  0.00  0.00    +0.000 C 
BRANCH  11  18
ATOM     12  C   UNL     1      -6.770  11.585  18.317  0.00  0.00    +0.000 C 
ATOM     13  C   UNL     1      -5.281  11.563  18.125  0.00  0.00    +0.000 A 
ATOM     14  C   UNL     1      -4.714  11.009  16.970  0.00  0.00    +0.000 A 
ATOM     15  C   UNL     1      -3.324  10.990  16.794  0.00  0.00    +0.000 A 
ATOM     16  C   UNL     1      -2.712  10.402  15.557  0.00  0.00    +0.000 C 
ATOM     17  C   UNL     1      -2.501  11.530  17.790  0.00  0.00    +0.000 A 
ATOM     18  C   UNL     1      -3.050  12.076  18.958  0.00  0.00    +0.000 A 
ATOM     19  C   UNL     1      -4.443  12.097  19.111  0.00  0.00    +0.000 A 
ENDBRANCH  11  18
ENDBRANCH  10  11
ENDBRANCH   9  10
ENDBRANCH   8   9
ENDBRANCH   7   8
ENDBRANCH   4   7
ENDBRANCH   2   4
ENDBRANCH   1   2
BRANCH   1  20
ATOM     20  C   UNL     1       0.858   9.901  18.357  0.00  0.00    +0.000 C 
BRANCH  20  21
ATOM     21  N   UNL     1       1.885   9.226  17.532  0.00  0.00    +0.000 NA
ATOM     22  H   UNL     1       2.796   9.636  17.753  0.00  0.00    +0.000 HD
BRANCH  21  23
ATOM     23  C   UNL     1       1.959   7.786  17.851  0.00  0.00    +0.000 C 
BRANCH  23  24
ATOM     24  C   UNL     1       3.353   7.316  18.303  0.00  0.00    +0.000 C 
BRANCH  24  25
ATOM     25  C   UNL     1       3.510   5.815  18.189  0.00  0.00    +0.000 A 
ATOM     26  C   UNL     1       4.161   5.272  17.065  0.00  0.00    +0.000 A 
ATOM     27  C   UNL     1       4.341   3.900  16.915  0.00  0.00    +0.000 A 
ATOM     28  C   UNL     1       3.888   3.022  17.901  0.00  0.00    +0.000 A 
ATOM     29  C   UNL     1       3.239   3.518  19.055  0.00  0.00    +0.000 A 
ATOM     30  N   UNL     1       2.764   2.762  20.125  0.00  0.00    +0.000 NA
ATOM     31  C   UNL     1       2.230   3.560  21.005  0.00  0.00    +0.000 A 
ATOM     32  S   UNL     1       2.212   5.216  20.657  0.00  0.00    +0.000 S 
ATOM     33  C   UNL     1       3.052   4.903  19.172  0.00  0.00    +0.000 A 
BRANCH  28  34
ATOM     34  O   UNL     1       4.083   1.669  17.749  0.00  0.00    +0.000 OA
ATOM     35  H   UNL     1       4.934   1.517  17.308  0.00  0.00    +0.000 HD
ENDBRANCH  28  34
BRANCH  31  36
ATOM     36  O   UNL     1       1.752   3.051  22.123  0.00  0.00    +0.000 OA
ATOM     37  H   UNL     1       2.314   2.263  22.218  0.00  0.00    +0.000 HD
ENDBRANCH  31  36
ENDBRANCH  24  25
ENDBRANCH  23  24
ENDBRANCH  21  23
ENDBRANCH  20  21
ENDBRANCH   1  20
TORSDOF 15
ENDMDL
MODEL 3
REMARK VINA RESULT:      -7.3      4.630      8.606
REMARK  Name = 
REMARK  17 active torsions:
REMARK  status: ('A' for Active; 'I' for Inactive)
REMARK    1  A    between atoms: C_1  and  C_2
REMARK    2  A    between atoms: C_4  and  C_5
REMARK    3  A    between atoms: C_7  and  C_8
REMARK    4  A    between atoms: C_8  and  C_9
REMARK    5  A    between atoms: C_9  and  O_10
REMARK    6  A    between atoms: O_10  and  C_11
REMARK    7  A    between atoms: C_11  and  C_12
REMARK    8  A    between atoms: C_12  and  S_13
REMARK    9  A    between atoms: S_13  and  N_16
REMARK   10  A    between atoms: N_16  and  C_17
REMARK   11  A    between atoms: C_17  and  C_18
REMARK   12  A    between atoms: C_18  and  N_19
REMARK   13  A    between atoms: N_19  and  C_20
REMARK   14  A    between atoms: C_20  and  C_21
REMARK   15  A    between atoms: C_21  and  C_22
REMARK   16  A    between atoms: C_25  and  O_26
REMARK   17  A    between atoms: C_29  and  O_30
REMARK                            x       y       z     vdW  Elec       q    Type
REMARK                         _______ _______ _______ _____ _____    ______ ____
ROOT
ATOM      1  C   UNL     1       0.955   2.758  18.992  0.00  0.00    +0.000 C 
ENDROOT
BRANCH   1   2
ATOM      2  N   UNL     1       0.863   2.977  20.460  0.00  0.00    +0.000 NA
ATOM      3  H   UNL     1      -0.043   3.412  20.638  0.00  0.00    +0.000 HD
BRANCH   2   4
ATOM      4  S   UNL     1       2.187   3.800  21.123  0.00  0.00    +0.000 S 
ATOM      5  O   UNL     1       3.307   3.512  20.249  0.00  0.00    +0.000 OA
ATOM      6  O   UNL     1       2.229   3.479  22.532  0.00  0.00    +0.000 OA
BRANCH   4   7
ATOM      7  C   UNL     1       1.741   5.523  20.922  0.00  0.00    +0.000 C 
BRANCH   7   8
ATOM      8  C   UNL     1       2.256   6.038  19.593  0.00  0.00    +0.000 C 
BRANCH   8   9
ATOM      9  O   UNL     1       2.235   7.466  19.527  0.00  0.00    +0.000 OA
BRANCH   9  10
ATOM     10  C   UNL     1       2.109   7.864  18.154  0.00  0.00    +0.000 C 
BRANCH  10  11
ATOM     11  C   UNL     1       2.207   9.377  18.023  0.00  0.00    +0.000 C 
BRANCH  11  18
ATOM     12  C   UNL     1      -2.774   9.880  17.482  0.00  0.00    +0.000 C 
ATOM     13  C   UNL     1      -1.505  10.257  18.188  0.00  0.00    +0.000 A 
ATOM     14  C   UNL     1      -1.514  11.186  19.236  0.00  0.00    +0.000 A 
ATOM     15  C   UNL     1      -0.328  11.536  19.892  0.00  0.00    +0.000 A 
ATOM     16  C   UNL     1      -0.332  12.527  21.019  0.00  0.00    +0.000 C 
ATOM     17  C   UNL     1       0.878  10.949  19.486  0.00  0.00    +0.000 A 
ATOM     18  C   UNL     1       0.908  10.029  18.430  0.00  0.00    +0.000 A 
ATOM     19  C   UNL     1      -0.291   9.682  17.794  0.00  0.00    +0.000 A 
ENDBRANCH  11  18
ENDBRANCH  10  11
ENDBRANCH   9  10
ENDBRANCH   8   9
ENDBRANCH   7   8
ENDBRANCH   4   7
ENDBRANCH   2   4
ENDBRANCH   1   2
BRANCH   1  20
ATOM     20  C   UNL     1       1.646   1.407  18.741  0.00  0.00    +0.000 C 
BRANCH  20  21
ATOM     21  N   UNL     1       3.036   1.567  18.255  0.00  0.00    +0.000 NA
ATOM     22  H   UNL     1       3.424   0.637  18.081  0.00  0.00    +0.000 HD
BRANCH  21  23
ATOM     23  C   UNL     1       3.069   2.307  16.978  0.00  0.00    +0.000 C 
BRANCH  23  24
ATOM     24  C   UNL     1       3.336   3.815  17.135  0.00  0.00    +0.000 C 
BRANCH  24  25
ATOM     25  C   UNL     1       4.607   4.242  16.434  0.00  0.00    +0.000 A 
ATOM     26  C   UNL     1       4.714   4.086  15.040  0.00  0.00    +0.000 A 
ATOM     27  C   UNL     1       5.856   4.472  14.344  0.00  0.00    +0.000 A 
ATOM     28  C   UNL     1       6.930   5.047  15.026  0.00  0.00    +0.000 A 
ATOM     29  C   UNL     1       6.868   5.236  16.426  0.00  0.00    +0.000 A 
ATOM     30  N   UNL     1       7.849   5.819  17.224  0.00  0.00    +0.000 NA
ATOM     31  C   UNL     1       7.442   5.827  18.461  0.00  0.00    +0.000 A 
ATOM     32  S   UNL     1       5.929   5.146  18.794  0.00  0.00    +0.000 S 
ATOM     33  C   UNL     1       5.713   4.820  17.104  0.00  0.00    +0.000 A 
BRANCH  28  34
ATOM     34  O   UNL     1       8.049   5.437  14.328  0.00  0.00    +0.000 OA
ATOM     35  H   UNL     1       8.272   6.350  14.567  0.00  0.00    +0.000 HD
ENDBRANCH  28  34
BRANCH  31  36
ATOM     36  O   UNL     1       8.207   6.375  19.384  0.00  0.00    +0.000 OA
ATOM     37  H   UNL     1       8.810   6.900  18.831  0.00  0.00    +0.000 HD
ENDBRANCH  31  36
ENDBRANCH  24  25
ENDBRANCH  23  24
ENDBRANCH  21  23
ENDBRANCH  20  21
ENDBRANCH   1  20
TORSDOF 15
ENDMDL
MODEL 4
REMARK VINA RESULT:      -7.3      4.068      8.997
REMARK  Name = 
REMARK  17 active torsions:
REMARK  status: ('A' for Active; 'I' for Inactive)
REMARK    1  A    between atoms: C_1  and  C_2
REMARK    2  A    between atoms: C_4  and  C_5
REMARK    3  A    between atoms: C_7  and  C_8
REMARK    4  A    between atoms: C_8  and  C_9
REMARK    5  A    between atoms: C_9  and  O_10
REMARK    6  A    between atoms: O_10  and  C_11
REMARK    7  A    between atoms: C_11  and  C_12
REMARK    8  A    between atoms: C_12  and  S_13
REMARK    9  A    between atoms: S_13  and  N_16
REMARK   10  A    between atoms: N_16  and  C_17
REMARK   11  A    between atoms: C_17  and  C_18
REMARK   12  A    between atoms: C_18  and  N_19
REMARK   13  A    between atoms: N_19  and  C_20
REMARK   14  A    between atoms: C_20  and  C_21
REMARK   15  A    between atoms: C_21  and  C_22
REMARK   16  A    between atoms: C_25  and  O_26
REMARK   17  A    between atoms: C_29  and  O_30
REMARK                            x       y       z     vdW  Elec       q    Type
REMARK                         _______ _______ _______ _____ _____    ______ ____
ROOT
ATOM      1  C   UNL     1       7.697   7.884  17.478  0.00  0.00    +0.000 C 
ENDROOT
BRANCH   1   2
ATOM      2  N   UNL     1       8.006   6.935  18.580  0.00  0.00    +0.000 NA
ATOM      3  H   UNL     1       9.022   6.843  18.615  0.00  0.00    +0.000 HD
BRANCH   2   4
ATOM      4  S   UNL     1       7.165   5.467  18.490  0.00  0.00    +0.000 S 
ATOM      5  O   UNL     1       6.285   5.447  19.641  0.00  0.00    +0.000 OA
ATOM      6  O   UNL     1       8.142   4.425  18.270  0.00  0.00    +0.000 OA
BRANCH   4   7
ATOM      7  C   UNL     1       6.164   5.659  17.016  0.00  0.00    +0.000 C 
BRANCH   7   8
ATOM      8  C   UNL     1       6.359   4.467  16.101  0.00  0.00    +0.000 C 
BRANCH   8   9
ATOM      9  O   UNL     1       5.123   3.816  15.799  0.00  0.00    +0.000 OA
BRANCH   9  10
ATOM     10  C   UNL     1       4.520   3.377  17.026  0.00  0.00    +0.000 C 
BRANCH  10  11
ATOM     11  C   UNL     1       3.032   3.700  17.038  0.00  0.00    +0.000 C 
BRANCH  11  18
ATOM     12  C   UNL     1       1.984   7.457  20.223  0.00  0.00    +0.000 C 
ATOM     13  C   UNL     1       2.073   5.985  19.942  0.00  0.00    +0.000 A 
ATOM     14  C   UNL     1       1.739   5.045  20.925  0.00  0.00    +0.000 A 
ATOM     15  C   UNL     1       1.823   3.672  20.660  0.00  0.00    +0.000 A 
ATOM     16  C   UNL     1       1.461   2.661  21.707  0.00  0.00    +0.000 C 
ATOM     17  C   UNL     1       2.252   3.245  19.397  0.00  0.00    +0.000 A 
ATOM     18  C   UNL     1       2.604   4.171  18.406  0.00  0.00    +0.000 A 
ATOM     19  C   UNL     1       2.501   5.541  18.686  0.00  0.00    +0.000 A 
ENDBRANCH  11  18
ENDBRANCH  10  11
ENDBRANCH   9  10
ENDBRANCH   8   9
ENDBRANCH   7   8
ENDBRANCH   4   7
ENDBRANCH   2   4
ENDBRANCH   1   2
BRANCH   1  20
ATOM     20  C   UNL     1       8.193   9.282  17.882  0.00  0.00    +0.000 C 
BRANCH  20  21
ATOM     21  N   UNL     1       8.959   9.264  19.149  0.00  0.00    +0.000 NA
ATOM     22  H   UNL     1       9.720   8.588  19.055  0.00  0.00    +0.000 HD
BRANCH  21  23
ATOM     23  C   UNL     1       9.568  10.581  19.419  0.00  0.00    +0.000 C 
BRANCH  23  24
ATOM     24  C   UNL     1       9.453  11.036  20.884  0.00  0.00    +0.000 C 
BRANCH  24  25
ATOM     25  C   UNL     1       9.845  12.487  21.061  0.00  0.00    +0.000 A 
ATOM     26  C   UNL     1      10.741  13.077  20.150  0.00  0.00    +0.000 A 
ATOM     27  C   UNL     1      11.127  14.410  20.259  0.00  0.00    +0.000 A 
ATOM     28  C   UNL     1      10.610  15.206  21.282  0.00  0.00    +0.000 A 
ATOM     29  C   UNL     1       9.696  14.665  22.217  0.00  0.00    +0.000 A 
ATOM     30  N   UNL     1       9.084  15.349  23.264  0.00  0.00    +0.000 NA
ATOM     31  C   UNL     1       8.304  14.529  23.909  0.00  0.00    +0.000 A 
ATOM     32  S   UNL     1       8.242  12.923  23.379  0.00  0.00    +0.000 S 
ATOM     33  C   UNL     1       9.340  13.314  22.094  0.00  0.00    +0.000 A 
BRANCH  28  34
ATOM     34  O   UNL     1      10.987  16.525  21.374  0.00  0.00    +0.000 OA
ATOM     35  H   UNL     1      11.473  16.661  22.203  0.00  0.00    +0.000 HD
ENDBRANCH  28  34
BRANCH  31  36
ATOM     36  O   UNL     1       7.593  14.985  24.921  0.00  0.00    +0.000 OA
ATOM     37  H   UNL     1       7.443  14.164  25.421  0.00  0.00    +0.000 HD
ENDBRANCH  31  36
ENDBRANCH  24  25
ENDBRANCH  23  24
ENDBRANCH  21  23
ENDBRANCH  20  21
ENDBRANCH   1  20
TORSDOF 15
ENDMDL
MODEL 5
REMARK VINA RESULT:      -7.2      4.110      6.256
REMARK  Name = 
REMARK  17 active torsions:
REMARK  status: ('A' for Active; 'I' for Inactive)
REMARK    1  A    between atoms: C_1  and  C_2
REMARK    2  A    between atoms: C_4  and  C_5
REMARK    3  A    between atoms: C_7  and  C_8
REMARK    4  A    between atoms: C_8  and  C_9
REMARK    5  A    between atoms: C_9  and  O_10
REMARK    6  A    between atoms: O_10  and  C_11
REMARK    7  A    between atoms: C_11  and  C_12
REMARK    8  A    between atoms: C_12  and  S_13
REMARK    9  A    between atoms: S_13  and  N_16
REMARK   10  A    between atoms: N_16  and  C_17
REMARK   11  A    between atoms: C_17  and  C_18
REMARK   12  A    between atoms: C_18  and  N_19
REMARK   13  A    between atoms: N_19  and  C_20
REMARK   14  A    between atoms: C_20  and  C_21
REMARK   15  A    between atoms: C_21  and  C_22
REMARK   16  A    between atoms: C_25  and  O_26
REMARK   17  A    between atoms: C_29  and  O_30
REMARK                            x       y       z     vdW  Elec       q    Type
REMARK                         _______ _______ _______ _____ _____    ______ ____
ROOT
ATOM      1  C   UNL     1       1.593   5.536  20.807  0.00  0.00    +0.000 C 
ENDROOT
BRANCH   1   2
ATOM      2  N   UNL     1       2.684   4.643  20.336  0.00  0.00    +0.000 NA
ATOM      3  H   UNL     1       2.700   4.706  19.317  0.00  0.00    +0.000 HD
BRANCH   2   4
ATOM      4  S   UNL     1       2.603   3.065  20.946  0.00  0.00    +0.000 S 
ATOM      5  O   UNL     1       2.087   3.191  22.295  0.00  0.00    +0.000 OA
ATOM      6  O   UNL     1       3.878   2.437  20.683  0.00  0.00    +0.000 OA
BRANCH   4   7
ATOM      7  C   UNL     1       1.344   2.297  19.929  0.00  0.00    +0.000 C 
BRANCH   7   8
ATOM      8  C   UNL     1       1.155   3.092  18.653  0.00  0.00    +0.000 C 
BRANCH   8   9
ATOM      9  O   UNL     1       1.866   2.519  17.554  0.00  0.00    +0.000 OA
BRANCH   9  10
ATOM     10  C   UNL     1       2.791   3.491  17.043  0.00  0.00    +0.000 C 
BRANCH  10  11
ATOM     11  C   UNL     1       4.219   3.126  17.426  0.00  0.00    +0.000 C 
BRANCH  11  18
ATOM     12  C   UNL     1       7.451   6.987  17.443  0.00  0.00    +0.000 C 
ATOM     13  C   UNL     1       6.786   5.859  16.710  0.00  0.00    +0.000 A 
ATOM     14  C   UNL     1       7.089   5.598  15.367  0.00  0.00    +0.000 A 
ATOM     15  C   UNL     1       6.467   4.545  14.685  0.00  0.00    +0.000 A 
ATOM     16  C   UNL     1       6.791   4.257  13.249  0.00  0.00    +0.000 C 
ATOM     17  C   UNL     1       5.529   3.752  15.360  0.00  0.00    +0.000 A 
ATOM     18  C   UNL     1       5.204   4.007  16.699  0.00  0.00    +0.000 A 
ATOM     19  C   UNL     1       5.846   5.058  17.368  0.00  0.00    +0.000 A 
ENDBRANCH  11  18
ENDBRANCH  10  11
ENDBRANCH   9  10
ENDBRANCH   8   9
ENDBRANCH   7   8
ENDBRANCH   4   7
ENDBRANCH   2   4
ENDBRANCH   1   2
BRANCH   1  20
ATOM     20  C   UNL     1       1.881   6.964  20.315  0.00  0.00    +0.000 C 
BRANCH  20  21
ATOM     21  N   UNL     1       1.901   7.948  21.422  0.00  0.00    +0.000 NA
ATOM     22  H   UNL     1       2.603   8.659  21.206  0.00  0.00    +0.000 HD
BRANCH  21  23
ATOM     23  C   UNL     1       0.599   8.634  21.544  0.00  0.00    +0.000 C 
BRANCH  23  24
ATOM     24  C   UNL     1       0.694  10.169  21.499  0.00  0.00    +0.000 C 
BRANCH  24  25
ATOM     25  C   UNL     1       0.043  10.742  20.259  0.00  0.00    +0.000 A 
ATOM     26  C   UNL     1      -0.711   9.898  19.422  0.00  0.00    +0.000 A 
ATOM     27  C   UNL     1      -1.339  10.375  18.275  0.00  0.00    +0.000 A 
ATOM     28  C   UNL     1      -1.246  11.726  17.936  0.00  0.00    +0.000 A 
ATOM     29  C   UNL     1      -0.511  12.618  18.751  0.00  0.00    +0.000 A 
ATOM     30  N   UNL     1      -0.360  13.988  18.549  0.00  0.00    +0.000 NA
ATOM     31  C   UNL     1       0.379  14.480  19.502  0.00  0.00    +0.000 A 
ATOM     32  S   UNL     1       0.968  13.408  20.671  0.00  0.00    +0.000 S 
ATOM     33  C   UNL     1       0.128  12.107  19.890  0.00  0.00    +0.000 A 
BRANCH  28  34
ATOM     34  O   UNL     1      -1.881  12.189  16.808  0.00  0.00    +0.000 OA
ATOM     35  H   UNL     1      -1.570  11.688  16.037  0.00  0.00    +0.000 HD
ENDBRANCH  28  34
BRANCH  31  36
ATOM     36  O   UNL     1       0.615  15.776  19.525  0.00  0.00    +0.000 OA
ATOM     37  H   UNL     1       1.350  15.837  18.891  0.00  0.00    +0.000 HD
ENDBRANCH  31  36
ENDBRANCH  24  25
ENDBRANCH  23  24
ENDBRANCH  21  23
ENDBRANCH  20  21
ENDBRANCH   1  20
TORSDOF 15
ENDMDL
MODEL 6
REMARK VINA RESULT:      -7.0      4.308      6.293
REMARK  Name = 
REMARK  17 active torsions:
REMARK  status: ('A' for Active; 'I' for Inactive)
REMARK    1  A    between atoms: C_1  and  C_2
REMARK    2  A    between atoms: C_4  and  C_5
REMARK    3  A    between atoms: C_7  and  C_8
REMARK    4  A    between atoms: C_8  and  C_9
REMARK    5  A    between atoms: C_9  and  O_10
REMARK    6  A    between atoms: O_10  and  C_11
REMARK    7  A    between atoms: C_11  and  C_12
REMARK    8  A    between atoms: C_12  and  S_13
REMARK    9  A    between atoms: S_13  and  N_16
REMARK   10  A    between atoms: N_16  and  C_17
REMARK   11  A    between atoms: C_17  and  C_18
REMARK   12  A    between atoms: C_18  and  N_19
REMARK   13  A    between atoms: N_19  and  C_20
REMARK   14  A    between atoms: C_20  and  C_21
REMARK   15  A    between atoms: C_21  and  C_22
REMARK   16  A    between atoms: C_25  and  O_26
REMARK   17  A    between atoms: C_29  and  O_30
REMARK                            x       y       z     vdW  Elec       q    Type
REMARK                         _______ _______ _______ _____ _____    ______ ____
ROOT
ATOM      1  C   UNL     1       1.525   6.006  20.597  0.00  0.00    +0.000 C 
ENDROOT
BRANCH   1   2
ATOM      2  N   UNL     1       2.614   5.023  20.836  0.00  0.00    +0.000 NA
ATOM      3  H   UNL     1       3.309   5.166  20.102  0.00  0.00    +0.000 HD
BRANCH   2   4
ATOM      4  S   UNL     1       2.083   3.424  21.007  0.00  0.00    +0.000 S 
ATOM      5  O   UNL     1       0.867   3.328  20.224  0.00  0.00    +0.000 OA
ATOM      6  O   UNL     1       2.096   3.116  22.419  0.00  0.00    +0.000 OA
BRANCH   4   7
ATOM      7  C   UNL     1       3.362   2.477  20.184  0.00  0.00    +0.000 C 
BRANCH   7   8
ATOM      8  C   UNL     1       2.883   2.044  18.813  0.00  0.00    +0.000 C 
BRANCH   8   9
ATOM      9  O   UNL     1       3.528   2.772  17.766  0.00  0.00    +0.000 OA
BRANCH   9  10
ATOM     10  C   UNL     1       2.609   3.744  17.244  0.00  0.00    +0.000 C 
BRANCH  10  11
ATOM     11  C   UNL     1       3.124   5.155  17.488  0.00  0.00    +0.000 C 
BRANCH  11  18
ATOM     12  C   UNL     1       7.840   5.843  19.114  0.00  0.00    +0.000 C 
ATOM     13  C   UNL     1       6.888   5.543  17.992  0.00  0.00    +0.000 A 
ATOM     14  C   UNL     1       7.359   5.310  16.694  0.00  0.00    +0.000 A 
ATOM     15  C   UNL     1       6.468   5.030  15.649  0.00  0.00    +0.000 A 
ATOM     16  C   UNL     1       6.967   4.775  14.258  0.00  0.00    +0.000 C 
ATOM     17  C   UNL     1       5.093   4.990  15.915  0.00  0.00    +0.000 A 
ATOM     18  C   UNL     1       4.604   5.235  17.205  0.00  0.00    +0.000 A 
ATOM     19  C   UNL     1       5.511   5.500  18.240  0.00  0.00    +0.000 A 
ENDBRANCH  11  18
ENDBRANCH  10  11
ENDBRANCH   9  10
ENDBRANCH   8   9
ENDBRANCH   7   8
ENDBRANCH   4   7
ENDBRANCH   2   4
ENDBRANCH   1   2
BRANCH   1  20
ATOM     20  C   UNL     1       2.115   7.423  20.684  0.00  0.00    +0.000 C 
BRANCH  20  21
ATOM     21  N   UNL     1       1.396   8.387  19.820  0.00  0.00    +0.000 NA
ATOM     22  H   UNL     1       0.817   7.860  19.162  0.00  0.00    +0.000 HD
BRANCH  21  23
ATOM     23  C   UNL     1       0.492   9.241  20.617  0.00  0.00    +0.000 C 
BRANCH  23  24
ATOM     24  C   UNL     1       0.487  10.718  20.189  0.00  0.00    +0.000 C 
BRANCH  24  25
ATOM     25  C   UNL     1      -0.771  11.086  19.433  0.00  0.00    +0.000 A 
ATOM     26  C   UNL     1      -0.940  10.635  18.111  0.00  0.00    +0.000 A 
ATOM     27  C   UNL     1      -2.082  10.935  17.374  0.00  0.00    +0.000 A 
ATOM     28  C   UNL     1      -3.108  11.688  17.948  0.00  0.00    +0.000 A 
ATOM     29  C   UNL     1      -2.992  12.155  19.278  0.00  0.00    +0.000 A 
ATOM     30  N   UNL     1      -3.945  12.888  19.981  0.00  0.00    +0.000 NA
ATOM     31  C   UNL     1      -3.494  13.136  21.177  0.00  0.00    +0.000 A 
ATOM     32  S   UNL     1      -1.946  12.572  21.565  0.00  0.00    +0.000 S 
ATOM     33  C   UNL     1      -1.822  11.855  19.991  0.00  0.00    +0.000 A 
BRANCH  28  34
ATOM     34  O   UNL     1      -4.238  11.968  17.216  0.00  0.00    +0.000 OA
ATOM     35  H   UNL     1      -4.653  11.136  16.939  0.00  0.00    +0.000 HD
ENDBRANCH  28  34
BRANCH  31  36
ATOM     36  O   UNL     1      -4.259  13.789  22.029  0.00  0.00    +0.000 OA
ATOM     37  H   UNL     1      -5.091  13.834  21.526  0.00  0.00    +0.000 HD
ENDBRANCH  31  36
ENDBRANCH  24  25
ENDBRANCH  23  24
ENDBRANCH  21  23
ENDBRANCH  20  21
ENDBRANCH   1  20
TORSDOF 15
ENDMDL
MODEL 7
REMARK VINA RESULT:      -6.9      2.213      3.043
REMARK  Name = 
REMARK  17 active torsions:
REMARK  status: ('A' for Active; 'I' for Inactive)
REMARK    1  A    between atoms: C_1  and  C_2
REMARK    2  A    between atoms: C_4  and  C_5
REMARK    3  A    between atoms: C_7  and  C_8
REMARK    4  A    between atoms: C_8  and  C_9
REMARK    5  A    between atoms: C_9  and  O_10
REMARK    6  A    between atoms: O_10  and  C_11
REMARK    7  A    between atoms: C_11  and  C_12
REMARK    8  A    between atoms: C_12  and  S_13
REMARK    9  A    between atoms: S_13  and  N_16
REMARK   10  A    between atoms: N_16  and  C_17
REMARK   11  A    between atoms: C_17  and  C_18
REMARK   12  A    between atoms: C_18  and  N_19
REMARK   13  A    between atoms: N_19  and  C_20
REMARK   14  A    between atoms: C_20  and  C_21
REMARK   15  A    between atoms: C_21  and  C_22
REMARK   16  A    between atoms: C_25  and  O_26
REMARK   17  A    between atoms: C_29  and  O_30
REMARK                            x       y       z     vdW  Elec       q    Type
REMARK                         _______ _______ _______ _____ _____    ______ ____
ROOT
ATOM      1  C   UNL     1       3.238   5.870  17.861  0.00  0.00    +0.000 C 
ENDROOT
BRANCH   1   2
ATOM      2  N   UNL     1       4.665   6.272  17.981  0.00  0.00    +0.000 NA
ATOM      3  H   UNL     1       4.918   6.734  17.107  0.00  0.00    +0.000 HD
BRANCH   2   4
ATOM      4  S   UNL     1       5.704   5.017  18.446  0.00  0.00    +0.000 S 
ATOM      5  O   UNL     1       5.153   3.813  17.857  0.00  0.00    +0.000 OA
ATOM      6  O   UNL     1       5.906   5.134  19.872  0.00  0.00    +0.000 OA
BRANCH   4   7
ATOM      7  C   UNL     1       7.231   5.415  17.598  0.00  0.00    +0.000 C 
BRANCH   7   8
ATOM      8  C   UNL     1       7.792   6.718  18.131  0.00  0.00    +0.000 C 
BRANCH   8   9
ATOM      9  O   UNL     1       7.959   7.692  17.098  0.00  0.00    +0.000 OA
BRANCH   9  10
ATOM     10  C   UNL     1       7.905   9.002  17.683  0.00  0.00    +0.000 C 
BRANCH  10  11
ATOM     11  C   UNL     1       8.842   9.094  18.880  0.00  0.00    +0.000 C 
BRANCH  11  18
ATOM     12  C   UNL     1       9.762  13.037  21.873  0.00  0.00    +0.000 C 
ATOM     13  C   UNL     1       9.801  12.410  20.510  0.00  0.00    +0.000 A 
ATOM     14  C   UNL     1      10.312  13.112  19.410  0.00  0.00    +0.000 A 
ATOM     15  C   UNL     1      10.347  12.524  18.139  0.00  0.00    +0.000 A 
ATOM     16  C   UNL     1      10.897  13.269  16.959  0.00  0.00    +0.000 C 
ATOM     17  C   UNL     1       9.859  11.221  17.975  0.00  0.00    +0.000 A 
ATOM     18  C   UNL     1       9.332  10.509  19.061  0.00  0.00    +0.000 A 
ATOM     19  C   UNL     1       9.318  11.109  20.327  0.00  0.00    +0.000 A 
ENDBRANCH  11  18
ENDBRANCH  10  11
ENDBRANCH   9  10
ENDBRANCH   8   9
ENDBRANCH   7   8
ENDBRANCH   4   7
ENDBRANCH   2   4
ENDBRANCH   1   2
BRANCH   1  20
ATOM     20  C   UNL     1       2.527   6.188  19.186  0.00  0.00    +0.000 C 
BRANCH  20  21
ATOM     21  N   UNL     1       2.325   7.642  19.384  0.00  0.00    +0.000 NA
ATOM     22  H   UNL     1       3.226   8.061  19.626  0.00  0.00    +0.000 HD
BRANCH  21  23
ATOM     23  C   UNL     1       1.858   8.286  18.140  0.00  0.00    +0.000 C 
BRANCH  23  24
ATOM     24  C   UNL     1       1.989   9.819  18.142  0.00  0.00    +0.000 C 
BRANCH  24  25
ATOM     25  C   UNL     1       0.644  10.503  18.252  0.00  0.00    +0.000 A 
ATOM     26  C   UNL     1      -0.526   9.784  17.941  0.00  0.00    +0.000 A 
ATOM     27  C   UNL     1      -1.788  10.361  18.034  0.00  0.00    +0.000 A 
ATOM     28  C   UNL     1      -1.924  11.682  18.463  0.00  0.00    +0.000 A 
ATOM     29  C   UNL     1      -0.781  12.445  18.799  0.00  0.00    +0.000 A 
ATOM     30  N   UNL     1      -0.772  13.758  19.265  0.00  0.00    +0.000 NA
ATOM     31  C   UNL     1       0.459  14.127  19.472  0.00  0.00    +0.000 A 
ATOM     32  S   UNL     1       1.683  13.012  19.124  0.00  0.00    +0.000 S 
ATOM     33  C   UNL     1       0.480  11.845  18.677  0.00  0.00    +0.000 A 
BRANCH  28  34
ATOM     34  O   UNL     1      -3.177  12.240  18.565  0.00  0.00    +0.000 OA
ATOM     35  H   UNL     1      -3.091  13.200  18.680  0.00  0.00    +0.000 HD
ENDBRANCH  28  34
BRANCH  31  36
ATOM     36  O   UNL     1       0.694  15.330  19.957  0.00  0.00    +0.000 OA
ATOM     37  H   UNL     1       1.646  15.266  20.146  0.00  0.00    +0.000 HD
ENDBRANCH  31  36
ENDBRANCH  24  25
ENDBRANCH  23  24
ENDBRANCH  21  23
ENDBRANCH  20  21
ENDBRANCH   1  20
TORSDOF 15
ENDMDL
MODEL 8
REMARK VINA RESULT:      -6.9      4.463      6.087
REMARK  Name = 
REMARK  17 active torsions:
REMARK  status: ('A' for Active; 'I' for Inactive)
REMARK    1  A    between atoms: C_1  and  C_2
REMARK    2  A    between atoms: C_4  and  C_5
REMARK    3  A    between atoms: C_7  and  C_8
REMARK    4  A    between atoms: C_8  and  C_9
REMARK    5  A    between atoms: C_9  and  O_10
REMARK    6  A    between atoms: O_10  and  C_11
REMARK    7  A    between atoms: C_11  and  C_12
REMARK    8  A    between atoms: C_12  and  S_13
REMARK    9  A    between atoms: S_13  and  N_16
REMARK   10  A    between atoms: N_16  and  C_17
REMARK   11  A    between atoms: C_17  and  C_18
REMARK   12  A    between atoms: C_18  and  N_19
REMARK   13  A    between atoms: N_19  and  C_20
REMARK   14  A    between atoms: C_20  and  C_21
REMARK   15  A    between atoms: C_21  and  C_22
REMARK   16  A    between atoms: C_25  and  O_26
REMARK   17  A    between atoms: C_29  and  O_30
REMARK                            x       y       z     vdW  Elec       q    Type
REMARK                         _______ _______ _______ _____ _____    ______ ____
ROOT
ATOM      1  C   UNL     1       1.358   5.836  21.030  0.00  0.00    +0.000 C 
ENDROOT
BRANCH   1   2
ATOM      2  N   UNL     1       1.029   4.504  20.459  0.00  0.00    +0.000 NA
ATOM      3  H   UNL     1       0.039   4.339  20.643  0.00  0.00    +0.000 HD
BRANCH   2   4
ATOM      4  S   UNL     1       2.060   3.258  20.963  0.00  0.00    +0.000 S 
ATOM      5  O   UNL     1       1.425   2.667  22.124  0.00  0.00    +0.000 OA
ATOM      6  O   UNL     1       3.395   3.808  21.032  0.00  0.00    +0.000 OA
BRANCH   4   7
ATOM      7  C   UNL     1       1.973   2.084  19.612  0.00  0.00    +0.000 C 
BRANCH   7   8
ATOM      8  C   UNL     1       0.856   2.470  18.664  0.00  0.00    +0.000 C 
BRANCH   8   9
ATOM      9  O   UNL     1       1.352   3.090  17.475  0.00  0.00    +0.000 OA
BRANCH   9  10
ATOM     10  C   UNL     1       2.772   3.262  17.601  0.00  0.00    +0.000 C 
BRANCH  10  11
ATOM     11  C   UNL     1       3.147   4.732  17.475  0.00  0.00    +0.000 C 
BRANCH  11  18
ATOM     12  C   UNL     1       6.982   4.740  14.212  0.00  0.00    +0.000 C 
ATOM     13  C   UNL     1       6.476   4.909  15.616  0.00  0.00    +0.000 A 
ATOM     14  C   UNL     1       7.351   5.227  16.661  0.00  0.00    +0.000 A 
ATOM     15  C   UNL     1       6.876   5.384  17.970  0.00  0.00    +0.000 A 
ATOM     16  C   UNL     1       7.808   5.730  19.093  0.00  0.00    +0.000 C 
ATOM     17  C   UNL     1       5.510   5.213  18.226  0.00  0.00    +0.000 A 
ATOM     18  C   UNL     1       4.622   4.880  17.195  0.00  0.00    +0.000 A 
ATOM     19  C   UNL     1       5.114   4.740  15.890  0.00  0.00    +0.000 A 
ENDBRANCH  11  18
ENDBRANCH  10  11
ENDBRANCH   9  10
ENDBRANCH   8   9
ENDBRANCH   7   8
ENDBRANCH   4   7
ENDBRANCH   2   4
ENDBRANCH   1   2
BRANCH   1  20
ATOM     20  C   UNL     1       2.225   6.603  20.018  0.00  0.00    +0.000 C 
BRANCH  20  21
ATOM     21  N   UNL     1       2.084   8.071  20.152  0.00  0.00    +0.000 NA
ATOM     22  H   UNL     1       1.867   8.459  19.231  0.00  0.00    +0.000 HD
BRANCH  21  23
ATOM     23  C   UNL     1       0.965   8.416  21.052  0.00  0.00    +0.000 C 
BRANCH  23  24
ATOM     24  C   UNL     1       0.793   9.926  21.287  0.00  0.00    +0.000 C 
BRANCH  24  25
ATOM     25  C   UNL     1      -0.229  10.533  20.350  0.00  0.00    +0.000 A 
ATOM     26  C   UNL     1      -0.328  10.053  19.031  0.00  0.00    +0.000 A 
ATOM     27  C   UNL     1      -1.257  10.568  18.131  0.00  0.00    +0.000 A 
ATOM     28  C   UNL     1      -2.134  11.577  18.532  0.00  0.00    +0.000 A 
ATOM     29  C   UNL     1      -2.084  12.086  19.851  0.00  0.00    +0.000 A 
ATOM     30  N   UNL     1      -2.914  13.066  20.390  0.00  0.00    +0.000 NA
ATOM     31  C   UNL     1      -2.576  13.274  21.630  0.00  0.00    +0.000 A 
ATOM     32  S   UNL     1      -1.275  12.386  22.250  0.00  0.00    +0.000 S 
ATOM     33  C   UNL     1      -1.125  11.562  20.730  0.00  0.00    +0.000 A 
BRANCH  28  34
ATOM     34  O   UNL     1      -3.057  12.070  17.639  0.00  0.00    +0.000 OA
ATOM     35  H   UNL     1      -3.684  11.366  17.406  0.00  0.00    +0.000 HD
ENDBRANCH  28  34
BRANCH  31  36
ATOM     36  O   UNL     1      -3.264  14.141  22.345  0.00  0.00    +0.000 OA
ATOM     37  H   UNL     1      -3.217  13.728  23.225  0.00  0.00    +0.000 HD
ENDBRANCH  31  36
ENDBRANCH  24  25
ENDBRANCH  23  24
ENDBRANCH  21  23
ENDBRANCH  20  21
ENDBRANCH   1  20
TORSDOF 15
ENDMDL
MODEL 9
REMARK VINA RESULT:      -6.9      3.777      5.874
REMARK  Name = 
REMARK  17 active torsions:
REMARK  status: ('A' for Active; 'I' for Inactive)
REMARK    1  A    between atoms: C_1  and  C_2
REMARK    2  A    between atoms: C_4  and  C_5
REMARK    3  A    between atoms: C_7  and  C_8
REMARK    4  A    between atoms: C_8  and  C_9
REMARK    5  A    between atoms: C_9  and  O_10
REMARK    6  A    between atoms: O_10  and  C_11
REMARK    7  A    between atoms: C_11  and  C_12
REMARK    8  A    between atoms: C_12  and  S_13
REMARK    9  A    between atoms: S_13  and  N_16
REMARK   10  A    between atoms: N_16  and  C_17
REMARK   11  A    between atoms: C_17  and  C_18
REMARK   12  A    between atoms: C_18  and  N_19
REMARK   13  A    between atoms: N_19  and  C_20
REMARK   14  A    between atoms: C_20  and  C_21
REMARK   15  A    between atoms: C_21  and  C_22
REMARK   16  A    between atoms: C_25  and  O_26
REMARK   17  A    between atoms: C_29  and  O_30
REMARK                            x       y       z     vdW  Elec       q    Type
REMARK                         _______ _______ _______ _____ _____    ______ ____
ROOT
ATOM      1  C   UNL     1       2.564   6.202  18.109  0.00  0.00    +0.000 C 
ENDROOT
BRANCH   1   2
ATOM      2  N   UNL     1       2.356   5.023  18.992  0.00  0.00    +0.000 NA
ATOM      3  H   UNL     1       3.279   4.725  19.310  0.00  0.00    +0.000 HD
BRANCH   2   4
ATOM      4  S   UNL     1       1.413   3.797  18.303  0.00  0.00    +0.000 S 
ATOM      5  O   UNL     1       0.831   4.373  17.107  0.00  0.00    +0.000 OA
ATOM      6  O   UNL     1       0.585   3.251  19.355  0.00  0.00    +0.000 OA
BRANCH   4   7
ATOM      7  C   UNL     1       2.626   2.575  17.812  0.00  0.00    +0.000 C 
BRANCH   7   8
ATOM      8  C   UNL     1       3.030   1.738  19.009  0.00  0.00    +0.000 C 
BRANCH   8   9
ATOM      9  O   UNL     1       3.810   2.484  19.945  0.00  0.00    +0.000 OA
BRANCH   9  10
ATOM     10  C   UNL     1       5.057   2.842  19.329  0.00  0.00    +0.000 C 
BRANCH  10  11
ATOM     11  C   UNL     1       5.414   4.288  19.640  0.00  0.00    +0.000 C 
BRANCH  11  18
ATOM     12  C   UNL     1       6.353   4.343  14.693  0.00  0.00    +0.000 C 
ATOM     13  C   UNL     1       6.477   4.992  16.041  0.00  0.00    +0.000 A 
ATOM     14  C   UNL     1       7.142   6.215  16.192  0.00  0.00    +0.000 A 
ATOM     15  C   UNL     1       7.256   6.817  17.451  0.00  0.00    +0.000 A 
ATOM     16  C   UNL     1       7.963   8.130  17.618  0.00  0.00    +0.000 C 
ATOM     17  C   UNL     1       6.698   6.180  18.567  0.00  0.00    +0.000 A 
ATOM     18  C   UNL     1       6.041   4.950  18.437  0.00  0.00    +0.000 A 
ATOM     19  C   UNL     1       5.926   4.369  17.167  0.00  0.00    +0.000 A 
ENDBRANCH  11  18
ENDBRANCH  10  11
ENDBRANCH   9  10
ENDBRANCH   8   9
ENDBRANCH   7   8
ENDBRANCH   4   7
ENDBRANCH   2   4
ENDBRANCH   1   2
BRANCH   1  20
ATOM     20  C   UNL     1       2.277   7.477  18.918  0.00  0.00    +0.000 C 
BRANCH  20  21
ATOM     21  N   UNL     1       2.333   8.699  18.083  0.00  0.00    +0.000 NA
ATOM     22  H   UNL     1       2.873   8.488  17.241  0.00  0.00    +0.000 HD
BRANCH  21  23
ATOM     23  C   UNL     1       0.981   9.107  17.651  0.00  0.00    +0.000 C 
BRANCH  23  24
ATOM     24  C   UNL     1       0.326  10.164  18.558  0.00  0.00    +0.000 C 
BRANCH  24  25
ATOM     25  C   UNL     1      -1.103  10.450  18.155  0.00  0.00    +0.000 A 
ATOM     26  C   UNL     1      -1.640   9.821  17.016  0.00  0.00    +0.000 A 
ATOM     27  C   UNL     1      -2.952  10.041  16.606  0.00  0.00    +0.000 A 
ATOM     28  C   UNL     1      -3.781  10.891  17.340  0.00  0.00    +0.000 A 
ATOM     29  C   UNL     1      -3.294  11.538  18.500  0.00  0.00    +0.000 A 
ATOM     30  N   UNL     1      -4.016  12.384  19.338  0.00  0.00    +0.000 NA
ATOM     31  C   UNL     1      -3.242  12.788  20.304  0.00  0.00    +0.000 A 
ATOM     32  S   UNL     1      -1.638  12.249  20.303  0.00  0.00    +0.000 S 
ATOM     33  C   UNL     1      -1.963  11.314  18.879  0.00  0.00    +0.000 A 
BRANCH  28  34
ATOM     34  O   UNL     1      -5.080  11.091  16.935  0.00  0.00    +0.000 OA
ATOM     35  H   UNL     1      -5.680  10.655  17.561  0.00  0.00    +0.000 HD
ENDBRANCH  28  34
BRANCH  31  36
ATOM     36  O   UNL     1      -3.741  13.571  21.240  0.00  0.00    +0.000 OA
ATOM     37  H   UNL     1      -3.891  14.387  20.731  0.00  0.00    +0.000 HD
ENDBRANCH  31  36
ENDBRANCH  24  25
ENDBRANCH  23  24
ENDBRANCH  21  23
ENDBRANCH  20  21
ENDBRANCH   1  20
TORSDOF 15
ENDMDL
