MODEL 1
REMARK VINA RESULT:      -9.1      0.000      0.000
REMARK  Name = 
REMARK  7 active torsions:
REMARK  status: ('A' for Active; 'I' for Inactive)
REMARK    1  A    between atoms: C_1  and  N_2
REMARK    2  A    between atoms: N_2  and  C_3
REMARK    3  A    between atoms: C_3  and  C_4
REMARK    4  A    between atoms: C_13  and  C_15
REMARK    5  A    between atoms: C_15  and  C_16
REMARK    6  A    between atoms: C_16  and  C_17
REMARK    7  A    between atoms: C_21  and  C_22
REMARK                            x       y       z     vdW  Elec       q    Type
REMARK                         _______ _______ _______ _____ _____    ______ ____
ROOT
ATOM      1  C   UNL     1       2.202   6.987  19.586  0.00  0.00    +0.000 A 
ATOM      2  C   UNL     1       2.793   7.271  18.351  0.00  0.00    +0.000 A 
ATOM      3  C   UNL     1       2.548   8.489  17.714  0.00  0.00    +0.000 A 
ATOM      4  C   UNL     1       1.719   9.445  18.311  0.00  0.00    +0.000 A 
ATOM      5  C   UNL     1       1.131   9.187  19.555  0.00  0.00    +0.000 A 
ATOM      6  C   UNL     1       1.376   7.954  20.178  0.00  0.00    +0.000 A 
ENDROOT
BRANCH   5   7
ATOM      7  C   UNL     1       0.326  10.181  20.263  0.00  0.00    +0.000 A 
ATOM      8  N   UNL     1      -0.664  10.875  19.725  0.00  0.00    +0.000 NA
ATOM      9  C   UNL     1      -1.175  11.648  20.742  0.00  0.00    +0.000 A 
ATOM     10  C   UNL     1      -2.245  12.552  20.798  0.00  0.00    +0.000 A 
ATOM     11  N   UNL     1      -3.042  12.850  19.699  0.00  0.00    +0.000 N 
ATOM     12  N   UNL     1      -2.530  13.138  21.983  0.00  0.00    +0.000 NA
ATOM     13  C   UNL     1      -1.747  12.844  23.046  0.00  0.00    +0.000 A 
ATOM     14  N   UNL     1      -0.690  12.003  23.108  0.00  0.00    +0.000 NA
ATOM     15  C   UNL     1      -0.472  11.439  21.912  0.00  0.00    +0.000 A 
ATOM     16  N   UNL     1       0.490  10.528  21.588  0.00  0.00    +0.000 N 
ATOM     17  H   UNL     1      -2.997  12.145  18.970  0.00  0.00    +0.000 HD
ATOM     18  H   UNL     1      -3.956  13.188  19.967  0.00  0.00    +0.000 HD
ATOM     19  H   UNL     1       1.194  10.177  22.220  0.00  0.00    +0.000 HD
ENDBRANCH   5   7
BRANCH   1  20
ATOM     20  C   UNL     1       2.483   5.692  20.306  0.00  0.00    +0.000 C 
BRANCH  20  21
ATOM     21  C   UNL     1       1.794   4.514  19.624  0.00  0.00    +0.000 C 
BRANCH  21  24
ATOM     22  C   UNL     1       4.058   1.447  19.323  0.00  0.00    +0.000 C 
ATOM     23  N   UNL     1       3.356   2.674  18.977  0.00  0.00    +0.000 N 
ATOM     24  C   UNL     1       2.508   3.213  19.937  0.00  0.00    +0.000 C 
ATOM     25  O   UNL     1       2.320   2.659  21.019  0.00  0.00    +0.000 OA
BRANCH  23  26
ATOM     26  C   UNL     1       3.568   3.221  17.635  0.00  0.00    +0.000 C 
BRANCH  26  27
ATOM     27  C   UNL     1       4.657   4.272  17.522  0.00  0.00    +0.000 A 
ATOM     28  C   UNL     1       4.680   5.081  16.369  0.00  0.00    +0.000 A 
ATOM     29  C   UNL     1       5.619   6.111  16.207  0.00  0.00    +0.000 A 
ATOM     30  C   UNL     1       6.550   6.341  17.232  0.00  0.00    +0.000 A 
ATOM     31  C   UNL     1       7.604   7.250  17.473  0.00  0.00    +0.000 A 
ATOM     32  N   UNL     1       8.199   7.050  18.653  0.00  0.00    +0.000 NA
ATOM     33  N   UNL     1       7.520   6.010  19.170  0.00  0.00    +0.000 N 
ATOM     34  C   UNL     1       6.522   5.534  18.360  0.00  0.00    +0.000 A 
ATOM     35  C   UNL     1       5.607   4.490  18.536  0.00  0.00    +0.000 A 
ATOM     36  H   UNL     1       7.782   5.675  20.091  0.00  0.00    +0.000 HD
ENDBRANCH  26  27
ENDBRANCH  23  26
ENDBRANCH  21  24
ENDBRANCH  20  21
ENDBRANCH   1  20
TORSDOF 6
ENDMDL
MODEL 2
REMARK VINA RESULT:      -8.9      1.046      1.282
REMARK  Name = 
REMARK  7 active torsions:
REMARK  status: ('A' for Active; 'I' for Inactive)
REMARK    1  A    between atoms: C_1  and  N_2
REMARK    2  A    between atoms: N_2  and  C_3
REMARK    3  A    between atoms: C_3  and  C_4
REMARK    4  A    between atoms: C_13  and  C_15
REMARK    5  A    between atoms: C_15  and  C_16
REMARK    6  A    between atoms: C_16  and  C_17
REMARK    7  A    between atoms: C_21  and  C_22
REMARK                            x       y       z     vdW  Elec       q    Type
REMARK                         _______ _______ _______ _____ _____    ______ ____
ROOT
ATOM      1  C   UNL     1       2.044   6.863  19.601  0.00  0.00    +0.000 A 
ATOM      2  C   UNL     1       2.554   7.013  18.307  0.00  0.00    +0.000 A 
ATOM      3  C   UNL     1       2.466   8.243  17.653  0.00  0.00    +0.000 A 
ATOM      4  C   UNL     1       1.881   9.343  18.289  0.00  0.00    +0.000 A 
ATOM      5  C   UNL     1       1.380   9.218  19.590  0.00  0.00    +0.000 A 
ATOM      6  C   UNL     1       1.463   7.972  20.232  0.00  0.00    +0.000 A 
ENDROOT
BRANCH   5   7
ATOM      7  C   UNL     1       0.836  10.353  20.334  0.00  0.00    +0.000 A 
ATOM      8  N   UNL     1      -0.139  10.274  21.227  0.00  0.00    +0.000 NA
ATOM      9  C   UNL     1      -0.302  11.550  21.714  0.00  0.00    +0.000 A 
ATOM     10  C   UNL     1      -1.147  12.087  22.697  0.00  0.00    +0.000 A 
ATOM     11  N   UNL     1      -2.066  11.322  23.405  0.00  0.00    +0.000 N 
ATOM     12  N   UNL     1      -1.039  13.403  22.987  0.00  0.00    +0.000 NA
ATOM     13  C   UNL     1      -0.143  14.141  22.291  0.00  0.00    +0.000 A 
ATOM     14  N   UNL     1       0.709  13.737  21.322  0.00  0.00    +0.000 NA
ATOM     15  C   UNL     1       0.570  12.424  21.095  0.00  0.00    +0.000 A 
ATOM     16  N   UNL     1       1.266  11.657  20.207  0.00  0.00    +0.000 N 
ATOM     17  H   UNL     1      -1.856  10.329  23.388  0.00  0.00    +0.000 HD
ATOM     18  H   UNL     1      -2.305  11.735  24.296  0.00  0.00    +0.000 HD
ATOM     19  H   UNL     1       1.972  11.999  19.573  0.00  0.00    +0.000 HD
ENDBRANCH   5   7
BRANCH   1  20
ATOM     20  C   UNL     1       2.161   5.551  20.338  0.00  0.00    +0.000 C 
BRANCH  20  21
ATOM     21  C   UNL     1       1.402   4.439  19.620  0.00  0.00    +0.000 C 
BRANCH  21  24
ATOM     22  C   UNL     1       3.640   1.393  19.044  0.00  0.00    +0.000 C 
ATOM     23  N   UNL     1       2.961   2.659  18.815  0.00  0.00    +0.000 N 
ATOM     24  C   UNL     1       2.095   3.102  19.808  0.00  0.00    +0.000 C 
ATOM     25  O   UNL     1       1.873   2.438  20.819  0.00  0.00    +0.000 OA
BRANCH  23  26
ATOM     26  C   UNL     1       3.212   3.344  17.546  0.00  0.00    +0.000 C 
BRANCH  26  27
ATOM     27  C   UNL     1       4.420   4.261  17.526  0.00  0.00    +0.000 A 
ATOM     28  C   UNL     1       4.624   5.065  16.387  0.00  0.00    +0.000 A 
ATOM     29  C   UNL     1       5.685   5.979  16.307  0.00  0.00    +0.000 A 
ATOM     30  C   UNL     1       6.556   6.098  17.402  0.00  0.00    +0.000 A 
ATOM     31  C   UNL     1       7.687   6.877  17.731  0.00  0.00    +0.000 A 
ATOM     32  N   UNL     1       8.163   6.607  18.949  0.00  0.00    +0.000 NA
ATOM     33  N   UNL     1       7.332   5.652  19.403  0.00  0.00    +0.000 N 
ATOM     34  C   UNL     1       6.350   5.297  18.516  0.00  0.00    +0.000 A 
ATOM     35  C   UNL     1       5.309   4.365  18.611  0.00  0.00    +0.000 A 
ATOM     36  H   UNL     1       7.483   5.287  20.337  0.00  0.00    +0.000 HD
ENDBRANCH  26  27
ENDBRANCH  23  26
ENDBRANCH  21  24
ENDBRANCH  20  21
ENDBRANCH   1  20
TORSDOF 6
ENDMDL
MODEL 3
REMARK VINA RESULT:      -8.8      1.248      1.596
REMARK  Name = 
REMARK  7 active torsions:
REMARK  status: ('A' for Active; 'I' for Inactive)
REMARK    1  A    between atoms: C_1  and  N_2
REMARK    2  A    between atoms: N_2  and  C_3
REMARK    3  A    between atoms: C_3  and  C_4
REMARK    4  A    between atoms: C_13  and  C_15
REMARK    5  A    between atoms: C_15  and  C_16
REMARK    6  A    between atoms: C_16  and  C_17
REMARK    7  A    between atoms: C_21  and  C_22
REMARK                            x       y       z     vdW  Elec       q    Type
REMARK                         _______ _______ _______ _____ _____    ______ ____
ROOT
ATOM      1  C   UNL     1       1.999   6.829  19.642  0.00  0.00    +0.000 A 
ATOM      2  C   UNL     1       2.520   7.116  18.376  0.00  0.00    +0.000 A 
ATOM      3  C   UNL     1       2.395   8.398  17.836  0.00  0.00    +0.000 A 
ATOM      4  C   UNL     1       1.760   9.412  18.560  0.00  0.00    +0.000 A 
ATOM      5  C   UNL     1       1.247   9.150  19.836  0.00  0.00    +0.000 A 
ATOM      6  C   UNL     1       1.368   7.854  20.362  0.00  0.00    +0.000 A 
ENDROOT
BRANCH   5   7
ATOM      7  C   UNL     1       0.650  10.190  20.671  0.00  0.00    +0.000 A 
ATOM      8  N   UNL     1       0.968  11.475  20.622  0.00  0.00    +0.000 NA
ATOM      9  C   UNL     1       0.143  12.099  21.528  0.00  0.00    +0.000 A 
ATOM     10  C   UNL     1      -0.017  13.444  21.893  0.00  0.00    +0.000 A 
ATOM     11  N   UNL     1       0.733  14.473  21.337  0.00  0.00    +0.000 N 
ATOM     12  N   UNL     1      -0.963  13.753  22.808  0.00  0.00    +0.000 NA
ATOM     13  C   UNL     1      -1.687  12.744  23.346  0.00  0.00    +0.000 A 
ATOM     14  N   UNL     1      -1.614  11.420  23.081  0.00  0.00    +0.000 NA
ATOM     15  C   UNL     1      -0.676  11.180  22.155  0.00  0.00    +0.000 A 
ATOM     16  N   UNL     1      -0.327   9.974  21.621  0.00  0.00    +0.000 N 
ATOM     17  H   UNL     1       1.155  14.223  20.448  0.00  0.00    +0.000 HD
ATOM     18  H   UNL     1       0.265  15.366  21.399  0.00  0.00    +0.000 HD
ATOM     19  H   UNL     1      -0.723   9.086  21.885  0.00  0.00    +0.000 HD
ENDBRANCH   5   7
BRANCH   1  20
ATOM     20  C   UNL     1       2.155   5.461  20.258  0.00  0.00    +0.000 C 
BRANCH  20  21
ATOM     21  C   UNL     1       1.432   4.396  19.440  0.00  0.00    +0.000 C 
BRANCH  21  24
ATOM     22  C   UNL     1       3.654   1.314  19.010  0.00  0.00    +0.000 C 
ATOM     23  N   UNL     1       3.041   2.609  18.758  0.00  0.00    +0.000 N 
ATOM     24  C   UNL     1       2.061   3.031  19.648  0.00  0.00    +0.000 C 
ATOM     25  O   UNL     1       1.691   2.326  20.586  0.00  0.00    +0.000 OA
BRANCH  23  26
ATOM     26  C   UNL     1       3.476   3.346  17.570  0.00  0.00    +0.000 C 
BRANCH  26  27
ATOM     27  C   UNL     1       4.590   4.351  17.795  0.00  0.00    +0.000 A 
ATOM     28  C   UNL     1       5.286   4.307  19.018  0.00  0.00    +0.000 A 
ATOM     29  C   UNL     1       6.364   5.164  19.288  0.00  0.00    +0.000 A 
ATOM     30  C   UNL     1       6.760   6.079  18.300  0.00  0.00    +0.000 A 
ATOM     31  C   UNL     1       7.765   7.062  18.158  0.00  0.00    +0.000 A 
ATOM     32  N   UNL     1       7.724   7.675  16.972  0.00  0.00    +0.000 NA
ATOM     33  N   UNL     1       6.689   7.081  16.350  0.00  0.00    +0.000 N 
ATOM     34  C   UNL     1       6.064   6.118  17.100  0.00  0.00    +0.000 A 
ATOM     35  C   UNL     1       4.975   5.286  16.816  0.00  0.00    +0.000 A 
ATOM     36  H   UNL     1       6.463   7.371  15.406  0.00  0.00    +0.000 HD
ENDBRANCH  26  27
ENDBRANCH  23  26
ENDBRANCH  21  24
ENDBRANCH  20  21
ENDBRANCH   1  20
TORSDOF 6
ENDMDL
MODEL 4
REMARK VINA RESULT:      -8.7      2.632      9.537
REMARK  Name = 
REMARK  7 active torsions:
REMARK  status: ('A' for Active; 'I' for Inactive)
REMARK    1  A    between atoms: C_1  and  N_2
REMARK    2  A    between atoms: N_2  and  C_3
REMARK    3  A    between atoms: C_3  and  C_4
REMARK    4  A    between atoms: C_13  and  C_15
REMARK    5  A    between atoms: C_15  and  C_16
REMARK    6  A    between atoms: C_16  and  C_17
REMARK    7  A    between atoms: C_21  and  C_22
REMARK                            x       y       z     vdW  Elec       q    Type
REMARK                         _______ _______ _______ _____ _____    ______ ____
ROOT
ATOM      1  C   UNL     1       1.690   5.576  20.456  0.00  0.00    +0.000 A 
ATOM      2  C   UNL     1       1.351   4.302  20.925  0.00  0.00    +0.000 A 
ATOM      3  C   UNL     1       1.902   3.163  20.336  0.00  0.00    +0.000 A 
ATOM      4  C   UNL     1       2.809   3.282  19.279  0.00  0.00    +0.000 A 
ATOM      5  C   UNL     1       3.175   4.548  18.805  0.00  0.00    +0.000 A 
ATOM      6  C   UNL     1       2.604   5.685  19.398  0.00  0.00    +0.000 A 
ENDROOT
BRANCH   5   7
ATOM      7  C   UNL     1       4.182   4.734  17.761  0.00  0.00    +0.000 A 
ATOM      8  N   UNL     1       5.132   5.656  17.783  0.00  0.00    +0.000 NA
ATOM      9  C   UNL     1       5.880   5.449  16.647  0.00  0.00    +0.000 A 
ATOM     10  C   UNL     1       7.028   6.076  16.143  0.00  0.00    +0.000 A 
ATOM     11  N   UNL     1       7.655   7.137  16.786  0.00  0.00    +0.000 N 
ATOM     12  N   UNL     1       7.564   5.606  14.994  0.00  0.00    +0.000 NA
ATOM     13  C   UNL     1       6.946   4.574  14.375  0.00  0.00    +0.000 A 
ATOM     14  N   UNL     1       5.837   3.903  14.759  0.00  0.00    +0.000 NA
ATOM     15  C   UNL     1       5.366   4.400  15.911  0.00  0.00    +0.000 A 
ATOM     16  N   UNL     1       4.278   3.974  16.614  0.00  0.00    +0.000 N 
ATOM     17  H   UNL     1       7.418   7.203  17.770  0.00  0.00    +0.000 HD
ATOM     18  H   UNL     1       8.630   7.218  16.531  0.00  0.00    +0.000 HD
ATOM     19  H   UNL     1       3.659   3.229  16.332  0.00  0.00    +0.000 HD
ENDBRANCH   5   7
BRANCH   1  20
ATOM     20  C   UNL     1       1.132   6.819  21.102  0.00  0.00    +0.000 C 
BRANCH  20  21
ATOM     21  C   UNL     1       1.588   8.079  20.373  0.00  0.00    +0.000 C 
BRANCH  21  24
ATOM     22  C   UNL     1       0.515  11.622  21.332  0.00  0.00    +0.000 C 
ATOM     23  N   UNL     1       0.847  10.462  20.519  0.00  0.00    +0.000 N 
ATOM     24  C   UNL     1       1.275   9.321  21.187  0.00  0.00    +0.000 C 
ATOM     25  O   UNL     1       1.412   9.298  22.410  0.00  0.00    +0.000 OA
BRANCH  23  26
ATOM     26  C   UNL     1       0.742  10.599  19.065  0.00  0.00    +0.000 C 
BRANCH  26  27
ATOM     27  C   UNL     1      -0.669  10.711  18.519  0.00  0.00    +0.000 A 
ATOM     28  C   UNL     1      -1.067   9.805  17.518  0.00  0.00    +0.000 A 
ATOM     29  C   UNL     1      -2.369   9.804  16.994  0.00  0.00    +0.000 A 
ATOM     30  C   UNL     1      -3.297  10.729  17.498  0.00  0.00    +0.000 A 
ATOM     31  C   UNL     1      -4.658  11.039  17.277  0.00  0.00    +0.000 A 
ATOM     32  N   UNL     1      -5.093  12.037  18.051  0.00  0.00    +0.000 NA
ATOM     33  N   UNL     1      -4.006  12.367  18.772  0.00  0.00    +0.000 N 
ATOM     34  C   UNL     1      -2.893  11.622  18.480  0.00  0.00    +0.000 A 
ATOM     35  C   UNL     1      -1.595  11.653  19.003  0.00  0.00    +0.000 A 
ATOM     36  H   UNL     1      -4.091  13.107  19.459  0.00  0.00    +0.000 HD
ENDBRANCH  26  27
ENDBRANCH  23  26
ENDBRANCH  21  24
ENDBRANCH  20  21
ENDBRANCH   1  20
TORSDOF 6
ENDMDL
MODEL 5
REMARK VINA RESULT:      -8.7      2.183      3.972
REMARK  Name = 
REMARK  7 active torsions:
REMARK  status: ('A' for Active; 'I' for Inactive)
REMARK    1  A    between atoms: C_1  and  N_2
REMARK    2  A    between atoms: N_2  and  C_3
REMARK    3  A    between atoms: C_3  and  C_4
REMARK    4  A    between atoms: C_13  and  C_15
REMARK    5  A    between atoms: C_15  and  C_16
REMARK    6  A    between atoms: C_16  and  C_17
REMARK    7  A    between atoms: C_21  and  C_22
REMARK                            x       y       z     vdW  Elec       q    Type
REMARK                         _______ _______ _______ _____ _____    ______ ____
ROOT
ATOM      1  C   UNL     1       2.610   7.490  18.461  0.00  0.00    +0.000 A 
ATOM      2  C   UNL     1       2.440   6.423  19.349  0.00  0.00    +0.000 A 
ATOM      3  C   UNL     1       1.772   6.612  20.561  0.00  0.00    +0.000 A 
ATOM      4  C   UNL     1       1.254   7.868  20.893  0.00  0.00    +0.000 A 
ATOM      5  C   UNL     1       1.399   8.945  20.011  0.00  0.00    +0.000 A 
ATOM      6  C   UNL     1       2.084   8.744  18.802  0.00  0.00    +0.000 A 
ENDROOT
BRANCH   5   7
ATOM      7  C   UNL     1       0.805  10.256  20.269  0.00  0.00    +0.000 A 
ATOM      8  N   UNL     1       0.392  11.096  19.333  0.00  0.00    +0.000 NA
ATOM      9  C   UNL     1      -0.138  12.174  20.005  0.00  0.00    +0.000 A 
ATOM     10  C   UNL     1      -0.758  13.352  19.564  0.00  0.00    +0.000 A 
ATOM     11  N   UNL     1      -0.945  13.652  18.220  0.00  0.00    +0.000 N 
ATOM     12  N   UNL     1      -1.220  14.219  20.493  0.00  0.00    +0.000 NA
ATOM     13  C   UNL     1      -1.032  13.920  21.799  0.00  0.00    +0.000 A 
ATOM     14  N   UNL     1      -0.443  12.828  22.336  0.00  0.00    +0.000 NA
ATOM     15  C   UNL     1      -0.026  11.998  21.370  0.00  0.00    +0.000 A 
ATOM     16  N   UNL     1       0.595  10.794  21.522  0.00  0.00    +0.000 N 
ATOM     17  H   UNL     1      -0.896  12.836  17.619  0.00  0.00    +0.000 HD
ATOM     18  H   UNL     1      -1.709  14.297  18.074  0.00  0.00    +0.000 HD
ATOM     19  H   UNL     1       0.850  10.379  22.405  0.00  0.00    +0.000 HD
ENDBRANCH   5   7
BRANCH   1  20
ATOM     20  C   UNL     1       3.297   7.297  17.132  0.00  0.00    +0.000 C 
BRANCH  20  21
ATOM     21  C   UNL     1       4.754   6.885  17.312  0.00  0.00    +0.000 C 
BRANCH  21  24
ATOM     22  C   UNL     1       6.249   4.292  14.932  0.00  0.00    +0.000 C 
ATOM     23  N   UNL     1       5.783   4.921  16.159  0.00  0.00    +0.000 N 
ATOM     24  C   UNL     1       5.288   6.215  16.059  0.00  0.00    +0.000 C 
ATOM     25  O   UNL     1       5.281   6.827  14.992  0.00  0.00    +0.000 OA
BRANCH  23  26
ATOM     26  C   UNL     1       5.908   4.158  17.402  0.00  0.00    +0.000 C 
BRANCH  26  27
ATOM     27  C   UNL     1       4.600   3.745  18.051  0.00  0.00    +0.000 A 
ATOM     28  C   UNL     1       3.502   3.471  17.213  0.00  0.00    +0.000 A 
ATOM     29  C   UNL     1       2.271   3.033  17.725  0.00  0.00    +0.000 A 
ATOM     30  C   UNL     1       2.145   2.854  19.112  0.00  0.00    +0.000 A 
ATOM     31  C   UNL     1       1.135   2.424  20.001  0.00  0.00    +0.000 A 
ATOM     32  N   UNL     1       1.536   2.419  21.275  0.00  0.00    +0.000 NA
ATOM     33  N   UNL     1       2.810   2.847  21.201  0.00  0.00    +0.000 N 
ATOM     34  C   UNL     1       3.231   3.132  19.929  0.00  0.00    +0.000 A 
ATOM     35  C   UNL     1       4.462   3.588  19.442  0.00  0.00    +0.000 A 
ATOM     36  H   UNL     1       3.345   2.914  22.059  0.00  0.00    +0.000 HD
ENDBRANCH  26  27
ENDBRANCH  23  26
ENDBRANCH  21  24
ENDBRANCH  20  21
ENDBRANCH   1  20
TORSDOF 6
ENDMDL
MODEL 6
REMARK VINA RESULT:      -8.7      2.095      4.121
REMARK  Name = 
REMARK  7 active torsions:
REMARK  status: ('A' for Active; 'I' for Inactive)
REMARK    1  A    between atoms: C_1  and  N_2
REMARK    2  A    between atoms: N_2  and  C_3
REMARK    3  A    between atoms: C_3  and  C_4
REMARK    4  A    between atoms: C_13  and  C_15
REMARK    5  A    between atoms: C_15  and  C_16
REMARK    6  A    between atoms: C_16  and  C_17
REMARK    7  A    between atoms: C_21  and  C_22
REMARK                            x       y       z     vdW  Elec       q    Type
REMARK                         _______ _______ _______ _____ _____    ______ ____
ROOT
ATOM      1  C   UNL     1       2.601   7.737  18.598  0.00  0.00    +0.000 A 
ATOM      2  C   UNL     1       2.687   6.678  19.509  0.00  0.00    +0.000 A 
ATOM      3  C   UNL     1       1.945   6.702  20.691  0.00  0.00    +0.000 A 
ATOM      4  C   UNL     1       1.097   7.778  20.972  0.00  0.00    +0.000 A 
ATOM      5  C   UNL     1       0.984   8.840  20.067  0.00  0.00    +0.000 A 
ATOM      6  C   UNL     1       1.745   8.809  18.887  0.00  0.00    +0.000 A 
ENDROOT
BRANCH   5   7
ATOM      7  C   UNL     1       0.051   9.947  20.268  0.00  0.00    +0.000 A 
ATOM      8  N   UNL     1      -0.041  10.666  21.376  0.00  0.00    +0.000 NA
ATOM      9  C   UNL     1      -0.997  11.622  21.122  0.00  0.00    +0.000 A 
ATOM     10  C   UNL     1      -1.501  12.684  21.888  0.00  0.00    +0.000 A 
ATOM     11  N   UNL     1      -1.068  12.957  23.180  0.00  0.00    +0.000 N 
ATOM     12  N   UNL     1      -2.430  13.493  21.331  0.00  0.00    +0.000 NA
ATOM     13  C   UNL     1      -2.848  13.218  20.074  0.00  0.00    +0.000 A 
ATOM     14  N   UNL     1      -2.444  12.224  19.250  0.00  0.00    +0.000 NA
ATOM     15  C   UNL     1      -1.511  11.471  19.849  0.00  0.00    +0.000 A 
ATOM     16  N   UNL     1      -0.857  10.393  19.330  0.00  0.00    +0.000 N 
ATOM     17  H   UNL     1      -0.164  12.548  23.392  0.00  0.00    +0.000 HD
ATOM     18  H   UNL     1      -1.219  13.922  23.439  0.00  0.00    +0.000 HD
ATOM     19  H   UNL     1      -1.019  10.000  18.415  0.00  0.00    +0.000 HD
ENDBRANCH   5   7
BRANCH   1  20
ATOM     20  C   UNL     1       3.368   7.712  17.299  0.00  0.00    +0.000 C 
BRANCH  20  21
ATOM     21  C   UNL     1       4.669   6.927  17.434  0.00  0.00    +0.000 C 
BRANCH  21  24
ATOM     22  C   UNL     1       5.818   4.406  14.799  0.00  0.00    +0.000 C 
ATOM     23  N   UNL     1       5.480   4.981  16.092  0.00  0.00    +0.000 N 
ATOM     24  C   UNL     1       5.069   6.309  16.108  0.00  0.00    +0.000 C 
ATOM     25  O   UNL     1       5.031   6.988  15.083  0.00  0.00    +0.000 OA
BRANCH  23  26
ATOM     26  C   UNL     1       5.637   4.132  17.275  0.00  0.00    +0.000 C 
BRANCH  26  27
ATOM     27  C   UNL     1       4.356   3.801  18.017  0.00  0.00    +0.000 A 
ATOM     28  C   UNL     1       3.164   3.706  17.273  0.00  0.00    +0.000 A 
ATOM     29  C   UNL     1       1.944   3.353  17.871  0.00  0.00    +0.000 A 
ATOM     30  C   UNL     1       1.924   3.078  19.247  0.00  0.00    +0.000 A 
ATOM     31  C   UNL     1       0.958   2.681  20.198  0.00  0.00    +0.000 A 
ATOM     32  N   UNL     1       1.469   2.536  21.424  0.00  0.00    +0.000 NA
ATOM     33  N   UNL     1       2.769   2.839  21.257  0.00  0.00    +0.000 N 
ATOM     34  C   UNL     1       3.103   3.181  19.972  0.00  0.00    +0.000 A 
ATOM     35  C   UNL     1       4.327   3.549  19.401  0.00  0.00    +0.000 A 
ATOM     36  H   UNL     1       3.383   2.784  22.061  0.00  0.00    +0.000 HD
ENDBRANCH  26  27
ENDBRANCH  23  26
ENDBRANCH  21  24
ENDBRANCH  20  21
ENDBRANCH   1  20
TORSDOF 6
ENDMDL
MODEL 7
REMARK VINA RESULT:      -8.4      0.961      1.293
REMARK  Name = 
REMARK  7 active torsions:
REMARK  status: ('A' for Active; 'I' for Inactive)
REMARK    1  A    between atoms: C_1  and  N_2
REMARK    2  A    between atoms: N_2  and  C_3
REMARK    3  A    between atoms: C_3  and  C_4
REMARK    4  A    between atoms: C_13  and  C_15
REMARK    5  A    between atoms: C_15  and  C_16
REMARK    6  A    between atoms: C_16  and  C_17
REMARK    7  A    between atoms: C_21  and  C_22
REMARK                            x       y       z     vdW  Elec       q    Type
REMARK                         _______ _______ _______ _____ _____    ______ ____
ROOT
ATOM      1  C   UNL     1       1.961   6.858  19.863  0.00  0.00    +0.000 A 
ATOM      2  C   UNL     1       2.714   7.103  18.709  0.00  0.00    +0.000 A 
ATOM      3  C   UNL     1       2.632   8.338  18.063  0.00  0.00    +0.000 A 
ATOM      4  C   UNL     1       1.809   9.349  18.569  0.00  0.00    +0.000 A 
ATOM      5  C   UNL     1       1.060   9.130  19.731  0.00  0.00    +0.000 A 
ATOM      6  C   UNL     1       1.141   7.879  20.364  0.00  0.00    +0.000 A 
ENDROOT
BRANCH   5   7
ATOM      7  C   UNL     1       0.250  10.177  20.352  0.00  0.00    +0.000 A 
ATOM      8  N   UNL     1      -0.741  10.820  19.753  0.00  0.00    +0.000 NA
ATOM      9  C   UNL     1      -1.258  11.674  20.701  0.00  0.00    +0.000 A 
ATOM     10  C   UNL     1      -2.331  12.576  20.676  0.00  0.00    +0.000 A 
ATOM     11  N   UNL     1      -3.123  12.780  19.553  0.00  0.00    +0.000 N 
ATOM     12  N   UNL     1      -2.623  13.257  21.808  0.00  0.00    +0.000 NA
ATOM     13  C   UNL     1      -1.844  13.054  22.895  0.00  0.00    +0.000 A 
ATOM     14  N   UNL     1      -0.785  12.224  23.031  0.00  0.00    +0.000 NA
ATOM     15  C   UNL     1      -0.560  11.564  21.887  0.00  0.00    +0.000 A 
ATOM     16  N   UNL     1       0.406  10.632  21.644  0.00  0.00    +0.000 N 
ATOM     17  H   UNL     1      -3.072  12.017  18.885  0.00  0.00    +0.000 HD
ATOM     18  H   UNL     1      -4.039  13.136  19.789  0.00  0.00    +0.000 HD
ATOM     19  H   UNL     1       1.108  10.337  22.306  0.00  0.00    +0.000 HD
ENDBRANCH   5   7
BRANCH   1  20
ATOM     20  C   UNL     1       2.062   5.543  20.595  0.00  0.00    +0.000 C 
BRANCH  20  21
ATOM     21  C   UNL     1       1.078   4.519  20.040  0.00  0.00    +0.000 C 
BRANCH  21  24
ATOM     22  C   UNL     1       2.985   1.295  19.273  0.00  0.00    +0.000 C 
ATOM     23  N   UNL     1       2.429   2.630  19.116  0.00  0.00    +0.000 N 
ATOM     24  C   UNL     1       1.638   3.113  20.151  0.00  0.00    +0.000 C 
ATOM     25  O   UNL     1       1.377   2.430  21.141  0.00  0.00    +0.000 OA
BRANCH  23  26
ATOM     26  C   UNL     1       2.715   3.342  17.869  0.00  0.00    +0.000 C 
BRANCH  26  27
ATOM     27  C   UNL     1       3.999   4.150  17.856  0.00  0.00    +0.000 A 
ATOM     28  C   UNL     1       4.697   4.306  19.069  0.00  0.00    +0.000 A 
ATOM     29  C   UNL     1       5.919   4.992  19.138  0.00  0.00    +0.000 A 
ATOM     30  C   UNL     1       6.459   5.524  17.956  0.00  0.00    +0.000 A 
ATOM     31  C   UNL     1       7.625   6.234  17.592  0.00  0.00    +0.000 A 
ATOM     32  N   UNL     1       7.676   6.508  16.285  0.00  0.00    +0.000 NA
ATOM     33  N   UNL     1       6.538   5.969  15.810  0.00  0.00    +0.000 N 
ATOM     34  C   UNL     1       5.760   5.370  16.767  0.00  0.00    +0.000 A 
ATOM     35  C   UNL     1       4.531   4.706  16.679  0.00  0.00    +0.000 A 
ATOM     36  H   UNL     1       6.353   6.034  14.816  0.00  0.00    +0.000 HD
ENDBRANCH  26  27
ENDBRANCH  23  26
ENDBRANCH  21  24
ENDBRANCH  20  21
ENDBRANCH   1  20
TORSDOF 6
ENDMDL
MODEL 8
REMARK VINA RESULT:      -8.4      2.792      9.646
REMARK  Name = 
REMARK  7 active torsions:
REMARK  status: ('A' for Active; 'I' for Inactive)
REMARK    1  A    between atoms: C_1  and  N_2
REMARK    2  A    between atoms: N_2  and  C_3
REMARK    3  A    between atoms: C_3  and  C_4
REMARK    4  A    between atoms: C_13  and  C_15
REMARK    5  A    between atoms: C_15  and  C_16
REMARK    6  A    between atoms: C_16  and  C_17
REMARK    7  A    between atoms: C_21  and  C_22
REMARK                            x       y       z     vdW  Elec       q    Type
REMARK                         _______ _______ _______ _____ _____    ______ ____
ROOT
ATOM      1  C   UNL     1       1.736   7.258  20.468  0.00  0.00    +0.000 A 
ATOM      2  C   UNL     1       1.060   6.167  21.025  0.00  0.00    +0.000 A 
ATOM      3  C   UNL     1       1.297   4.875  20.554  0.00  0.00    +0.000 A 
ATOM      4  C   UNL     1       2.223   4.654  19.529  0.00  0.00    +0.000 A 
ATOM      5  C   UNL     1       2.922   5.730  18.969  0.00  0.00    +0.000 A 
ATOM      6  C   UNL     1       2.664   7.026  19.443  0.00  0.00    +0.000 A 
ENDROOT
BRANCH   5   7
ATOM      7  C   UNL     1       3.960   5.550  17.956  0.00  0.00    +0.000 A 
ATOM      8  N   UNL     1       5.043   6.303  17.841  0.00  0.00    +0.000 NA
ATOM      9  C   UNL     1       5.766   5.762  16.802  0.00  0.00    +0.000 A 
ATOM     10  C   UNL     1       7.006   6.094  16.238  0.00  0.00    +0.000 A 
ATOM     11  N   UNL     1       7.782   7.155  16.688  0.00  0.00    +0.000 N 
ATOM     12  N   UNL     1       7.478   5.328  15.229  0.00  0.00    +0.000 NA
ATOM     13  C   UNL     1       6.715   4.298  14.796  0.00  0.00    +0.000 A 
ATOM     14  N   UNL     1       5.508   3.893  15.253  0.00  0.00    +0.000 NA
ATOM     15  C   UNL     1       5.104   4.676  16.262  0.00  0.00    +0.000 A 
ATOM     16  N   UNL     1       3.952   4.569  16.985  0.00  0.00    +0.000 N 
ATOM     17  H   UNL     1       7.544   7.452  17.629  0.00  0.00    +0.000 HD
ATOM     18  H   UNL     1       8.761   7.035  16.468  0.00  0.00    +0.000 HD
ATOM     19  H   UNL     1       3.228   3.885  16.827  0.00  0.00    +0.000 HD
ENDBRANCH   5   7
BRANCH   1  20
ATOM     20  C   UNL     1       1.519   8.658  20.987  0.00  0.00    +0.000 C 
BRANCH  20  21
ATOM     21  C   UNL     1       0.068   9.097  20.819  0.00  0.00    +0.000 C 
BRANCH  21  24
ATOM     22  C   UNL     1      -1.113  12.070  22.913  0.00  0.00    +0.000 C 
ATOM     23  N   UNL     1      -0.645  11.293  21.775  0.00  0.00    +0.000 N 
ATOM     24  C   UNL     1      -0.381   9.946  21.993  0.00  0.00    +0.000 C 
ATOM     25  O   UNL     1      -0.494   9.435  23.107  0.00  0.00    +0.000 OA
BRANCH  23  26
ATOM     26  C   UNL     1      -0.451  11.996  20.506  0.00  0.00    +0.000 C 
BRANCH  26  27
ATOM     27  C   UNL     1      -1.523  11.761  19.458  0.00  0.00    +0.000 A 
ATOM     28  C   UNL     1      -2.850  12.110  19.775  0.00  0.00    +0.000 A 
ATOM     29  C   UNL     1      -3.893  11.975  18.847  0.00  0.00    +0.000 A 
ATOM     30  C   UNL     1      -3.594  11.488  17.565  0.00  0.00    +0.000 A 
ATOM     31  C   UNL     1      -4.311  11.232  16.374  0.00  0.00    +0.000 A 
ATOM     32  N   UNL     1      -3.532  10.767  15.393  0.00  0.00    +0.000 NA
ATOM     33  N   UNL     1      -2.311  10.727  15.958  0.00  0.00    +0.000 N 
ATOM     34  C   UNL     1      -2.285  11.141  17.264  0.00  0.00    +0.000 A 
ATOM     35  C   UNL     1      -1.232  11.250  18.180  0.00  0.00    +0.000 A 
ATOM     36  H   UNL     1      -1.530  10.416  15.393  0.00  0.00    +0.000 HD
ENDBRANCH  26  27
ENDBRANCH  23  26
ENDBRANCH  21  24
ENDBRANCH  20  21
ENDBRANCH   1  20
TORSDOF 6
ENDMDL
MODEL 9
REMARK VINA RESULT:      -8.3      2.068      4.095
REMARK  Name = 
REMARK  7 active torsions:
REMARK  status: ('A' for Active; 'I' for Inactive)
REMARK    1  A    between atoms: C_1  and  N_2
REMARK    2  A    between atoms: N_2  and  C_3
REMARK    3  A    between atoms: C_3  and  C_4
REMARK    4  A    between atoms: C_13  and  C_15
REMARK    5  A    between atoms: C_15  and  C_16
REMARK    6  A    between atoms: C_16  and  C_17
REMARK    7  A    between atoms: C_21  and  C_22
REMARK                            x       y       z     vdW  Elec       q    Type
REMARK                         _______ _______ _______ _____ _____    ______ ____
ROOT
ATOM      1  C   UNL     1       2.526   7.649  18.544  0.00  0.00    +0.000 A 
ATOM      2  C   UNL     1       2.533   6.603  19.473  0.00  0.00    +0.000 A 
ATOM      3  C   UNL     1       1.856   6.734  20.687  0.00  0.00    +0.000 A 
ATOM      4  C   UNL     1       1.151   7.906  20.981  0.00  0.00    +0.000 A 
ATOM      5  C   UNL     1       1.118   8.957  20.058  0.00  0.00    +0.000 A 
ATOM      6  C   UNL     1       1.814   8.818  18.846  0.00  0.00    +0.000 A 
ENDROOT
BRANCH   5   7
ATOM      7  C   UNL     1       0.330  10.169  20.275  0.00  0.00    +0.000 A 
ATOM      8  N   UNL     1      -0.756  10.498  19.592  0.00  0.00    +0.000 NA
ATOM      9  C   UNL     1      -1.205  11.673  20.148  0.00  0.00    +0.000 A 
ATOM     10  C   UNL     1      -2.321  12.480  19.881  0.00  0.00    +0.000 A 
ATOM     11  N   UNL     1      -3.247  12.187  18.888  0.00  0.00    +0.000 N 
ATOM     12  N   UNL     1      -2.516  13.578  20.646  0.00  0.00    +0.000 NA
ATOM     13  C   UNL     1      -1.608  13.857  21.609  0.00  0.00    +0.000 A 
ATOM     14  N   UNL     1      -0.497  13.163  21.947  0.00  0.00    +0.000 NA
ATOM     15  C   UNL     1      -0.370  12.079  21.170  0.00  0.00    +0.000 A 
ATOM     16  N   UNL     1       0.610  11.132  21.223  0.00  0.00    +0.000 N 
ATOM     17  H   UNL     1      -3.232  11.212  18.604  0.00  0.00    +0.000 HD
ATOM     18  H   UNL     1      -4.147  12.610  19.065  0.00  0.00    +0.000 HD
ATOM     19  H   UNL     1       1.397  11.145  21.853  0.00  0.00    +0.000 HD
ENDBRANCH   5   7
BRANCH   1  20
ATOM     20  C   UNL     1       3.223   7.513  17.212  0.00  0.00    +0.000 C 
BRANCH  20  21
ATOM     21  C   UNL     1       4.675   7.079  17.384  0.00  0.00    +0.000 C 
BRANCH  21  24
ATOM     22  C   UNL     1       6.163   4.399  15.098  0.00  0.00    +0.000 C 
ATOM     23  N   UNL     1       5.732   5.088  16.305  0.00  0.00    +0.000 N 
ATOM     24  C   UNL     1       5.173   6.351  16.150  0.00  0.00    +0.000 C 
ATOM     25  O   UNL     1       5.083   6.888  15.047  0.00  0.00    +0.000 OA
BRANCH  23  26
ATOM     26  C   UNL     1       5.957   4.416  17.587  0.00  0.00    +0.000 C 
BRANCH  26  27
ATOM     27  C   UNL     1       4.723   3.822  18.239  0.00  0.00    +0.000 A 
ATOM     28  C   UNL     1       4.800   3.458  19.597  0.00  0.00    +0.000 A 
ATOM     29  C   UNL     1       3.692   2.951  20.293  0.00  0.00    +0.000 A 
ATOM     30  C   UNL     1       2.473   2.818  19.609  0.00  0.00    +0.000 A 
ATOM     31  C   UNL     1       1.163   2.391  19.925  0.00  0.00    +0.000 A 
ATOM     32  N   UNL     1       0.329   2.471  18.885  0.00  0.00    +0.000 NA
ATOM     33  N   UNL     1       1.108   2.952  17.898  0.00  0.00    +0.000 N 
ATOM     34  C   UNL     1       2.409   3.174  18.270  0.00  0.00    +0.000 A 
ATOM     35  C   UNL     1       3.506   3.664  17.552  0.00  0.00    +0.000 A 
ATOM     36  H   UNL     1       0.688   3.119  16.991  0.00  0.00    +0.000 HD
ENDBRANCH  26  27
ENDBRANCH  23  26
ENDBRANCH  21  24
ENDBRANCH  20  21
ENDBRANCH   1  20
TORSDOF 6
ENDMDL
