MODEL 1
REMARK VINA RESULT:      -8.0      0.000      0.000
REMARK  Name = 
REMARK  8 active torsions:
REMARK  status: ('A' for Active; 'I' for Inactive)
REMARK    1  A    between atoms: N_2  and  C_4
REMARK    2  A    between atoms: C_11  and  O_12
REMARK    3  A    between atoms: O_12  and  C_13
REMARK    4  A    between atoms: C_13  and  C_14
REMARK    5  A    between atoms: C_14  and  O_15
REMARK    6  A    between atoms: O_15  and  C_16
REMARK    7  A    between atoms: C_19  and  C_20
REMARK    8  A    between atoms: C_23  and  C_24
REMARK                            x       y       z     vdW  Elec       q    Type
REMARK                         _______ _______ _______ _____ _____    ______ ____
ROOT
ATOM      1  O   UNL     1       3.300   6.841  17.599  0.00  0.00    +0.000 OA
ENDROOT
BRANCH   1   2
ATOM      2  C   UNL     1       2.560   7.592  18.466  0.00  0.00    +0.000 A 
ATOM      3  C   UNL     1       1.965   8.727  17.916  0.00  0.00    +0.000 A 
ATOM      4  C   UNL     1       1.151   9.546  18.705  0.00  0.00    +0.000 A 
ATOM      5  C   UNL     1       0.878   9.235  20.044  0.00  0.00    +0.000 A 
ATOM      6  C   UNL     1       1.480   8.074  20.571  0.00  0.00    +0.000 A 
ATOM      7  C   UNL     1       2.314   7.262  19.792  0.00  0.00    +0.000 A 
BRANCH   5   8
ATOM      8  C   UNL     1      -0.013  10.069  20.871  0.00  0.00    +0.000 A 
ATOM      9  C   UNL     1      -0.200   9.826  22.241  0.00  0.00    +0.000 A 
ATOM     10  C   UNL     1      -1.032  10.649  23.009  0.00  0.00    +0.000 A 
ATOM     11  C   UNL     1      -1.673  11.726  22.400  0.00  0.00    +0.000 A 
ATOM     12  N   UNL     1      -1.523  11.982  21.073  0.00  0.00    +0.000 NA
ATOM     13  C   UNL     1      -0.716  11.158  20.361  0.00  0.00    +0.000 A 
BRANCH  11  14
ATOM     14  C   UNL     1      -2.553  12.651  23.230  0.00  0.00    +0.000 C 
ATOM     15  F   UNL     1      -1.842  13.563  23.961  0.00  0.00    +0.000 F 
ATOM     16  F   UNL     1      -3.416  13.395  22.473  0.00  0.00    +0.000 F 
ATOM     17  F   UNL     1      -3.328  11.989  24.141  0.00  0.00    +0.000 F 
ENDBRANCH  11  14
ENDBRANCH   5   8
ENDBRANCH   1   2
BRANCH   1  18
ATOM     18  C   UNL     1       4.426   7.507  17.022  0.00  0.00    +0.000 C 
BRANCH  18  19
ATOM     19  C   UNL     1       5.176   6.497  16.158  0.00  0.00    +0.000 C 
BRANCH  19  20
ATOM     20  O   UNL     1       6.291   5.978  16.891  0.00  0.00    +0.000 OA
BRANCH  20  28
ATOM     21  C   UNL     1       2.710   3.262  20.024  0.00  0.00    +0.000 A 
ATOM     22  C   UNL     1       3.846   4.012  20.274  0.00  0.00    +0.000 A 
ATOM     23  N   UNL     1       4.492   4.039  19.075  0.00  0.00    +0.000 N 
ATOM     24  C   UNL     1       3.787   3.281  18.192  0.00  0.00    +0.000 A 
ATOM     25  N   UNL     1       2.685   2.806  18.716  0.00  0.00    +0.000 NA
ATOM     26  O   UNL     1       4.244   2.950  16.994  0.00  0.00    +0.000 OA
ATOM     27  C   UNL     1       5.088   3.920  16.384  0.00  0.00    +0.000 C 
ATOM     28  C   UNL     1       6.130   4.604  17.290  0.00  0.00    +0.000 C 
ATOM     29  C   UNL     1       5.797   4.584  18.787  0.00  0.00    +0.000 C 
BRANCH  21  31
ATOM     30  O   UNL     1       0.508   2.923  20.544  0.00  0.00    +0.000 OA
ATOM     31  N   UNL     1       1.678   2.885  20.963  0.00  0.00    +0.000 N 
ATOM     32  O   UNL     1       2.021   2.554  22.104  0.00  0.00    +0.000 OA
ENDBRANCH  21  31
ENDBRANCH  20  28
ENDBRANCH  19  20
ENDBRANCH  18  19
ENDBRANCH   1  18
TORSDOF 8
ENDMDL
MODEL 2
REMARK VINA RESULT:      -8.0      0.206      1.109
REMARK  Name = 
REMARK  8 active torsions:
REMARK  status: ('A' for Active; 'I' for Inactive)
REMARK    1  A    between atoms: N_2  and  C_4
REMARK    2  A    between atoms: C_11  and  O_12
REMARK    3  A    between atoms: O_12  and  C_13
REMARK    4  A    between atoms: C_13  and  C_14
REMARK    5  A    between atoms: C_14  and  O_15
REMARK    6  A    between atoms: O_15  and  C_16
REMARK    7  A    between atoms: C_19  and  C_20
REMARK    8  A    between atoms: C_23  and  C_24
REMARK                            x       y       z     vdW  Elec       q    Type
REMARK                         _______ _______ _______ _____ _____    ______ ____
ROOT
ATOM      1  O   UNL     1       3.369   6.742  17.651  0.00  0.00    +0.000 OA
ENDROOT
BRANCH   1   2
ATOM      2  C   UNL     1       2.509   7.556  18.329  0.00  0.00    +0.000 A 
ATOM      3  C   UNL     1       2.308   7.229  19.670  0.00  0.00    +0.000 A 
ATOM      4  C   UNL     1       1.478   8.021  20.469  0.00  0.00    +0.000 A 
ATOM      5  C   UNL     1       0.862   9.177  19.967  0.00  0.00    +0.000 A 
ATOM      6  C   UNL     1       1.095   9.493  18.613  0.00  0.00    +0.000 A 
ATOM      7  C   UNL     1       1.907   8.690  17.801  0.00  0.00    +0.000 A 
BRANCH   5   8
ATOM      8  C   UNL     1       0.021  10.041  20.814  0.00  0.00    +0.000 A 
ATOM      9  C   UNL     1      -0.110   9.830  22.195  0.00  0.00    +0.000 A 
ATOM     10  C   UNL     1      -0.896  10.681  22.980  0.00  0.00    +0.000 A 
ATOM     11  C   UNL     1      -1.547  11.755  22.377  0.00  0.00    +0.000 A 
ATOM     12  N   UNL     1      -1.451  11.981  21.039  0.00  0.00    +0.000 NA
ATOM     13  C   UNL     1      -0.688  11.130  20.311  0.00  0.00    +0.000 A 
BRANCH  11  14
ATOM     14  C   UNL     1      -2.376  12.711  23.224  0.00  0.00    +0.000 C 
ATOM     15  F   UNL     1      -3.241  12.073  24.071  0.00  0.00    +0.000 F 
ATOM     16  F   UNL     1      -1.617  13.514  24.029  0.00  0.00    +0.000 F 
ATOM     17  F   UNL     1      -3.157  13.553  22.484  0.00  0.00    +0.000 F 
ENDBRANCH  11  14
ENDBRANCH   5   8
ENDBRANCH   1   2
BRANCH   1  18
ATOM     18  C   UNL     1       4.598   7.354  17.249  0.00  0.00    +0.000 C 
BRANCH  18  19
ATOM     19  C   UNL     1       5.222   6.483  16.162  0.00  0.00    +0.000 C 
BRANCH  19  20
ATOM     20  O   UNL     1       6.426   5.889  16.659  0.00  0.00    +0.000 OA
BRANCH  20  28
ATOM     21  C   UNL     1       2.934   3.313  20.005  0.00  0.00    +0.000 A 
ATOM     22  C   UNL     1       4.093   4.048  20.190  0.00  0.00    +0.000 A 
ATOM     23  N   UNL     1       4.688   4.036  18.964  0.00  0.00    +0.000 N 
ATOM     24  C   UNL     1       3.934   3.269  18.130  0.00  0.00    +0.000 A 
ATOM     25  N   UNL     1       2.847   2.827  18.711  0.00  0.00    +0.000 NA
ATOM     26  O   UNL     1       4.334   2.901  16.923  0.00  0.00    +0.000 OA
ATOM     27  C   UNL     1       5.168   3.841  16.254  0.00  0.00    +0.000 C 
ATOM     28  C   UNL     1       6.258   4.528  17.099  0.00  0.00    +0.000 C 
ATOM     29  C   UNL     1       5.988   4.550  18.608  0.00  0.00    +0.000 C 
BRANCH  21  31
ATOM     30  O   UNL     1       0.761   3.272  20.718  0.00  0.00    +0.000 OA
ATOM     31  N   UNL     1       1.937   2.978  20.995  0.00  0.00    +0.000 N 
ATOM     32  O   UNL     1       2.312   2.427  22.038  0.00  0.00    +0.000 OA
ENDBRANCH  21  31
ENDBRANCH  20  28
ENDBRANCH  19  20
ENDBRANCH  18  19
ENDBRANCH   1  18
TORSDOF 8
ENDMDL
MODEL 3
REMARK VINA RESULT:      -8.0      2.259      4.318
REMARK  Name = 
REMARK  8 active torsions:
REMARK  status: ('A' for Active; 'I' for Inactive)
REMARK    1  A    between atoms: N_2  and  C_4
REMARK    2  A    between atoms: C_11  and  O_12
REMARK    3  A    between atoms: O_12  and  C_13
REMARK    4  A    between atoms: C_13  and  C_14
REMARK    5  A    between atoms: C_14  and  O_15
REMARK    6  A    between atoms: O_15  and  C_16
REMARK    7  A    between atoms: C_19  and  C_20
REMARK    8  A    between atoms: C_23  and  C_24
REMARK                            x       y       z     vdW  Elec       q    Type
REMARK                         _______ _______ _______ _____ _____    ______ ____
ROOT
ATOM      1  O   UNL     1       2.669   7.980  17.575  0.00  0.00    +0.000 OA
ENDROOT
BRANCH   1   2
ATOM      2  C   UNL     1       1.795   8.706  18.331  0.00  0.00    +0.000 A 
ATOM      3  C   UNL     1       1.695   8.319  19.667  0.00  0.00    +0.000 A 
ATOM      4  C   UNL     1       0.860   9.021  20.542  0.00  0.00    +0.000 A 
ATOM      5  C   UNL     1       0.139  10.147  20.120  0.00  0.00    +0.000 A 
ATOM      6  C   UNL     1       0.270  10.527  18.768  0.00  0.00    +0.000 A 
ATOM      7  C   UNL     1       1.087   9.813  17.882  0.00  0.00    +0.000 A 
BRANCH   5   8
ATOM      8  C   UNL     1      -0.710  10.919  21.045  0.00  0.00    +0.000 A 
ATOM      9  C   UNL     1      -1.617  11.889  20.590  0.00  0.00    +0.000 A 
ATOM     10  C   UNL     1      -2.430  12.590  21.488  0.00  0.00    +0.000 A 
ATOM     11  C   UNL     1      -2.337  12.310  22.850  0.00  0.00    +0.000 A 
ATOM     12  N   UNL     1      -1.460  11.386  23.326  0.00  0.00    +0.000 NA
ATOM     13  C   UNL     1      -0.684  10.734  22.426  0.00  0.00    +0.000 A 
BRANCH  11  14
ATOM     14  C   UNL     1      -3.240  13.040  23.836  0.00  0.00    +0.000 C 
ATOM     15  F   UNL     1      -2.576  13.960  24.599  0.00  0.00    +0.000 F 
ATOM     16  F   UNL     1      -4.246  13.739  23.228  0.00  0.00    +0.000 F 
ATOM     17  F   UNL     1      -3.851  12.206  24.730  0.00  0.00    +0.000 F 
ENDBRANCH  11  14
ENDBRANCH   5   8
ENDBRANCH   1   2
BRANCH   1  18
ATOM     18  C   UNL     1       3.535   7.111  18.310  0.00  0.00    +0.000 C 
BRANCH  18  19
ATOM     19  C   UNL     1       3.107   5.674  18.027  0.00  0.00    +0.000 C 
BRANCH  19  20
ATOM     20  O   UNL     1       3.624   4.812  19.047  0.00  0.00    +0.000 OA
BRANCH  20  28
ATOM     21  C   UNL     1       6.900   4.739  14.655  0.00  0.00    +0.000 A 
ATOM     22  C   UNL     1       5.618   4.287  14.918  0.00  0.00    +0.000 A 
ATOM     23  N   UNL     1       5.564   4.227  16.279  0.00  0.00    +0.000 N 
ATOM     24  C   UNL     1       6.786   4.568  16.771  0.00  0.00    +0.000 A 
ATOM     25  N   UNL     1       7.624   4.908  15.824  0.00  0.00    +0.000 NA
ATOM     26  O   UNL     1       7.120   4.428  18.044  0.00  0.00    +0.000 OA
ATOM     27  C   UNL     1       6.051   4.604  18.968  0.00  0.00    +0.000 C 
ATOM     28  C   UNL     1       4.699   3.966  18.596  0.00  0.00    +0.000 C 
ATOM     29  C   UNL     1       4.498   3.706  17.098  0.00  0.00    +0.000 C 
BRANCH  21  31
ATOM     30  O   UNL     1       7.121   4.217  12.439  0.00  0.00    +0.000 OA
ATOM     31  N   UNL     1       7.511   4.951  13.363  0.00  0.00    +0.000 N 
ATOM     32  O   UNL     1       8.369   5.837  13.262  0.00  0.00    +0.000 OA
ENDBRANCH  21  31
ENDBRANCH  20  28
ENDBRANCH  19  20
ENDBRANCH  18  19
ENDBRANCH   1  18
TORSDOF 8
ENDMDL
MODEL 4
REMARK VINA RESULT:      -7.9      0.512      1.314
REMARK  Name = 
REMARK  8 active torsions:
REMARK  status: ('A' for Active; 'I' for Inactive)
REMARK    1  A    between atoms: N_2  and  C_4
REMARK    2  A    between atoms: C_11  and  O_12
REMARK    3  A    between atoms: O_12  and  C_13
REMARK    4  A    between atoms: C_13  and  C_14
REMARK    5  A    between atoms: C_14  and  O_15
REMARK    6  A    between atoms: O_15  and  C_16
REMARK    7  A    between atoms: C_19  and  C_20
REMARK    8  A    between atoms: C_23  and  C_24
REMARK                            x       y       z     vdW  Elec       q    Type
REMARK                         _______ _______ _______ _____ _____    ______ ____
ROOT
ATOM      1  O   UNL     1       3.449   6.975  17.616  0.00  0.00    +0.000 OA
ENDROOT
BRANCH   1   2
ATOM      2  C   UNL     1       2.555   7.744  18.302  0.00  0.00    +0.000 A 
ATOM      3  C   UNL     1       2.342   7.374  19.630  0.00  0.00    +0.000 A 
ATOM      4  C   UNL     1       1.476   8.119  20.437  0.00  0.00    +0.000 A 
ATOM      5  C   UNL     1       0.837   9.271  19.957  0.00  0.00    +0.000 A 
ATOM      6  C   UNL     1       1.082   9.632  18.616  0.00  0.00    +0.000 A 
ATOM      7  C   UNL     1       1.930   8.876  17.796  0.00  0.00    +0.000 A 
BRANCH   5   8
ATOM      8  C   UNL     1      -0.043  10.087  20.813  0.00  0.00    +0.000 A 
ATOM      9  C   UNL     1      -0.222   9.808  22.176  0.00  0.00    +0.000 A 
ATOM     10  C   UNL     1      -1.044  10.614  22.973  0.00  0.00    +0.000 A 
ATOM     11  C   UNL     1      -1.682  11.712  22.399  0.00  0.00    +0.000 A 
ATOM     12  N   UNL     1      -1.539  12.004  21.078  0.00  0.00    +0.000 NA
ATOM     13  C   UNL     1      -0.743  11.195  20.337  0.00  0.00    +0.000 A 
BRANCH  11  14
ATOM     14  C   UNL     1      -2.550  12.619  23.260  0.00  0.00    +0.000 C 
ATOM     15  F   UNL     1      -3.435  13.369  22.536  0.00  0.00    +0.000 F 
ATOM     16  F   UNL     1      -3.317  11.932  24.160  0.00  0.00    +0.000 F 
ATOM     17  F   UNL     1      -1.831  13.522  23.992  0.00  0.00    +0.000 F 
ENDBRANCH  11  14
ENDBRANCH   5   8
ENDBRANCH   1   2
BRANCH   1  18
ATOM     18  C   UNL     1       4.761   7.530  17.491  0.00  0.00    +0.000 C 
BRANCH  18  19
ATOM     19  C   UNL     1       5.557   6.641  16.540  0.00  0.00    +0.000 C 
BRANCH  19  20
ATOM     20  O   UNL     1       6.567   5.941  17.274  0.00  0.00    +0.000 OA
BRANCH  20  28
ATOM     21  C   UNL     1       2.305   3.123  19.252  0.00  0.00    +0.000 A 
ATOM     22  C   UNL     1       3.388   3.773  19.820  0.00  0.00    +0.000 A 
ATOM     23  N   UNL     1       4.276   3.890  18.793  0.00  0.00    +0.000 N 
ATOM     24  C   UNL     1       3.750   3.274  17.700  0.00  0.00    +0.000 A 
ATOM     25  N   UNL     1       2.545   2.812  17.923  0.00  0.00    +0.000 NA
ATOM     26  O   UNL     1       4.440   3.046  16.593  0.00  0.00    +0.000 OA
ATOM     27  C   UNL     1       5.429   4.024  16.290  0.00  0.00    +0.000 C 
ATOM     28  C   UNL     1       6.276   4.544  17.468  0.00  0.00    +0.000 C 
ATOM     29  C   UNL     1       5.630   4.384  18.849  0.00  0.00    +0.000 C 
BRANCH  21  31
ATOM     30  O   UNL     1       1.046   2.839  21.140  0.00  0.00    +0.000 OA
ATOM     31  N   UNL     1       1.084   2.710  19.904  0.00  0.00    +0.000 N 
ATOM     32  O   UNL     1       0.169   2.262  19.202  0.00  0.00    +0.000 OA
ENDBRANCH  21  31
ENDBRANCH  20  28
ENDBRANCH  19  20
ENDBRANCH  18  19
ENDBRANCH   1  18
TORSDOF 8
ENDMDL
MODEL 5
REMARK VINA RESULT:      -7.9      6.012     10.082
REMARK  Name = 
REMARK  8 active torsions:
REMARK  status: ('A' for Active; 'I' for Inactive)
REMARK    1  A    between atoms: N_2  and  C_4
REMARK    2  A    between atoms: C_11  and  O_12
REMARK    3  A    between atoms: O_12  and  C_13
REMARK    4  A    between atoms: C_13  and  C_14
REMARK    5  A    between atoms: C_14  and  O_15
REMARK    6  A    between atoms: O_15  and  C_16
REMARK    7  A    between atoms: C_19  and  C_20
REMARK    8  A    between atoms: C_23  and  C_24
REMARK                            x       y       z     vdW  Elec       q    Type
REMARK                         _______ _______ _______ _____ _____    ______ ____
ROOT
ATOM      1  O   UNL     1      -0.103   9.536  20.776  0.00  0.00    +0.000 OA
ENDROOT
BRANCH   1   2
ATOM      2  C   UNL     1       0.811   8.931  19.963  0.00  0.00    +0.000 A 
ATOM      3  C   UNL     1       1.424   7.796  20.492  0.00  0.00    +0.000 A 
ATOM      4  C   UNL     1       2.346   7.074  19.729  0.00  0.00    +0.000 A 
ATOM      5  C   UNL     1       2.649   7.438  18.409  0.00  0.00    +0.000 A 
ATOM      6  C   UNL     1       2.004   8.580  17.892  0.00  0.00    +0.000 A 
ATOM      7  C   UNL     1       1.096   9.321  18.661  0.00  0.00    +0.000 A 
BRANCH   5   8
ATOM      8  C   UNL     1       3.587   6.658  17.581  0.00  0.00    +0.000 A 
ATOM      9  C   UNL     1       3.599   5.255  17.592  0.00  0.00    +0.000 A 
ATOM     10  C   UNL     1       4.483   4.538  16.778  0.00  0.00    +0.000 A 
ATOM     11  C   UNL     1       5.354   5.234  15.941  0.00  0.00    +0.000 A 
ATOM     12  N   UNL     1       5.376   6.594  15.916  0.00  0.00    +0.000 NA
ATOM     13  C   UNL     1       4.512   7.253  16.725  0.00  0.00    +0.000 A 
BRANCH  11  14
ATOM     14  C   UNL     1       6.297   4.468  15.024  0.00  0.00    +0.000 C 
ATOM     15  F   UNL     1       6.849   3.364  15.613  0.00  0.00    +0.000 F 
ATOM     16  F   UNL     1       5.685   4.000  13.893  0.00  0.00    +0.000 F 
ATOM     17  F   UNL     1       7.359   5.212  14.594  0.00  0.00    +0.000 F 
ENDBRANCH  11  14
ENDBRANCH   5   8
ENDBRANCH   1   2
BRANCH   1  18
ATOM     18  C   UNL     1       0.272   9.628  22.153  0.00  0.00    +0.000 C 
BRANCH  18  19
ATOM     19  C   UNL     1      -0.437  10.839  22.752  0.00  0.00    +0.000 C 
BRANCH  19  20
ATOM     20  O   UNL     1       0.134  12.038  22.218  0.00  0.00    +0.000 OA
BRANCH  20  28
ATOM     21  C   UNL     1      -2.858  11.591  17.650  0.00  0.00    +0.000 A 
ATOM     22  C   UNL     1      -1.553  11.965  17.924  0.00  0.00    +0.000 A 
ATOM     23  N   UNL     1      -1.572  12.272  19.252  0.00  0.00    +0.000 N 
ATOM     24  C   UNL     1      -2.849  12.141  19.703  0.00  0.00    +0.000 A 
ATOM     25  N   UNL     1      -3.662  11.709  18.772  0.00  0.00    +0.000 NA
ATOM     26  O   UNL     1      -3.239  12.545  20.902  0.00  0.00    +0.000 OA
ATOM     27  C   UNL     1      -2.250  12.448  21.920  0.00  0.00    +0.000 C 
ATOM     28  C   UNL     1      -0.819  12.880  21.543  0.00  0.00    +0.000 C 
ATOM     29  C   UNL     1      -0.506  12.837  20.042  0.00  0.00    +0.000 C 
BRANCH  21  31
ATOM     30  O   UNL     1      -4.650  11.101  16.316  0.00  0.00    +0.000 OA
ATOM     31  N   UNL     1      -3.412  11.198  16.375  0.00  0.00    +0.000 N 
ATOM     32  O   UNL     1      -2.631  10.988  15.439  0.00  0.00    +0.000 OA
ENDBRANCH  21  31
ENDBRANCH  20  28
ENDBRANCH  19  20
ENDBRANCH  18  19
ENDBRANCH   1  18
TORSDOF 8
ENDMDL
MODEL 6
REMARK VINA RESULT:      -7.8      0.790      1.075
REMARK  Name = 
REMARK  8 active torsions:
REMARK  status: ('A' for Active; 'I' for Inactive)
REMARK    1  A    between atoms: N_2  and  C_4
REMARK    2  A    between atoms: C_11  and  O_12
REMARK    3  A    between atoms: O_12  and  C_13
REMARK    4  A    between atoms: C_13  and  C_14
REMARK    5  A    between atoms: C_14  and  O_15
REMARK    6  A    between atoms: O_15  and  C_16
REMARK    7  A    between atoms: C_19  and  C_20
REMARK    8  A    between atoms: C_23  and  C_24
REMARK                            x       y       z     vdW  Elec       q    Type
REMARK                         _______ _______ _______ _____ _____    ______ ____
ROOT
ATOM      1  O   UNL     1       3.361   6.653  17.489  0.00  0.00    +0.000 OA
ENDROOT
BRANCH   1   2
ATOM      2  C   UNL     1       2.668   7.465  18.340  0.00  0.00    +0.000 A 
ATOM      3  C   UNL     1       2.164   8.635  17.773  0.00  0.00    +0.000 A 
ATOM      4  C   UNL     1       1.404   9.519  18.545  0.00  0.00    +0.000 A 
ATOM      5  C   UNL     1       1.092   9.240  19.883  0.00  0.00    +0.000 A 
ATOM      6  C   UNL     1       1.600   8.042  20.427  0.00  0.00    +0.000 A 
ATOM      7  C   UNL     1       2.382   7.164  19.665  0.00  0.00    +0.000 A 
BRANCH   5   8
ATOM      8  C   UNL     1       0.254  10.144  20.692  0.00  0.00    +0.000 A 
ATOM      9  C   UNL     1      -0.624  11.069  20.105  0.00  0.00    +0.000 A 
ATOM     10  C   UNL     1      -1.427  11.898  20.897  0.00  0.00    +0.000 A 
ATOM     11  C   UNL     1      -1.353  11.793  22.284  0.00  0.00    +0.000 A 
ATOM     12  N   UNL     1      -0.504  10.917  22.885  0.00  0.00    +0.000 NA
ATOM     13  C   UNL     1       0.264  10.136  22.085  0.00  0.00    +0.000 A 
BRANCH  11  14
ATOM     14  C   UNL     1      -2.246  12.664  23.158  0.00  0.00    +0.000 C 
ATOM     15  F   UNL     1      -1.546  13.501  23.983  0.00  0.00    +0.000 F 
ATOM     16  F   UNL     1      -3.072  13.481  22.437  0.00  0.00    +0.000 F 
ATOM     17  F   UNL     1      -3.061  11.945  23.987  0.00  0.00    +0.000 F 
ENDBRANCH  11  14
ENDBRANCH   5   8
ENDBRANCH   1   2
BRANCH   1  18
ATOM     18  C   UNL     1       4.549   7.224  16.934  0.00  0.00    +0.000 C 
BRANCH  18  19
ATOM     19  C   UNL     1       5.724   6.808  17.815  0.00  0.00    +0.000 C 
BRANCH  19  20
ATOM     20  O   UNL     1       6.590   5.940  17.076  0.00  0.00    +0.000 OA
BRANCH  20  28
ATOM     21  C   UNL     1       2.426   3.040  19.142  0.00  0.00    +0.000 A 
ATOM     22  C   UNL     1       3.482   3.749  19.690  0.00  0.00    +0.000 A 
ATOM     23  N   UNL     1       4.369   3.862  18.662  0.00  0.00    +0.000 N 
ATOM     24  C   UNL     1       3.870   3.188  17.590  0.00  0.00    +0.000 A 
ATOM     25  N   UNL     1       2.682   2.690  17.827  0.00  0.00    +0.000 NA
ATOM     26  O   UNL     1       4.573   2.946  16.495  0.00  0.00    +0.000 OA
ATOM     27  C   UNL     1       5.526   3.948  16.159  0.00  0.00    +0.000 C 
ATOM     28  C   UNL     1       6.350   4.541  17.319  0.00  0.00    +0.000 C 
ATOM     29  C   UNL     1       5.704   4.407  18.704  0.00  0.00    +0.000 C 
BRANCH  21  31
ATOM     30  O   UNL     1       0.278   2.256  19.072  0.00  0.00    +0.000 OA
ATOM     31  N   UNL     1       1.218   2.606  19.806  0.00  0.00    +0.000 N 
ATOM     32  O   UNL     1       1.198   2.611  21.043  0.00  0.00    +0.000 OA
ENDBRANCH  21  31
ENDBRANCH  20  28
ENDBRANCH  19  20
ENDBRANCH  18  19
ENDBRANCH   1  18
TORSDOF 8
ENDMDL
MODEL 7
REMARK VINA RESULT:      -7.8      2.307      4.381
REMARK  Name = 
REMARK  8 active torsions:
REMARK  status: ('A' for Active; 'I' for Inactive)
REMARK    1  A    between atoms: N_2  and  C_4
REMARK    2  A    between atoms: C_11  and  O_12
REMARK    3  A    between atoms: O_12  and  C_13
REMARK    4  A    between atoms: C_13  and  C_14
REMARK    5  A    between atoms: C_14  and  O_15
REMARK    6  A    between atoms: O_15  and  C_16
REMARK    7  A    between atoms: C_19  and  C_20
REMARK    8  A    between atoms: C_23  and  C_24
REMARK                            x       y       z     vdW  Elec       q    Type
REMARK                         _______ _______ _______ _____ _____    ______ ____
ROOT
ATOM      1  O   UNL     1       2.493   7.015  19.671  0.00  0.00    +0.000 OA
ENDROOT
BRANCH   1   2
ATOM      2  C   UNL     1       1.758   8.074  20.118  0.00  0.00    +0.000 A 
ATOM      3  C   UNL     1       1.485   8.079  21.486  0.00  0.00    +0.000 A 
ATOM      4  C   UNL     1       0.774   9.138  22.058  0.00  0.00    +0.000 A 
ATOM      5  C   UNL     1       0.355  10.237  21.293  0.00  0.00    +0.000 A 
ATOM      6  C   UNL     1       0.658  10.215  19.916  0.00  0.00    +0.000 A 
ATOM      7  C   UNL     1       1.350   9.144  19.333  0.00  0.00    +0.000 A 
BRANCH   5   8
ATOM      8  C   UNL     1      -0.356  11.379  21.895  0.00  0.00    +0.000 A 
ATOM      9  C   UNL     1      -1.394  11.203  22.823  0.00  0.00    +0.000 A 
ATOM     10  C   UNL     1      -2.037  12.305  23.398  0.00  0.00    +0.000 A 
ATOM     11  C   UNL     1      -1.629  13.590  23.047  0.00  0.00    +0.000 A 
ATOM     12  N   UNL     1      -0.634  13.796  22.142  0.00  0.00    +0.000 NA
ATOM     13  C   UNL     1      -0.042  12.704  21.600  0.00  0.00    +0.000 A 
BRANCH  11  14
ATOM     14  C   UNL     1      -2.294  14.799  23.692  0.00  0.00    +0.000 C 
ATOM     15  F   UNL     1      -2.230  15.927  22.922  0.00  0.00    +0.000 F 
ATOM     16  F   UNL     1      -3.626  14.611  23.940  0.00  0.00    +0.000 F 
ATOM     17  F   UNL     1      -1.736  15.151  24.888  0.00  0.00    +0.000 F 
ENDBRANCH  11  14
ENDBRANCH   5   8
ENDBRANCH   1   2
BRANCH   1  18
ATOM     18  C   UNL     1       2.532   6.857  18.250  0.00  0.00    +0.000 C 
BRANCH  18  19
ATOM     19  C   UNL     1       2.586   5.363  17.946  0.00  0.00    +0.000 C 
BRANCH  19  20
ATOM     20  O   UNL     1       3.176   4.672  19.052  0.00  0.00    +0.000 OA
BRANCH  20  28
ATOM     21  C   UNL     1       6.757   4.725  14.906  0.00  0.00    +0.000 A 
ATOM     22  C   UNL     1       5.486   4.206  15.085  0.00  0.00    +0.000 A 
ATOM     23  N   UNL     1       5.338   4.160  16.439  0.00  0.00    +0.000 N 
ATOM     24  C   UNL     1       6.501   4.574  17.011  0.00  0.00    +0.000 A 
ATOM     25  N   UNL     1       7.385   4.948  16.120  0.00  0.00    +0.000 NA
ATOM     26  O   UNL     1       6.750   4.469  18.307  0.00  0.00    +0.000 OA
ATOM     27  C   UNL     1       5.610   4.597  19.149  0.00  0.00    +0.000 C 
ATOM     28  C   UNL     1       4.324   3.880  18.693  0.00  0.00    +0.000 C 
ATOM     29  C   UNL     1       4.245   3.591  17.189  0.00  0.00    +0.000 C 
BRANCH  21  31
ATOM     30  O   UNL     1       8.382   5.773  13.684  0.00  0.00    +0.000 OA
ATOM     31  N   UNL     1       7.447   4.955  13.657  0.00  0.00    +0.000 N 
ATOM     32  O   UNL     1       7.068   4.331  12.658  0.00  0.00    +0.000 OA
ENDBRANCH  21  31
ENDBRANCH  20  28
ENDBRANCH  19  20
ENDBRANCH  18  19
ENDBRANCH   1  18
TORSDOF 8
ENDMDL
MODEL 8
REMARK VINA RESULT:      -7.8      2.496      4.431
REMARK  Name = 
REMARK  8 active torsions:
REMARK  status: ('A' for Active; 'I' for Inactive)
REMARK    1  A    between atoms: N_2  and  C_4
REMARK    2  A    between atoms: C_11  and  O_12
REMARK    3  A    between atoms: O_12  and  C_13
REMARK    4  A    between atoms: C_13  and  C_14
REMARK    5  A    between atoms: C_14  and  O_15
REMARK    6  A    between atoms: O_15  and  C_16
REMARK    7  A    between atoms: C_19  and  C_20
REMARK    8  A    between atoms: C_23  and  C_24
REMARK                            x       y       z     vdW  Elec       q    Type
REMARK                         _______ _______ _______ _____ _____    ______ ____
ROOT
ATOM      1  O   UNL     1       2.776   6.454  18.251  0.00  0.00    +0.000 OA
ENDROOT
BRANCH   1   2
ATOM      2  C   UNL     1       2.175   7.545  18.809  0.00  0.00    +0.000 A 
ATOM      3  C   UNL     1       1.926   7.457  20.178  0.00  0.00    +0.000 A 
ATOM      4  C   UNL     1       1.352   8.535  20.859  0.00  0.00    +0.000 A 
ATOM      5  C   UNL     1       1.050   9.738  20.205  0.00  0.00    +0.000 A 
ATOM      6  C   UNL     1       1.326   9.806  18.824  0.00  0.00    +0.000 A 
ATOM      7  C   UNL     1       1.881   8.721  18.132  0.00  0.00    +0.000 A 
BRANCH   5   8
ATOM      8  C   UNL     1       0.484  10.894  20.924  0.00  0.00    +0.000 A 
ATOM      9  C   UNL     1      -0.642  10.777  21.752  0.00  0.00    +0.000 A 
ATOM     10  C   UNL     1      -1.143  11.886  22.443  0.00  0.00    +0.000 A 
ATOM     11  C   UNL     1      -0.506  13.117  22.308  0.00  0.00    +0.000 A 
ATOM     12  N   UNL     1       0.580  13.268  21.503  0.00  0.00    +0.000 NA
ATOM     13  C   UNL     1       1.032  12.173  20.844  0.00  0.00    +0.000 A 
BRANCH  11  14
ATOM     14  C   UNL     1      -1.018  14.325  23.081  0.00  0.00    +0.000 C 
ATOM     15  F   UNL     1      -1.508  14.008  24.318  0.00  0.00    +0.000 F 
ATOM     16  F   UNL     1      -0.054  15.267  23.309  0.00  0.00    +0.000 F 
ATOM     17  F   UNL     1      -2.039  14.979  22.450  0.00  0.00    +0.000 F 
ENDBRANCH  11  14
ENDBRANCH   5   8
ENDBRANCH   1   2
BRANCH   1  18
ATOM     18  C   UNL     1       2.458   5.203  18.865  0.00  0.00    +0.000 C 
BRANCH  18  19
ATOM     19  C   UNL     1       3.762   4.565  19.334  0.00  0.00    +0.000 C 
BRANCH  19  20
ATOM     20  O   UNL     1       4.811   5.538  19.290  0.00  0.00    +0.000 OA
BRANCH  20  28
ATOM     21  C   UNL     1       6.622   4.392  14.247  0.00  0.00    +0.000 A 
ATOM     22  C   UNL     1       5.854   3.716  15.181  0.00  0.00    +0.000 A 
ATOM     23  N   UNL     1       6.130   4.352  16.354  0.00  0.00    +0.000 N 
ATOM     24  C   UNL     1       7.067   5.308  16.112  0.00  0.00    +0.000 A 
ATOM     25  N   UNL     1       7.381   5.385  14.843  0.00  0.00    +0.000 NA
ATOM     26  O   UNL     1       7.687   5.976  17.073  0.00  0.00    +0.000 OA
ATOM     27  C   UNL     1       6.909   6.206  18.243  0.00  0.00    +0.000 C 
ATOM     28  C   UNL     1       6.045   5.032  18.745  0.00  0.00    +0.000 C 
ATOM     29  C   UNL     1       5.695   3.986  17.680  0.00  0.00    +0.000 C 
BRANCH  21  31
ATOM     30  O   UNL     1       6.015   3.205  12.388  0.00  0.00    +0.000 OA
ATOM     31  N   UNL     1       6.741   4.110  12.835  0.00  0.00    +0.000 N 
ATOM     32  O   UNL     1       7.544   4.778  12.172  0.00  0.00    +0.000 OA
ENDBRANCH  21  31
ENDBRANCH  20  28
ENDBRANCH  19  20
ENDBRANCH  18  19
ENDBRANCH   1  18
TORSDOF 8
ENDMDL
MODEL 9
REMARK VINA RESULT:      -7.7      2.670      4.632
REMARK  Name = 
REMARK  8 active torsions:
REMARK  status: ('A' for Active; 'I' for Inactive)
REMARK    1  A    between atoms: N_2  and  C_4
REMARK    2  A    between atoms: C_11  and  O_12
REMARK    3  A    between atoms: O_12  and  C_13
REMARK    4  A    between atoms: C_13  and  C_14
REMARK    5  A    between atoms: C_14  and  O_15
REMARK    6  A    between atoms: O_15  and  C_16
REMARK    7  A    between atoms: C_19  and  C_20
REMARK    8  A    between atoms: C_23  and  C_24
REMARK                            x       y       z     vdW  Elec       q    Type
REMARK                         _______ _______ _______ _____ _____    ______ ____
ROOT
ATOM      1  O   UNL     1       2.302   5.475  19.790  0.00  0.00    +0.000 OA
ENDROOT
BRANCH   1   2
ATOM      2  C   UNL     1       2.034   6.797  19.578  0.00  0.00    +0.000 A 
ATOM      3  C   UNL     1       1.477   7.476  20.661  0.00  0.00    +0.000 A 
ATOM      4  C   UNL     1       1.201   8.843  20.566  0.00  0.00    +0.000 A 
ATOM      5  C   UNL     1       1.510   9.575  19.411  0.00  0.00    +0.000 A 
ATOM      6  C   UNL     1       2.087   8.867  18.336  0.00  0.00    +0.000 A 
ATOM      7  C   UNL     1       2.345   7.492  18.417  0.00  0.00    +0.000 A 
BRANCH   5   8
ATOM      8  C   UNL     1       1.263  11.025  19.317  0.00  0.00    +0.000 A 
ATOM      9  C   UNL     1       1.967  11.844  18.421  0.00  0.00    +0.000 A 
ATOM     10  C   UNL     1       1.695  13.214  18.335  0.00  0.00    +0.000 A 
ATOM     11  C   UNL     1       0.705  13.763  19.147  0.00  0.00    +0.000 A 
ATOM     12  N   UNL     1       0.012  13.000  20.035  0.00  0.00    +0.000 NA
ATOM     13  C   UNL     1       0.310  11.679  20.096  0.00  0.00    +0.000 A 
BRANCH  11  14
ATOM     14  C   UNL     1       0.373  15.245  19.039  0.00  0.00    +0.000 C 
ATOM     15  F   UNL     1       1.467  16.029  18.798  0.00  0.00    +0.000 F 
ATOM     16  F   UNL     1      -0.499  15.529  18.024  0.00  0.00    +0.000 F 
ATOM     17  F   UNL     1      -0.192  15.758  20.172  0.00  0.00    +0.000 F 
ENDBRANCH  11  14
ENDBRANCH   5   8
ENDBRANCH   1   2
BRANCH   1  18
ATOM     18  C   UNL     1       1.187   4.688  20.216  0.00  0.00    +0.000 C 
BRANCH  18  19
ATOM     19  C   UNL     1       1.587   3.219  20.121  0.00  0.00    +0.000 C 
BRANCH  19  20
ATOM     20  O   UNL     1       1.795   2.869  18.748  0.00  0.00    +0.000 OA
BRANCH  20  28
ATOM     21  C   UNL     1       6.347   5.840  18.057  0.00  0.00    +0.000 A 
ATOM     22  C   UNL     1       5.275   5.503  17.248  0.00  0.00    +0.000 A 
ATOM     23  N   UNL     1       4.725   4.420  17.866  0.00  0.00    +0.000 N 
ATOM     24  C   UNL     1       5.491   4.111  18.948  0.00  0.00    +0.000 A 
ATOM     25  N   UNL     1       6.475   4.958  19.117  0.00  0.00    +0.000 NA
ATOM     26  O   UNL     1       5.336   3.000  19.651  0.00  0.00    +0.000 OA
ATOM     27  C   UNL     1       3.999   2.519  19.729  0.00  0.00    +0.000 C 
ATOM     28  C   UNL     1       3.168   2.566  18.432  0.00  0.00    +0.000 C 
ATOM     29  C   UNL     1       3.648   3.585  17.393  0.00  0.00    +0.000 C 
BRANCH  21  31
ATOM     30  O   UNL     1       7.120   7.631  16.862  0.00  0.00    +0.000 OA
ATOM     31  N   UNL     1       7.306   6.901  17.851  0.00  0.00    +0.000 N 
ATOM     32  O   UNL     1       8.235   7.013  18.660  0.00  0.00    +0.000 OA
ENDBRANCH  21  31
ENDBRANCH  20  28
ENDBRANCH  19  20
ENDBRANCH  18  19
ENDBRANCH   1  18
TORSDOF 8
ENDMDL
