MODEL 1
REMARK VINA RESULT:      -8.5      0.000      0.000
REMARK  Name = 
REMARK  8 active torsions:
REMARK  status: ('A' for Active; 'I' for Inactive)
REMARK    1  A    between atoms: C_1  and  C_2
REMARK    2  A    between atoms: C_2  and  O_4
REMARK    3  A    between atoms: O_4  and  C_5
REMARK    4  A    between atoms: C_5  and  C_6
REMARK    5  A    between atoms: C_5  and  C_24
REMARK    6  A    between atoms: C_6  and  N_7
REMARK    7  A    between atoms: N_18  and  C_19
REMARK    8  A    between atoms: N_22  and  C_23
REMARK                            x       y       z     vdW  Elec       q    Type
REMARK                         _______ _______ _______ _____ _____    ______ ____
ROOT
ATOM      1  N   UNL     1       2.428   6.910  19.453  0.00  0.00    +0.000 N 
ATOM      2  C   UNL     1       2.506   6.877  17.990  0.00  0.00    +0.000 C 
ATOM      3  C   UNL     1       2.850   8.266  17.466  0.00  0.00    +0.000 C 
ATOM      4  C   UNL     1       1.757   9.222  17.901  0.00  0.00    +0.000 C 
ATOM      5  N   UNL     1       1.431   9.041  19.297  0.00  0.00    +0.000 N 
ATOM      6  C   UNL     1       1.761   7.936  20.058  0.00  0.00    +0.000 A 
ATOM      7  N   UNL     1       1.359   8.111  21.306  0.00  0.00    +0.000 NA
ATOM      8  C   UNL     1       0.736   9.345  21.315  0.00  0.00    +0.000 A 
ATOM      9  C   UNL     1       0.767   9.920  20.082  0.00  0.00    +0.000 A 
ATOM     10  C   UNL     1       0.209  11.182  19.770  0.00  0.00    +0.000 A 
ATOM     11  O   UNL     1       0.210  11.647  18.633  0.00  0.00    +0.000 OA
ATOM     12  N   UNL     1      -0.334  11.821  20.877  0.00  0.00    +0.000 N 
ATOM     13  C   UNL     1      -0.884  13.149  20.673  0.00  0.00    +0.000 C 
ATOM     14  C   UNL     1      -0.417  11.275  22.173  0.00  0.00    +0.000 A 
ATOM     15  O   UNL     1      -0.959  11.905  23.084  0.00  0.00    +0.000 OA
ATOM     16  N   UNL     1       0.137   9.996  22.372  0.00  0.00    +0.000 N 
ATOM     17  C   UNL     1       0.076   9.394  23.689  0.00  0.00    +0.000 C 
ENDROOT
BRANCH   1  18
ATOM     18  C   UNL     1       2.979   5.779  20.226  0.00  0.00    +0.000 C 
BRANCH  18  19
ATOM     19  C   UNL     1       3.274   4.520  19.352  0.00  0.00    +0.000 C 
BRANCH  19  20
ATOM     20  C   UNL     1       4.625   4.624  18.635  0.00  0.00    +0.000 A 
ATOM     21  C   UNL     1       5.723   5.221  19.278  0.00  0.00    +0.000 A 
ATOM     22  C   UNL     1       6.967   5.318  18.642  0.00  0.00    +0.000 A 
ATOM     23  C   UNL     1       7.138   4.819  17.352  0.00  0.00    +0.000 A 
ATOM     24  C   UNL     1       6.060   4.228  16.695  0.00  0.00    +0.000 A 
ATOM     25  C   UNL     1       4.816   4.133  17.330  0.00  0.00    +0.000 A 
ENDBRANCH  19  20
BRANCH  19  26
ATOM     26  O   UNL     1       3.318   3.354  20.214  0.00  0.00    +0.000 OA
BRANCH  26  28
ATOM     27  C   UNL     1       1.024   2.886  20.011  0.00  0.00    +0.000 C 
ATOM     28  C   UNL     1       2.199   3.077  20.929  0.00  0.00    +0.000 C 
ATOM     29  O   UNL     1       2.116   2.990  22.141  0.00  0.00    +0.000 OA
ENDBRANCH  26  28
ENDBRANCH  19  26
ENDBRANCH  18  19
ENDBRANCH   1  18
TORSDOF 5
ENDMDL
MODEL 2
REMARK VINA RESULT:      -8.4      2.799      4.966
REMARK  Name = 
REMARK  8 active torsions:
REMARK  status: ('A' for Active; 'I' for Inactive)
REMARK    1  A    between atoms: C_1  and  C_2
REMARK    2  A    between atoms: C_2  and  O_4
REMARK    3  A    between atoms: O_4  and  C_5
REMARK    4  A    between atoms: C_5  and  C_6
REMARK    5  A    between atoms: C_5  and  C_24
REMARK    6  A    between atoms: C_6  and  N_7
REMARK    7  A    between atoms: N_18  and  C_19
REMARK    8  A    between atoms: N_22  and  C_23
REMARK                            x       y       z     vdW  Elec       q    Type
REMARK                         _______ _______ _______ _____ _____    ______ ____
ROOT
ATOM      1  N   UNL     1       4.398   5.841  17.382  0.00  0.00    +0.000 N 
ATOM      2  C   UNL     1       4.741   4.607  18.095  0.00  0.00    +0.000 C 
ATOM      3  C   UNL     1       3.485   4.016  18.722  0.00  0.00    +0.000 C 
ATOM      4  C   UNL     1       2.916   5.029  19.694  0.00  0.00    +0.000 C 
ATOM      5  N   UNL     1       2.872   6.349  19.106  0.00  0.00    +0.000 N 
ATOM      6  C   UNL     1       3.573   6.747  17.984  0.00  0.00    +0.000 A 
ATOM      7  N   UNL     1       3.271   7.999  17.683  0.00  0.00    +0.000 NA
ATOM      8  C   UNL     1       2.379   8.400  18.661  0.00  0.00    +0.000 A 
ATOM      9  C   UNL     1       2.137   7.395  19.546  0.00  0.00    +0.000 A 
ATOM     10  C   UNL     1       1.271   7.499  20.660  0.00  0.00    +0.000 A 
ATOM     11  O   UNL     1       1.116   6.586  21.469  0.00  0.00    +0.000 OA
ATOM     12  N   UNL     1       0.634   8.729  20.737  0.00  0.00    +0.000 N 
ATOM     13  C   UNL     1      -0.319   8.918  21.816  0.00  0.00    +0.000 C 
ATOM     14  C   UNL     1       0.855   9.816  19.869  0.00  0.00    +0.000 A 
ATOM     15  O   UNL     1       0.270  10.888  20.045  0.00  0.00    +0.000 OA
ATOM     16  N   UNL     1       1.763   9.623  18.810  0.00  0.00    +0.000 N 
ATOM     17  C   UNL     1       2.022  10.714  17.890  0.00  0.00    +0.000 C 
ENDROOT
BRANCH   1  18
ATOM     18  C   UNL     1       5.041   6.119  16.082  0.00  0.00    +0.000 C 
BRANCH  18  19
ATOM     19  C   UNL     1       6.423   5.416  15.913  0.00  0.00    +0.000 C 
BRANCH  19  20
ATOM     20  C   UNL     1       6.626   4.885  14.489  0.00  0.00    +0.000 A 
ATOM     21  C   UNL     1       5.797   3.865  13.990  0.00  0.00    +0.000 A 
ATOM     22  C   UNL     1       5.963   3.372  12.689  0.00  0.00    +0.000 A 
ATOM     23  C   UNL     1       6.958   3.889  11.863  0.00  0.00    +0.000 A 
ATOM     24  C   UNL     1       7.794   4.897  12.341  0.00  0.00    +0.000 A 
ATOM     25  C   UNL     1       7.630   5.388  13.642  0.00  0.00    +0.000 A 
ENDBRANCH  19  20
BRANCH  19  26
ATOM     26  O   UNL     1       7.474   6.380  16.180  0.00  0.00    +0.000 OA
BRANCH  26  28
ATOM     27  C   UNL     1       7.714   8.242  17.594  0.00  0.00    +0.000 C 
ATOM     28  C   UNL     1       7.657   6.744  17.474  0.00  0.00    +0.000 C 
ATOM     29  O   UNL     1       7.766   5.998  18.430  0.00  0.00    +0.000 OA
ENDBRANCH  26  28
ENDBRANCH  19  26
ENDBRANCH  18  19
ENDBRANCH   1  18
TORSDOF 5
ENDMDL
MODEL 3
REMARK VINA RESULT:      -8.4      0.520      1.122
REMARK  Name = 
REMARK  8 active torsions:
REMARK  status: ('A' for Active; 'I' for Inactive)
REMARK    1  A    between atoms: C_1  and  C_2
REMARK    2  A    between atoms: C_2  and  O_4
REMARK    3  A    between atoms: O_4  and  C_5
REMARK    4  A    between atoms: C_5  and  C_6
REMARK    5  A    between atoms: C_5  and  C_24
REMARK    6  A    between atoms: C_6  and  N_7
REMARK    7  A    between atoms: N_18  and  C_19
REMARK    8  A    between atoms: N_22  and  C_23
REMARK                            x       y       z     vdW  Elec       q    Type
REMARK                         _______ _______ _______ _____ _____    ______ ____
ROOT
ATOM      1  N   UNL     1       2.391   6.930  19.387  0.00  0.00    +0.000 N 
ATOM      2  C   UNL     1       2.480   6.924  17.924  0.00  0.00    +0.000 C 
ATOM      3  C   UNL     1       2.853   8.317  17.432  0.00  0.00    +0.000 C 
ATOM      4  C   UNL     1       1.773   9.283  17.877  0.00  0.00    +0.000 C 
ATOM      5  N   UNL     1       1.432   9.080  19.266  0.00  0.00    +0.000 N 
ATOM      6  C   UNL     1       1.736   7.955  20.007  0.00  0.00    +0.000 A 
ATOM      7  N   UNL     1       1.326   8.111  21.255  0.00  0.00    +0.000 NA
ATOM      8  C   UNL     1       0.725   9.356  21.284  0.00  0.00    +0.000 A 
ATOM      9  C   UNL     1       0.777   9.954  20.063  0.00  0.00    +0.000 A 
ATOM     10  C   UNL     1       0.243  11.232  19.773  0.00  0.00    +0.000 A 
ATOM     11  O   UNL     1       0.262  11.720  18.645  0.00  0.00    +0.000 OA
ATOM     12  N   UNL     1      -0.298  11.858  20.887  0.00  0.00    +0.000 N 
ATOM     13  C   UNL     1      -0.824  13.199  20.706  0.00  0.00    +0.000 C 
ATOM     14  C   UNL     1      -0.402  11.288  22.171  0.00  0.00    +0.000 A 
ATOM     15  O   UNL     1      -0.940  11.909  23.090  0.00  0.00    +0.000 OA
ATOM     16  N   UNL     1       0.128   9.996  22.349  0.00  0.00    +0.000 N 
ATOM     17  C   UNL     1       0.046   9.368  23.654  0.00  0.00    +0.000 C 
ENDROOT
BRANCH   1  18
ATOM     18  C   UNL     1       2.915   5.774  20.141  0.00  0.00    +0.000 C 
BRANCH  18  19
ATOM     19  C   UNL     1       3.249   4.547  19.237  0.00  0.00    +0.000 C 
BRANCH  19  20
ATOM     20  C   UNL     1       4.642   4.660  18.608  0.00  0.00    +0.000 A 
ATOM     21  C   UNL     1       4.874   4.168  17.311  0.00  0.00    +0.000 A 
ATOM     22  C   UNL     1       6.138   4.269  16.716  0.00  0.00    +0.000 A 
ATOM     23  C   UNL     1       7.193   4.863  17.405  0.00  0.00    +0.000 A 
ATOM     24  C   UNL     1       6.986   5.351  18.694  0.00  0.00    +0.000 A 
ATOM     25  C   UNL     1       5.723   5.249  19.290  0.00  0.00    +0.000 A 
ENDBRANCH  19  20
BRANCH  19  26
ATOM     26  O   UNL     1       3.227   3.347  20.052  0.00  0.00    +0.000 OA
BRANCH  26  28
ATOM     27  C   UNL     1       1.584   2.656  21.584  0.00  0.00    +0.000 C 
ATOM     28  C   UNL     1       2.041   2.695  20.153  0.00  0.00    +0.000 C 
ATOM     29  O   UNL     1       1.407   2.197  19.240  0.00  0.00    +0.000 OA
ENDBRANCH  26  28
ENDBRANCH  19  26
ENDBRANCH  18  19
ENDBRANCH   1  18
TORSDOF 5
ENDMDL
MODEL 4
REMARK VINA RESULT:      -8.3      2.874      4.958
REMARK  Name = 
REMARK  8 active torsions:
REMARK  status: ('A' for Active; 'I' for Inactive)
REMARK    1  A    between atoms: C_1  and  C_2
REMARK    2  A    between atoms: C_2  and  O_4
REMARK    3  A    between atoms: O_4  and  C_5
REMARK    4  A    between atoms: C_5  and  C_6
REMARK    5  A    between atoms: C_5  and  C_24
REMARK    6  A    between atoms: C_6  and  N_7
REMARK    7  A    between atoms: N_18  and  C_19
REMARK    8  A    between atoms: N_22  and  C_23
REMARK                            x       y       z     vdW  Elec       q    Type
REMARK                         _______ _______ _______ _____ _____    ______ ____
ROOT
ATOM      1  N   UNL     1       4.410   5.860  17.348  0.00  0.00    +0.000 N 
ATOM      2  C   UNL     1       4.742   4.614  18.045  0.00  0.00    +0.000 C 
ATOM      3  C   UNL     1       3.478   4.018  18.653  0.00  0.00    +0.000 C 
ATOM      4  C   UNL     1       2.904   5.019  19.635  0.00  0.00    +0.000 C 
ATOM      5  N   UNL     1       2.870   6.347  19.066  0.00  0.00    +0.000 N 
ATOM      6  C   UNL     1       3.583   6.760  17.957  0.00  0.00    +0.000 A 
ATOM      7  N   UNL     1       3.288   8.018  17.672  0.00  0.00    +0.000 NA
ATOM      8  C   UNL     1       2.390   8.407  18.648  0.00  0.00    +0.000 A 
ATOM      9  C   UNL     1       2.136   7.390  19.516  0.00  0.00    +0.000 A 
ATOM     10  C   UNL     1       1.261   7.480  20.624  0.00  0.00    +0.000 A 
ATOM     11  O   UNL     1       1.096   6.556  21.417  0.00  0.00    +0.000 OA
ATOM     12  N   UNL     1       0.627   8.712  20.714  0.00  0.00    +0.000 N 
ATOM     13  C   UNL     1      -0.333   8.889  21.788  0.00  0.00    +0.000 C 
ATOM     14  C   UNL     1       0.860   9.811  19.864  0.00  0.00    +0.000 A 
ATOM     15  O   UNL     1       0.278  10.882  20.052  0.00  0.00    +0.000 OA
ATOM     16  N   UNL     1       1.777   9.631  18.811  0.00  0.00    +0.000 N 
ATOM     17  C   UNL     1       2.048  10.734  17.909  0.00  0.00    +0.000 C 
ENDROOT
BRANCH   1  18
ATOM     18  C   UNL     1       5.065   6.155  16.058  0.00  0.00    +0.000 C 
BRANCH  18  19
ATOM     19  C   UNL     1       6.416   5.400  15.865  0.00  0.00    +0.000 C 
BRANCH  19  20
ATOM     20  C   UNL     1       6.560   4.834  14.447  0.00  0.00    +0.000 A 
ATOM     21  C   UNL     1       7.589   5.290  13.605  0.00  0.00    +0.000 A 
ATOM     22  C   UNL     1       7.741   4.780  12.309  0.00  0.00    +0.000 A 
ATOM     23  C   UNL     1       6.868   3.804  11.832  0.00  0.00    +0.000 A 
ATOM     24  C   UNL     1       5.837   3.344  12.649  0.00  0.00    +0.000 A 
ATOM     25  C   UNL     1       5.684   3.855  13.943  0.00  0.00    +0.000 A 
ENDBRANCH  19  20
BRANCH  19  26
ATOM     26  O   UNL     1       7.507   6.332  16.082  0.00  0.00    +0.000 OA
BRANCH  26  28
ATOM     27  C   UNL     1       7.804   6.187  18.409  0.00  0.00    +0.000 C 
ATOM     28  C   UNL     1       7.475   7.057  17.228  0.00  0.00    +0.000 C 
ATOM     29  O   UNL     1       7.218   8.244  17.329  0.00  0.00    +0.000 OA
ENDBRANCH  26  28
ENDBRANCH  19  26
ENDBRANCH  18  19
ENDBRANCH   1  18
TORSDOF 5
ENDMDL
MODEL 5
REMARK VINA RESULT:      -7.8      2.686      5.150
REMARK  Name = 
REMARK  8 active torsions:
REMARK  status: ('A' for Active; 'I' for Inactive)
REMARK    1  A    between atoms: C_1  and  C_2
REMARK    2  A    between atoms: C_2  and  O_4
REMARK    3  A    between atoms: O_4  and  C_5
REMARK    4  A    between atoms: C_5  and  C_6
REMARK    5  A    between atoms: C_5  and  C_24
REMARK    6  A    between atoms: C_6  and  N_7
REMARK    7  A    between atoms: N_18  and  C_19
REMARK    8  A    between atoms: N_22  and  C_23
REMARK                            x       y       z     vdW  Elec       q    Type
REMARK                         _______ _______ _______ _____ _____    ______ ____
ROOT
ATOM      1  N   UNL     1       4.009   4.300  17.394  0.00  0.00    +0.000 N 
ATOM      2  C   UNL     1       4.279   3.137  18.244  0.00  0.00    +0.000 C 
ATOM      3  C   UNL     1       3.054   2.836  19.099  0.00  0.00    +0.000 C 
ATOM      4  C   UNL     1       2.766   4.047  19.961  0.00  0.00    +0.000 C 
ATOM      5  N   UNL     1       2.817   5.265  19.185  0.00  0.00    +0.000 N 
ATOM      6  C   UNL     1       3.403   5.395  17.940  0.00  0.00    +0.000 A 
ATOM      7  N   UNL     1       3.231   6.625  17.486  0.00  0.00    +0.000 NA
ATOM      8  C   UNL     1       2.546   7.287  18.488  0.00  0.00    +0.000 A 
ATOM      9  C   UNL     1       2.296   6.461  19.540  0.00  0.00    +0.000 A 
ATOM     10  C   UNL     1       1.614   6.847  20.719  0.00  0.00    +0.000 A 
ATOM     11  O   UNL     1       1.453   6.088  21.672  0.00  0.00    +0.000 OA
ATOM     12  N   UNL     1       1.164   8.159  20.678  0.00  0.00    +0.000 N 
ATOM     13  C   UNL     1       0.404   8.636  21.819  0.00  0.00    +0.000 C 
ATOM     14  C   UNL     1       1.406   9.071  19.632  0.00  0.00    +0.000 A 
ATOM     15  O   UNL     1       0.999  10.232  19.707  0.00  0.00    +0.000 OA
ATOM     16  N   UNL     1       2.124   8.599  18.517  0.00  0.00    +0.000 N 
ATOM     17  C   UNL     1       2.397   9.501  17.414  0.00  0.00    +0.000 C 
ENDROOT
BRANCH   1  18
ATOM     18  C   UNL     1       4.496   4.297  16.000  0.00  0.00    +0.000 C 
BRANCH  18  19
ATOM     19  C   UNL     1       6.048   4.181  15.889  0.00  0.00    +0.000 C 
BRANCH  19  20
ATOM     20  C   UNL     1       6.530   4.304  14.438  0.00  0.00    +0.000 A 
ATOM     21  C   UNL     1       5.975   3.487  13.438  0.00  0.00    +0.000 A 
ATOM     22  C   UNL     1       6.397   3.589  12.106  0.00  0.00    +0.000 A 
ATOM     23  C   UNL     1       7.380   4.510  11.750  0.00  0.00    +0.000 A 
ATOM     24  C   UNL     1       7.948   5.324  12.728  0.00  0.00    +0.000 A 
ATOM     25  C   UNL     1       7.528   5.221  14.059  0.00  0.00    +0.000 A 
ENDBRANCH  19  20
BRANCH  19  26
ATOM     26  O   UNL     1       6.652   5.259  16.649  0.00  0.00    +0.000 OA
BRANCH  26  28
ATOM     27  C   UNL     1       7.123   5.710  18.907  0.00  0.00    +0.000 C 
ATOM     28  C   UNL     1       7.457   4.905  17.682  0.00  0.00    +0.000 C 
ATOM     29  O   UNL     1       8.337   4.063  17.661  0.00  0.00    +0.000 OA
ENDBRANCH  26  28
ENDBRANCH  19  26
ENDBRANCH  18  19
ENDBRANCH   1  18
TORSDOF 5
ENDMDL
MODEL 6
REMARK VINA RESULT:      -7.6      3.746      6.290
REMARK  Name = 
REMARK  8 active torsions:
REMARK  status: ('A' for Active; 'I' for Inactive)
REMARK    1  A    between atoms: C_1  and  C_2
REMARK    2  A    between atoms: C_2  and  O_4
REMARK    3  A    between atoms: O_4  and  C_5
REMARK    4  A    between atoms: C_5  and  C_6
REMARK    5  A    between atoms: C_5  and  C_24
REMARK    6  A    between atoms: C_6  and  N_7
REMARK    7  A    between atoms: N_18  and  C_19
REMARK    8  A    between atoms: N_22  and  C_23
REMARK                            x       y       z     vdW  Elec       q    Type
REMARK                         _______ _______ _______ _____ _____    ______ ____
ROOT
ATOM      1  N   UNL     1      -1.406  10.925  18.375  0.00  0.00    +0.000 N 
ATOM      2  C   UNL     1      -1.637  10.000  17.262  0.00  0.00    +0.000 C 
ATOM      3  C   UNL     1      -2.576  10.645  16.250  0.00  0.00    +0.000 C 
ATOM      4  C   UNL     1      -3.888  10.949  16.946  0.00  0.00    +0.000 C 
ATOM      5  N   UNL     1      -3.665  11.584  18.224  0.00  0.00    +0.000 N 
ATOM      6  C   UNL     1      -2.469  11.589  18.916  0.00  0.00    +0.000 A 
ATOM      7  N   UNL     1      -2.592  12.299  20.026  0.00  0.00    +0.000 NA
ATOM      8  C   UNL     1      -3.908  12.723  20.039  0.00  0.00    +0.000 A 
ATOM      9  C   UNL     1      -4.578  12.279  18.940  0.00  0.00    +0.000 A 
ATOM     10  C   UNL     1      -5.941  12.545  18.670  0.00  0.00    +0.000 A 
ATOM     11  O   UNL     1      -6.527  12.084  17.693  0.00  0.00    +0.000 OA
ATOM     12  N   UNL     1      -6.531  13.366  19.621  0.00  0.00    +0.000 N 
ATOM     13  C   UNL     1      -7.916  13.743  19.406  0.00  0.00    +0.000 C 
ATOM     14  C   UNL     1      -5.902  13.841  20.789  0.00  0.00    +0.000 A 
ATOM     15  O   UNL     1      -6.525  14.532  21.598  0.00  0.00    +0.000 OA
ATOM     16  N   UNL     1      -4.552  13.492  20.984  0.00  0.00    +0.000 N 
ATOM     17  C   UNL     1      -3.863  13.959  22.171  0.00  0.00    +0.000 C 
ENDROOT
BRANCH   1  18
ATOM     18  C   UNL     1      -0.050  11.031  18.949  0.00  0.00    +0.000 C 
BRANCH  18  19
ATOM     19  C   UNL     1       0.268   9.912  19.990  0.00  0.00    +0.000 C 
BRANCH  19  20
ATOM     20  C   UNL     1       1.250   8.873  19.433  0.00  0.00    +0.000 A 
ATOM     21  C   UNL     1       1.789   9.030  18.144  0.00  0.00    +0.000 A 
ATOM     22  C   UNL     1       2.692   8.096  17.621  0.00  0.00    +0.000 A 
ATOM     23  C   UNL     1       3.075   6.989  18.377  0.00  0.00    +0.000 A 
ATOM     24  C   UNL     1       2.547   6.813  19.655  0.00  0.00    +0.000 A 
ATOM     25  C   UNL     1       1.642   7.745  20.177  0.00  0.00    +0.000 A 
ENDBRANCH  19  20
BRANCH  19  26
ATOM     26  O   UNL     1       0.881  10.519  21.156  0.00  0.00    +0.000 OA
BRANCH  26  28
ATOM     27  C   UNL     1      -0.227   9.522  22.973  0.00  0.00    +0.000 C 
ATOM     28  C   UNL     1       0.067  10.783  22.209  0.00  0.00    +0.000 C 
ATOM     29  O   UNL     1      -0.384  11.869  22.523  0.00  0.00    +0.000 OA
ENDBRANCH  26  28
ENDBRANCH  19  26
ENDBRANCH  18  19
ENDBRANCH   1  18
TORSDOF 5
ENDMDL
MODEL 7
REMARK VINA RESULT:      -7.6      1.212      1.451
REMARK  Name = 
REMARK  8 active torsions:
REMARK  status: ('A' for Active; 'I' for Inactive)
REMARK    1  A    between atoms: C_1  and  C_2
REMARK    2  A    between atoms: C_2  and  O_4
REMARK    3  A    between atoms: O_4  and  C_5
REMARK    4  A    between atoms: C_5  and  C_6
REMARK    5  A    between atoms: C_5  and  C_24
REMARK    6  A    between atoms: C_6  and  N_7
REMARK    7  A    between atoms: N_18  and  C_19
REMARK    8  A    between atoms: N_22  and  C_23
REMARK                            x       y       z     vdW  Elec       q    Type
REMARK                         _______ _______ _______ _____ _____    ______ ____
ROOT
ATOM      1  N   UNL     1       2.136   7.590  19.087  0.00  0.00    +0.000 N 
ATOM      2  C   UNL     1       2.208   7.786  17.637  0.00  0.00    +0.000 C 
ATOM      3  C   UNL     1       2.564   9.236  17.336  0.00  0.00    +0.000 C 
ATOM      4  C   UNL     1       1.482  10.122  17.920  0.00  0.00    +0.000 C 
ATOM      5  N   UNL     1       1.159   9.728  19.272  0.00  0.00    +0.000 N 
ATOM      6  C   UNL     1       1.480   8.514  19.849  0.00  0.00    +0.000 A 
ATOM      7  N   UNL     1       1.083   8.494  21.111  0.00  0.00    +0.000 NA
ATOM      8  C   UNL     1       0.473   9.717  21.316  0.00  0.00    +0.000 A 
ATOM      9  C   UNL     1       0.505  10.478  20.188  0.00  0.00    +0.000 A 
ATOM     10  C   UNL     1      -0.041  11.779  20.082  0.00  0.00    +0.000 A 
ATOM     11  O   UNL     1      -0.039  12.416  19.031  0.00  0.00    +0.000 OA
ATOM     12  N   UNL     1      -0.575  12.241  21.277  0.00  0.00    +0.000 N 
ATOM     13  C   UNL     1      -1.113  13.589  21.287  0.00  0.00    +0.000 C 
ATOM     14  C   UNL     1      -0.659  11.500  22.471  0.00  0.00    +0.000 A 
ATOM     15  O   UNL     1      -1.192  11.983  23.472  0.00  0.00    +0.000 OA
ATOM     16  N   UNL     1      -0.117  10.200  22.465  0.00  0.00    +0.000 N 
ATOM     17  C   UNL     1      -0.180   9.399  23.672  0.00  0.00    +0.000 C 
ENDROOT
BRANCH   1  18
ATOM     18  C   UNL     1       2.677   6.346  19.670  0.00  0.00    +0.000 C 
BRANCH  18  19
ATOM     19  C   UNL     1       3.352   5.414  18.618  0.00  0.00    +0.000 C 
BRANCH  19  20
ATOM     20  C   UNL     1       4.848   5.716  18.459  0.00  0.00    +0.000 A 
ATOM     21  C   UNL     1       5.769   5.244  19.410  0.00  0.00    +0.000 A 
ATOM     22  C   UNL     1       7.139   5.503  19.278  0.00  0.00    +0.000 A 
ATOM     23  C   UNL     1       7.614   6.237  18.193  0.00  0.00    +0.000 A 
ATOM     24  C   UNL     1       6.716   6.718  17.242  0.00  0.00    +0.000 A 
ATOM     25  C   UNL     1       5.346   6.461  17.374  0.00  0.00    +0.000 A 
ENDBRANCH  19  20
BRANCH  19  26
ATOM     26  O   UNL     1       3.223   4.039  19.061  0.00  0.00    +0.000 OA
BRANCH  26  28
ATOM     27  C   UNL     1       1.677   2.300  19.395  0.00  0.00    +0.000 C 
ATOM     28  C   UNL     1       2.294   3.276  18.432  0.00  0.00    +0.000 C 
ATOM     29  O   UNL     1       1.977   3.340  17.258  0.00  0.00    +0.000 OA
ENDBRANCH  26  28
ENDBRANCH  19  26
ENDBRANCH  18  19
ENDBRANCH   1  18
TORSDOF 5
ENDMDL
MODEL 8
REMARK VINA RESULT:      -7.5      2.384      8.252
REMARK  Name = 
REMARK  8 active torsions:
REMARK  status: ('A' for Active; 'I' for Inactive)
REMARK    1  A    between atoms: C_1  and  C_2
REMARK    2  A    between atoms: C_2  and  O_4
REMARK    3  A    between atoms: O_4  and  C_5
REMARK    4  A    between atoms: C_5  and  C_6
REMARK    5  A    between atoms: C_5  and  C_24
REMARK    6  A    between atoms: C_6  and  N_7
REMARK    7  A    between atoms: N_18  and  C_19
REMARK    8  A    between atoms: N_22  and  C_23
REMARK                            x       y       z     vdW  Elec       q    Type
REMARK                         _______ _______ _______ _____ _____    ______ ____
ROOT
ATOM      1  N   UNL     1       1.334   9.481  19.222  0.00  0.00    +0.000 N 
ATOM      2  C   UNL     1       0.323   9.387  20.279  0.00  0.00    +0.000 C 
ATOM      3  C   UNL     1       0.912   8.668  21.486  0.00  0.00    +0.000 C 
ATOM      4  C   UNL     1       1.332   7.278  21.052  0.00  0.00    +0.000 C 
ATOM      5  N   UNL     1       2.070   7.319  19.810  0.00  0.00    +0.000 N 
ATOM      6  C   UNL     1       2.087   8.381  18.927  0.00  0.00    +0.000 A 
ATOM      7  N   UNL     1       2.898   8.115  17.916  0.00  0.00    +0.000 NA
ATOM      8  C   UNL     1       3.375   6.841  18.163  0.00  0.00    +0.000 A 
ATOM      9  C   UNL     1       2.863   6.340  19.320  0.00  0.00    +0.000 A 
ATOM     10  C   UNL     1       3.160   5.058  19.840  0.00  0.00    +0.000 A 
ATOM     11  O   UNL     1       2.637   4.619  20.862  0.00  0.00    +0.000 OA
ATOM     12  N   UNL     1       4.087   4.365  19.074  0.00  0.00    +0.000 N 
ATOM     13  C   UNL     1       4.500   3.059  19.553  0.00  0.00    +0.000 C 
ATOM     14  C   UNL     1       4.639   4.816  17.859  0.00  0.00    +0.000 A 
ATOM     15  O   UNL     1       5.425   4.106  17.227  0.00  0.00    +0.000 OA
ATOM     16  N   UNL     1       4.252   6.092  17.408  0.00  0.00    +0.000 N 
ATOM     17  C   UNL     1       4.795   6.599  16.162  0.00  0.00    +0.000 C 
ENDROOT
BRANCH   1  18
ATOM     18  C   UNL     1       1.434  10.726  18.435  0.00  0.00    +0.000 C 
BRANCH  18  19
ATOM     19  C   UNL     1       0.382  11.802  18.845  0.00  0.00    +0.000 C 
BRANCH  19  20
ATOM     20  C   UNL     1       0.949  13.224  18.754  0.00  0.00    +0.000 A 
ATOM     21  C   UNL     1       2.260  13.433  18.291  0.00  0.00    +0.000 A 
ATOM     22  C   UNL     1       2.794  14.724  18.193  0.00  0.00    +0.000 A 
ATOM     23  C   UNL     1       2.027  15.830  18.555  0.00  0.00    +0.000 A 
ATOM     24  C   UNL     1       0.727  15.643  19.023  0.00  0.00    +0.000 A 
ATOM     25  C   UNL     1       0.195  14.353  19.122  0.00  0.00    +0.000 A 
ENDBRANCH  19  20
BRANCH  19  26
ATOM     26  O   UNL     1      -0.749  11.718  17.940  0.00  0.00    +0.000 OA
BRANCH  26  28
ATOM     27  C   UNL     1      -2.605  10.289  17.753  0.00  0.00    +0.000 C 
ATOM     28  C   UNL     1      -1.954  11.426  18.490  0.00  0.00    +0.000 C 
ATOM     29  O   UNL     1      -2.471  11.982  19.442  0.00  0.00    +0.000 OA
ENDBRANCH  26  28
ENDBRANCH  19  26
ENDBRANCH  18  19
ENDBRANCH   1  18
TORSDOF 5
ENDMDL
MODEL 9
REMARK VINA RESULT:      -7.5      2.531      8.077
REMARK  Name = 
REMARK  8 active torsions:
REMARK  status: ('A' for Active; 'I' for Inactive)
REMARK    1  A    between atoms: C_1  and  C_2
REMARK    2  A    between atoms: C_2  and  O_4
REMARK    3  A    between atoms: O_4  and  C_5
REMARK    4  A    between atoms: C_5  and  C_6
REMARK    5  A    between atoms: C_5  and  C_24
REMARK    6  A    between atoms: C_6  and  N_7
REMARK    7  A    between atoms: N_18  and  C_19
REMARK    8  A    between atoms: N_22  and  C_23
REMARK                            x       y       z     vdW  Elec       q    Type
REMARK                         _______ _______ _______ _____ _____    ______ ____
ROOT
ATOM      1  N   UNL     1       1.369   9.543  19.130  0.00  0.00    +0.000 N 
ATOM      2  C   UNL     1       0.340   9.473  20.171  0.00  0.00    +0.000 C 
ATOM      3  C   UNL     1       0.901   8.758  21.394  0.00  0.00    +0.000 C 
ATOM      4  C   UNL     1       1.310   7.359  20.981  0.00  0.00    +0.000 C 
ATOM      5  N   UNL     1       2.069   7.379  19.751  0.00  0.00    +0.000 N 
ATOM      6  C   UNL     1       2.114   8.432  18.858  0.00  0.00    +0.000 A 
ATOM      7  N   UNL     1       2.938   8.146  17.863  0.00  0.00    +0.000 NA
ATOM      8  C   UNL     1       3.395   6.869  18.130  0.00  0.00    +0.000 A 
ATOM      9  C   UNL     1       2.858   6.386  19.283  0.00  0.00    +0.000 A 
ATOM     10  C   UNL     1       3.130   5.105  19.821  0.00  0.00    +0.000 A 
ATOM     11  O   UNL     1       2.585   4.682  20.838  0.00  0.00    +0.000 OA
ATOM     12  N   UNL     1       4.061   4.393  19.077  0.00  0.00    +0.000 N 
ATOM     13  C   UNL     1       4.450   3.086  19.575  0.00  0.00    +0.000 C 
ATOM     14  C   UNL     1       4.638   4.825  17.867  0.00  0.00    +0.000 A 
ATOM     15  O   UNL     1       5.426   4.100  17.255  0.00  0.00    +0.000 OA
ATOM     16  N   UNL     1       4.275   6.102  17.397  0.00  0.00    +0.000 N 
ATOM     17  C   UNL     1       4.845   6.590  16.156  0.00  0.00    +0.000 C 
ENDROOT
BRANCH   1  18
ATOM     18  C   UNL     1       1.498  10.779  18.333  0.00  0.00    +0.000 C 
BRANCH  18  19
ATOM     19  C   UNL     1       0.994  12.052  19.080  0.00  0.00    +0.000 C 
BRANCH  19  20
ATOM     20  C   UNL     1       2.128  13.051  19.342  0.00  0.00    +0.000 A 
ATOM     21  C   UNL     1       2.438  13.439  20.657  0.00  0.00    +0.000 A 
ATOM     22  C   UNL     1       3.475  14.344  20.917  0.00  0.00    +0.000 A 
ATOM     23  C   UNL     1       4.222  14.877  19.868  0.00  0.00    +0.000 A 
ATOM     24  C   UNL     1       3.926  14.509  18.556  0.00  0.00    +0.000 A 
ATOM     25  C   UNL     1       2.888  13.606  18.296  0.00  0.00    +0.000 A 
ENDBRANCH  19  20
BRANCH  19  26
ATOM     26  O   UNL     1       0.001  12.715  18.257  0.00  0.00    +0.000 OA
BRANCH  26  28
ATOM     27  C   UNL     1      -1.789  12.540  19.769  0.00  0.00    +0.000 C 
ATOM     28  C   UNL     1      -1.281  12.288  18.377  0.00  0.00    +0.000 C 
ATOM     29  O   UNL     1      -1.956  11.767  17.508  0.00  0.00    +0.000 OA
ENDBRANCH  26  28
ENDBRANCH  19  26
ENDBRANCH  18  19
ENDBRANCH   1  18
TORSDOF 5
ENDMDL
