MODEL 1
REMARK VINA RESULT:      -7.1      0.000      0.000
REMARK  Name = 
REMARK  8 active torsions:
REMARK  status: ('A' for Active; 'I' for Inactive)
REMARK    1  A    between atoms: C_1  and  O_2
REMARK    2  A    between atoms: O_2  and  C_3
REMARK    3  A    between atoms: C_6  and  C_7
REMARK    4  A    between atoms: C_7  and  C_8
REMARK    5  A    between atoms: C_14  and  O_15
REMARK    6  A    between atoms: O_15  and  C_16
REMARK    7  A    between atoms: C_17  and  O_18
REMARK    8  A    between atoms: O_18  and  C_19
REMARK                            x       y       z     vdW  Elec       q    Type
REMARK                         _______ _______ _______ _____ _____    ______ ____
ROOT
ATOM      1  C   UNL     1       2.773   6.830  18.492  0.00  0.00    +0.000 C 
ATOM      2  N   UNL     1       1.708   5.828  18.042  0.00  0.00    +0.000 NA
ATOM      3  C   UNL     1       1.945   4.544  18.726  0.00  0.00    +0.000 C 
ATOM      4  C   UNL     1       2.977   3.802  17.933  0.00  0.00    +0.000 C 
ATOM      5  C   UNL     1       4.072   4.760  17.542  0.00  0.00    +0.000 A 
ATOM      6  C   UNL     1       4.950   4.224  16.578  0.00  0.00    +0.000 A 
ATOM      7  C   UNL     1       6.147   4.835  16.257  0.00  0.00    +0.000 A 
ATOM      8  C   UNL     1       6.456   6.010  16.942  0.00  0.00    +0.000 A 
ATOM      9  C   UNL     1       5.464   6.664  17.811  0.00  0.00    +0.000 A 
ATOM     10  C   UNL     1       4.187   6.073  18.094  0.00  0.00    +0.000 A 
ATOM     11  H   UNL     1       1.784   5.714  17.034  0.00  0.00    +0.000 HD
ENDROOT
BRANCH   7  12
ATOM     12  O   UNL     1       6.765   4.141  15.252  0.00  0.00    +0.000 OA
ATOM     13  C   UNL     1       6.305   4.170  13.917  0.00  0.00    +0.000 C 
ENDBRANCH   7  12
BRANCH   8  14
ATOM     14  O   UNL     1       7.619   6.659  16.567  0.00  0.00    +0.000 OA
ATOM     15  C   UNL     1       7.971   7.783  17.366  0.00  0.00    +0.000 C 
ENDBRANCH   8  14
BRANCH   1  16
ATOM     16  C   UNL     1       1.854   7.314  19.818  0.00  0.00    +0.000 C 
BRANCH  16  20
ATOM     17  C   UNL     1       0.029  10.559  22.231  0.00  0.00    +0.000 A 
ATOM     18  C   UNL     1       0.115  10.669  20.821  0.00  0.00    +0.000 A 
ATOM     19  C   UNL     1       0.683   9.659  19.980  0.00  0.00    +0.000 A 
ATOM     20  C   UNL     1       1.207   8.515  20.544  0.00  0.00    +0.000 A 
ATOM     21  C   UNL     1       1.109   8.419  21.982  0.00  0.00    +0.000 A 
ATOM     22  C   UNL     1       0.540   9.413  22.816  0.00  0.00    +0.000 A 
BRANCH  17  24
ATOM     23  C   UNL     1      -1.951  11.703  22.993  0.00  0.00    +0.000 C 
ATOM     24  O   UNL     1      -0.528  11.627  22.877  0.00  0.00    +0.000 OA
ENDBRANCH  17  24
ENDBRANCH  16  20
ENDBRANCH   1  16
TORSDOF 5
ENDMDL
MODEL 2
REMARK VINA RESULT:      -7.0      3.724      9.038
REMARK  Name = 
REMARK  8 active torsions:
REMARK  status: ('A' for Active; 'I' for Inactive)
REMARK    1  A    between atoms: C_1  and  O_2
REMARK    2  A    between atoms: O_2  and  C_3
REMARK    3  A    between atoms: C_6  and  C_7
REMARK    4  A    between atoms: C_7  and  C_8
REMARK    5  A    between atoms: C_14  and  O_15
REMARK    6  A    between atoms: O_15  and  C_16
REMARK    7  A    between atoms: C_17  and  O_18
REMARK    8  A    between atoms: O_18  and  C_19
REMARK                            x       y       z     vdW  Elec       q    Type
REMARK                         _______ _______ _______ _____ _____    ______ ____
ROOT
ATOM      1  C   UNL     1       0.895   9.838  17.951  0.00  0.00    +0.000 C 
ATOM      2  N   UNL     1       1.329  10.726  19.118  0.00  0.00    +0.000 NA
ATOM      3  C   UNL     1       0.703  10.226  20.355  0.00  0.00    +0.000 C 
ATOM      4  C   UNL     1      -0.675  10.811  20.422  0.00  0.00    +0.000 C 
ATOM      5  C   UNL     1      -1.312  10.717  19.060  0.00  0.00    +0.000 A 
ATOM      6  C   UNL     1      -2.497  11.473  18.956  0.00  0.00    +0.000 A 
ATOM      7  C   UNL     1      -3.359  11.341  17.884  0.00  0.00    +0.000 A 
ATOM      8  C   UNL     1      -3.006  10.412  16.905  0.00  0.00    +0.000 A 
ATOM      9  C   UNL     1      -1.686   9.758  16.921  0.00  0.00    +0.000 A 
ATOM     10  C   UNL     1      -0.753   9.945  17.995  0.00  0.00    +0.000 A 
ATOM     11  H   UNL     1       1.026  11.677  18.924  0.00  0.00    +0.000 HD
ENDROOT
BRANCH   7  12
ATOM     12  O   UNL     1      -4.388  12.234  18.006  0.00  0.00    +0.000 OA
ATOM     13  C   UNL     1      -5.730  11.826  18.171  0.00  0.00    +0.000 C 
ENDBRANCH   7  12
BRANCH   8  14
ATOM     14  O   UNL     1      -3.831  10.334  15.797  0.00  0.00    +0.000 OA
ATOM     15  C   UNL     1      -3.160  10.204  14.549  0.00  0.00    +0.000 C 
ENDBRANCH   8  14
BRANCH   1  16
ATOM     16  C   UNL     1       2.162   8.760  18.212  0.00  0.00    +0.000 C 
BRANCH  16  20
ATOM     17  C   UNL     1       3.904   4.752  17.443  0.00  0.00    +0.000 A 
ATOM     18  C   UNL     1       2.617   4.880  18.024  0.00  0.00    +0.000 A 
ATOM     19  C   UNL     1       1.991   6.140  18.292  0.00  0.00    +0.000 A 
ATOM     20  C   UNL     1       2.659   7.311  18.005  0.00  0.00    +0.000 A 
ATOM     21  C   UNL     1       3.969   7.161  17.412  0.00  0.00    +0.000 A 
ATOM     22  C   UNL     1       4.587   5.915  17.137  0.00  0.00    +0.000 A 
BRANCH  17  24
ATOM     23  C   UNL     1       3.627   2.397  17.877  0.00  0.00    +0.000 C 
ATOM     24  O   UNL     1       4.353   3.472  17.275  0.00  0.00    +0.000 OA
ENDBRANCH  17  24
ENDBRANCH  16  20
ENDBRANCH   1  16
TORSDOF 5
ENDMDL
MODEL 3
REMARK VINA RESULT:      -7.0      0.432      1.088
REMARK  Name = 
REMARK  8 active torsions:
REMARK  status: ('A' for Active; 'I' for Inactive)
REMARK    1  A    between atoms: C_1  and  O_2
REMARK    2  A    between atoms: O_2  and  C_3
REMARK    3  A    between atoms: C_6  and  C_7
REMARK    4  A    between atoms: C_7  and  C_8
REMARK    5  A    between atoms: C_14  and  O_15
REMARK    6  A    between atoms: O_15  and  C_16
REMARK    7  A    between atoms: C_17  and  O_18
REMARK    8  A    between atoms: O_18  and  C_19
REMARK                            x       y       z     vdW  Elec       q    Type
REMARK                         _______ _______ _______ _____ _____    ______ ____
ROOT
ATOM      1  C   UNL     1       2.919   6.835  18.371  0.00  0.00    +0.000 C 
ATOM      2  N   UNL     1       1.975   5.768  17.813  0.00  0.00    +0.000 NA
ATOM      3  C   UNL     1       2.287   4.476  18.451  0.00  0.00    +0.000 C 
ATOM      4  C   UNL     1       3.424   3.868  17.688  0.00  0.00    +0.000 C 
ATOM      5  C   UNL     1       4.449   4.936  17.406  0.00  0.00    +0.000 A 
ATOM      6  C   UNL     1       5.423   4.528  16.473  0.00  0.00    +0.000 A 
ATOM      7  C   UNL     1       6.577   5.256  16.252  0.00  0.00    +0.000 A 
ATOM      8  C   UNL     1       6.741   6.417  17.008  0.00  0.00    +0.000 A 
ATOM      9  C   UNL     1       5.647   6.937  17.845  0.00  0.00    +0.000 A 
ATOM     10  C   UNL     1       4.415   6.224  18.024  0.00  0.00    +0.000 A 
ATOM     11  H   UNL     1       2.116   5.713  16.807  0.00  0.00    +0.000 HD
ENDROOT
BRANCH   7  12
ATOM     12  O   UNL     1       7.309   4.670  15.256  0.00  0.00    +0.000 OA
ATOM     13  C   UNL     1       6.825   4.542  13.935  0.00  0.00    +0.000 C 
ENDBRANCH   7  12
BRANCH   8  14
ATOM     14  O   UNL     1       7.861   7.183  16.733  0.00  0.00    +0.000 OA
ATOM     15  C   UNL     1       8.058   8.299  17.593  0.00  0.00    +0.000 C 
ENDBRANCH   8  14
BRANCH   1  16
ATOM     16  C   UNL     1       1.889   7.169  19.660  0.00  0.00    +0.000 C 
BRANCH  16  20
ATOM     17  C   UNL     1       0.183  10.568  21.946  0.00  0.00    +0.000 A 
ATOM     18  C   UNL     1       0.667   9.417  22.618  0.00  0.00    +0.000 A 
ATOM     19  C   UNL     1       1.236   8.288  21.945  0.00  0.00    +0.000 A 
ATOM     20  C   UNL     1       1.311   8.278  20.568  0.00  0.00    +0.000 A 
ATOM     21  C   UNL     1       0.815   9.460  19.901  0.00  0.00    +0.000 A 
ATOM     22  C   UNL     1       0.259  10.583  20.564  0.00  0.00    +0.000 A 
BRANCH  17  24
ATOM     23  C   UNL     1      -1.746  11.817  22.673  0.00  0.00    +0.000 C 
ATOM     24  O   UNL     1      -0.344  11.543  22.746  0.00  0.00    +0.000 OA
ENDBRANCH  17  24
ENDBRANCH  16  20
ENDBRANCH   1  16
TORSDOF 5
ENDMDL
MODEL 4
REMARK VINA RESULT:      -7.0      3.739      8.854
REMARK  Name = 
REMARK  8 active torsions:
REMARK  status: ('A' for Active; 'I' for Inactive)
REMARK    1  A    between atoms: C_1  and  O_2
REMARK    2  A    between atoms: O_2  and  C_3
REMARK    3  A    between atoms: C_6  and  C_7
REMARK    4  A    between atoms: C_7  and  C_8
REMARK    5  A    between atoms: C_14  and  O_15
REMARK    6  A    between atoms: O_15  and  C_16
REMARK    7  A    between atoms: C_17  and  O_18
REMARK    8  A    between atoms: O_18  and  C_19
REMARK                            x       y       z     vdW  Elec       q    Type
REMARK                         _______ _______ _______ _____ _____    ______ ____
ROOT
ATOM      1  C   UNL     1       0.837   9.999  17.861  0.00  0.00    +0.000 C 
ATOM      2  N   UNL     1       1.308  10.835  19.052  0.00  0.00    +0.000 NA
ATOM      3  C   UNL     1       0.766  10.248  20.291  0.00  0.00    +0.000 C 
ATOM      4  C   UNL     1      -0.623  10.783  20.465  0.00  0.00    +0.000 C 
ATOM      5  C   UNL     1      -1.331  10.744  19.135  0.00  0.00    +0.000 A 
ATOM      6  C   UNL     1      -2.541  11.466  19.138  0.00  0.00    +0.000 A 
ATOM      7  C   UNL     1      -3.457  11.366  18.107  0.00  0.00    +0.000 A 
ATOM      8  C   UNL     1      -3.131  10.504  17.060  0.00  0.00    +0.000 A 
ATOM      9  C   UNL     1      -1.794   9.894  16.968  0.00  0.00    +0.000 A 
ATOM     10  C   UNL     1      -0.809  10.051  18.000  0.00  0.00    +0.000 A 
ATOM     11  H   UNL     1       0.967  11.786  18.930  0.00  0.00    +0.000 HD
ENDROOT
BRANCH   7  12
ATOM     12  O   UNL     1      -4.503  12.217  18.335  0.00  0.00    +0.000 OA
ATOM     13  C   UNL     1      -4.925  12.569  19.636  0.00  0.00    +0.000 C 
ENDBRANCH   7  12
BRANCH   8  14
ATOM     14  O   UNL     1      -4.013  10.462  15.994  0.00  0.00    +0.000 OA
ATOM     15  C   UNL     1      -3.423  10.188  14.729  0.00  0.00    +0.000 C 
ENDBRANCH   8  14
BRANCH   1  16
ATOM     16  C   UNL     1       2.147   8.950  17.993  0.00  0.00    +0.000 C 
BRANCH  16  20
ATOM     17  C   UNL     1       3.716   4.950  19.100  0.00  0.00    +0.000 A 
ATOM     18  C   UNL     1       2.746   5.593  19.908  0.00  0.00    +0.000 A 
ATOM     19  C   UNL     1       2.190   6.879  19.608  0.00  0.00    +0.000 A 
ATOM     20  C   UNL     1       2.620   7.565  18.492  0.00  0.00    +0.000 A 
ATOM     21  C   UNL     1       3.608   6.894  17.679  0.00  0.00    +0.000 A 
ATOM     22  C   UNL     1       4.153   5.618  17.969  0.00  0.00    +0.000 A 
BRANCH  17  24
ATOM     23  C   UNL     1       3.242   2.899  20.274  0.00  0.00    +0.000 C 
ATOM     24  O   UNL     1       4.148   3.733  19.548  0.00  0.00    +0.000 OA
ENDBRANCH  17  24
ENDBRANCH  16  20
ENDBRANCH   1  16
TORSDOF 5
ENDMDL
MODEL 5
REMARK VINA RESULT:      -6.9      3.934      8.852
REMARK  Name = 
REMARK  8 active torsions:
REMARK  status: ('A' for Active; 'I' for Inactive)
REMARK    1  A    between atoms: C_1  and  O_2
REMARK    2  A    between atoms: O_2  and  C_3
REMARK    3  A    between atoms: C_6  and  C_7
REMARK    4  A    between atoms: C_7  and  C_8
REMARK    5  A    between atoms: C_14  and  O_15
REMARK    6  A    between atoms: O_15  and  C_16
REMARK    7  A    between atoms: C_17  and  O_18
REMARK    8  A    between atoms: O_18  and  C_19
REMARK                            x       y       z     vdW  Elec       q    Type
REMARK                         _______ _______ _______ _____ _____    ______ ____
ROOT
ATOM      1  C   UNL     1       0.781   9.979  17.999  0.00  0.00    +0.000 C 
ATOM      2  N   UNL     1       1.153  10.951  19.119  0.00  0.00    +0.000 NA
ATOM      3  C   UNL     1       0.506  10.509  20.367  0.00  0.00    +0.000 C 
ATOM      4  C   UNL     1      -0.891  11.054  20.359  0.00  0.00    +0.000 C 
ATOM      5  C   UNL     1      -1.484  10.855  18.989  0.00  0.00    +0.000 A 
ATOM      6  C   UNL     1      -2.687  11.565  18.805  0.00  0.00    +0.000 A 
ATOM      7  C   UNL     1      -3.512  11.341  17.719  0.00  0.00    +0.000 A 
ATOM      8  C   UNL     1      -3.102  10.364  16.811  0.00  0.00    +0.000 A 
ATOM      9  C   UNL     1      -1.765   9.755  16.905  0.00  0.00    +0.000 A 
ATOM     10  C   UNL     1      -0.870  10.037  17.991  0.00  0.00    +0.000 A 
ATOM     11  H   UNL     1       0.828  11.879  18.858  0.00  0.00    +0.000 HD
ENDROOT
BRANCH   7  12
ATOM     12  O   UNL     1      -4.570  12.206  17.756  0.00  0.00    +0.000 OA
ATOM     13  C   UNL     1      -5.843  11.827  18.236  0.00  0.00    +0.000 C 
ENDBRANCH   7  12
BRANCH   8  14
ATOM     14  O   UNL     1      -3.892  10.192  15.687  0.00  0.00    +0.000 OA
ATOM     15  C   UNL     1      -3.186  10.143  14.452  0.00  0.00    +0.000 C 
ENDBRANCH   8  14
BRANCH   1  16
ATOM     16  C   UNL     1       2.071   8.960  18.362  0.00  0.00    +0.000 C 
BRANCH  16  20
ATOM     17  C   UNL     1       3.191   4.757  19.240  0.00  0.00    +0.000 A 
ATOM     18  C   UNL     1       3.597   5.374  18.030  0.00  0.00    +0.000 A 
ATOM     19  C   UNL     1       3.279   6.727  17.685  0.00  0.00    +0.000 A 
ATOM     20  C   UNL     1       2.517   7.491  18.544  0.00  0.00    +0.000 A 
ATOM     21  C   UNL     1       2.113   6.846  19.773  0.00  0.00    +0.000 A 
ATOM     22  C   UNL     1       2.434   5.510  20.121  0.00  0.00    +0.000 A 
BRANCH  17  24
ATOM     23  C   UNL     1       3.483   2.567  18.276  0.00  0.00    +0.000 C 
ATOM     24  O   UNL     1       3.569   3.453  19.395  0.00  0.00    +0.000 OA
ENDBRANCH  17  24
ENDBRANCH  16  20
ENDBRANCH   1  16
TORSDOF 5
ENDMDL
MODEL 6
REMARK VINA RESULT:      -6.9      4.222      6.896
REMARK  Name = 
REMARK  8 active torsions:
REMARK  status: ('A' for Active; 'I' for Inactive)
REMARK    1  A    between atoms: C_1  and  O_2
REMARK    2  A    between atoms: O_2  and  C_3
REMARK    3  A    between atoms: C_6  and  C_7
REMARK    4  A    between atoms: C_7  and  C_8
REMARK    5  A    between atoms: C_14  and  O_15
REMARK    6  A    between atoms: O_15  and  C_16
REMARK    7  A    between atoms: C_17  and  O_18
REMARK    8  A    between atoms: O_18  and  C_19
REMARK                            x       y       z     vdW  Elec       q    Type
REMARK                         _______ _______ _______ _____ _____    ______ ____
ROOT
ATOM      1  C   UNL     1       6.678   6.688  17.912  0.00  0.00    +0.000 C 
ATOM      2  N   UNL     1       7.580   5.697  17.175  0.00  0.00    +0.000 NA
ATOM      3  C   UNL     1       7.144   5.610  15.770  0.00  0.00    +0.000 C 
ATOM      4  C   UNL     1       6.017   4.624  15.715  0.00  0.00    +0.000 C 
ATOM      5  C   UNL     1       5.085   4.884  16.870  0.00  0.00    +0.000 A 
ATOM      6  C   UNL     1       4.144   3.852  17.059  0.00  0.00    +0.000 A 
ATOM      7  C   UNL     1       3.057   3.995  17.900  0.00  0.00    +0.000 A 
ATOM      8  C   UNL     1       2.926   5.221  18.553  0.00  0.00    +0.000 A 
ATOM      9  C   UNL     1       4.000   6.227  18.499  0.00  0.00    +0.000 A 
ATOM     10  C   UNL     1       5.169   6.056  17.684  0.00  0.00    +0.000 A 
ATOM     11  H   UNL     1       7.497   4.791  17.631  0.00  0.00    +0.000 HD
ENDROOT
BRANCH   7  12
ATOM     12  O   UNL     1       2.350   2.825  17.944  0.00  0.00    +0.000 OA
ATOM     13  C   UNL     1       2.917   1.613  18.394  0.00  0.00    +0.000 C 
ENDBRANCH   7  12
BRANCH   8  14
ATOM     14  O   UNL     1       1.880   5.337  19.452  0.00  0.00    +0.000 OA
ATOM     15  C   UNL     1       2.150   4.856  20.763  0.00  0.00    +0.000 C 
ENDBRANCH   8  14
BRANCH   1  16
ATOM     16  C   UNL     1       7.648   7.996  17.480  0.00  0.00    +0.000 C 
BRANCH  16  20
ATOM     17  C   UNL     1       9.474  11.683  19.140  0.00  0.00    +0.000 A 
ATOM     18  C   UNL     1       8.738  11.724  17.929  0.00  0.00    +0.000 A 
ATOM     19  C   UNL     1       8.116  10.577  17.341  0.00  0.00    +0.000 A 
ATOM     20  C   UNL     1       8.242   9.344  17.947  0.00  0.00    +0.000 A 
ATOM     21  C   UNL     1       8.994   9.322  19.180  0.00  0.00    +0.000 A 
ATOM     22  C   UNL     1       9.604  10.458  19.769  0.00  0.00    +0.000 A 
BRANCH  17  24
ATOM     23  C   UNL     1       9.813  14.036  18.741  0.00  0.00    +0.000 C 
ATOM     24  O   UNL     1      10.014  12.871  19.545  0.00  0.00    +0.000 OA
ENDBRANCH  17  24
ENDBRANCH  16  20
ENDBRANCH   1  16
TORSDOF 5
ENDMDL
MODEL 7
REMARK VINA RESULT:      -6.9      4.094      6.876
REMARK  Name = 
REMARK  8 active torsions:
REMARK  status: ('A' for Active; 'I' for Inactive)
REMARK    1  A    between atoms: C_1  and  O_2
REMARK    2  A    between atoms: O_2  and  C_3
REMARK    3  A    between atoms: C_6  and  C_7
REMARK    4  A    between atoms: C_7  and  C_8
REMARK    5  A    between atoms: C_14  and  O_15
REMARK    6  A    between atoms: O_15  and  C_16
REMARK    7  A    between atoms: C_17  and  O_18
REMARK    8  A    between atoms: O_18  and  C_19
REMARK                            x       y       z     vdW  Elec       q    Type
REMARK                         _______ _______ _______ _____ _____    ______ ____
ROOT
ATOM      1  C   UNL     1       6.613   6.660  17.815  0.00  0.00    +0.000 C 
ATOM      2  N   UNL     1       7.534   5.691  17.072  0.00  0.00    +0.000 NA
ATOM      3  C   UNL     1       7.172   5.692  15.643  0.00  0.00    +0.000 C 
ATOM      4  C   UNL     1       6.030   4.737  15.473  0.00  0.00    +0.000 C 
ATOM      5  C   UNL     1       5.043   4.953  16.590  0.00  0.00    +0.000 A 
ATOM      6  C   UNL     1       4.073   3.934  16.669  0.00  0.00    +0.000 A 
ATOM      7  C   UNL     1       2.945   4.054  17.459  0.00  0.00    +0.000 A 
ATOM      8  C   UNL     1       2.803   5.245  18.173  0.00  0.00    +0.000 A 
ATOM      9  C   UNL     1       3.898   6.228  18.233  0.00  0.00    +0.000 A 
ATOM     10  C   UNL     1       5.105   6.076  17.472  0.00  0.00    +0.000 A 
ATOM     11  H   UNL     1       7.408   4.763  17.470  0.00  0.00    +0.000 HD
ENDROOT
BRANCH   7  12
ATOM     12  O   UNL     1       2.214   2.900  17.398  0.00  0.00    +0.000 OA
ATOM     13  C   UNL     1       2.346   1.868  18.352  0.00  0.00    +0.000 C 
ENDBRANCH   7  12
BRANCH   8  14
ATOM     14  O   UNL     1       1.712   5.334  19.020  0.00  0.00    +0.000 OA
ATOM     15  C   UNL     1       2.010   5.220  20.406  0.00  0.00    +0.000 C 
ENDBRANCH   8  14
BRANCH   1  16
ATOM     16  C   UNL     1       7.630   7.967  17.511  0.00  0.00    +0.000 C 
BRANCH  16  20
ATOM     17  C   UNL     1       9.396  11.782  18.930  0.00  0.00    +0.000 A 
ATOM     18  C   UNL     1       9.627  10.574  19.634  0.00  0.00    +0.000 A 
ATOM     19  C   UNL     1       9.096   9.307  19.230  0.00  0.00    +0.000 A 
ATOM     20  C   UNL     1       8.292   9.227  18.113  0.00  0.00    +0.000 A 
ATOM     21  C   UNL     1       8.069  10.468  17.406  0.00  0.00    +0.000 A 
ATOM     22  C   UNL     1       8.600  11.722  17.799  0.00  0.00    +0.000 A 
BRANCH  17  24
ATOM     23  C   UNL     1       9.185  13.729  20.335  0.00  0.00    +0.000 C 
ATOM     24  O   UNL     1       9.966  12.901  19.469  0.00  0.00    +0.000 OA
ENDBRANCH  17  24
ENDBRANCH  16  20
ENDBRANCH   1  16
TORSDOF 5
ENDMDL
MODEL 8
REMARK VINA RESULT:      -6.7      3.214      9.074
REMARK  Name = 
REMARK  8 active torsions:
REMARK  status: ('A' for Active; 'I' for Inactive)
REMARK    1  A    between atoms: C_1  and  O_2
REMARK    2  A    between atoms: O_2  and  C_3
REMARK    3  A    between atoms: C_6  and  C_7
REMARK    4  A    between atoms: C_7  and  C_8
REMARK    5  A    between atoms: C_14  and  O_15
REMARK    6  A    between atoms: O_15  and  C_16
REMARK    7  A    between atoms: C_17  and  O_18
REMARK    8  A    between atoms: O_18  and  C_19
REMARK                            x       y       z     vdW  Elec       q    Type
REMARK                         _______ _______ _______ _____ _____    ______ ____
ROOT
ATOM      1  C   UNL     1       1.025   9.202  20.654  0.00  0.00    +0.000 C 
ATOM      2  N   UNL     1       1.446   9.613  22.066  0.00  0.00    +0.000 NA
ATOM      3  C   UNL     1       0.364   9.267  23.005  0.00  0.00    +0.000 C 
ATOM      4  C   UNL     1      -0.628  10.390  22.974  0.00  0.00    +0.000 C 
ATOM      5  C   UNL     1      -0.856  10.799  21.542  0.00  0.00    +0.000 A 
ATOM      6  C   UNL     1      -1.564  12.012  21.425  0.00  0.00    +0.000 A 
ATOM      7  C   UNL     1      -2.083  12.445  20.219  0.00  0.00    +0.000 A 
ATOM      8  C   UNL     1      -1.881  11.616  19.115  0.00  0.00    +0.000 A 
ATOM      9  C   UNL     1      -0.991  10.446  19.199  0.00  0.00    +0.000 A 
ATOM     10  C   UNL     1      -0.388  10.030  20.432  0.00  0.00    +0.000 A 
ATOM     11  H   UNL     1       1.613  10.617  22.069  0.00  0.00    +0.000 HD
ENDROOT
BRANCH   7  12
ATOM     12  O   UNL     1      -2.660  13.675  20.380  0.00  0.00    +0.000 OA
ATOM     13  C   UNL     1      -1.916  14.821  20.737  0.00  0.00    +0.000 C 
ENDBRANCH   7  12
BRANCH   8  14
ATOM     14  O   UNL     1      -2.336  12.086  17.896  0.00  0.00    +0.000 OA
ATOM     15  C   UNL     1      -3.487  11.427  17.382  0.00  0.00    +0.000 C 
ENDBRANCH   8  14
BRANCH   1  16
ATOM     16  C   UNL     1       1.633   7.644  20.853  0.00  0.00    +0.000 C 
BRANCH  16  20
ATOM     17  C   UNL     1       2.535   3.963  18.547  0.00  0.00    +0.000 A 
ATOM     18  C   UNL     1       1.977   3.881  19.847  0.00  0.00    +0.000 A 
ATOM     19  C   UNL     1       1.654   5.026  20.644  0.00  0.00    +0.000 A 
ATOM     20  C   UNL     1       1.910   6.291  20.159  0.00  0.00    +0.000 A 
ATOM     21  C   UNL     1       2.477   6.356  18.832  0.00  0.00    +0.000 A 
ATOM     22  C   UNL     1       2.790   5.224  18.037  0.00  0.00    +0.000 A 
BRANCH  17  24
ATOM     23  C   UNL     1       3.453   1.739  18.682  0.00  0.00    +0.000 C 
ATOM     24  O   UNL     1       2.797   2.768  17.938  0.00  0.00    +0.000 OA
ENDBRANCH  17  24
ENDBRANCH  16  20
ENDBRANCH   1  16
TORSDOF 5
ENDMDL
MODEL 9
REMARK VINA RESULT:      -6.7      4.173      6.994
REMARK  Name = 
REMARK  8 active torsions:
REMARK  status: ('A' for Active; 'I' for Inactive)
REMARK    1  A    between atoms: C_1  and  O_2
REMARK    2  A    between atoms: O_2  and  C_3
REMARK    3  A    between atoms: C_6  and  C_7
REMARK    4  A    between atoms: C_7  and  C_8
REMARK    5  A    between atoms: C_14  and  O_15
REMARK    6  A    between atoms: O_15  and  C_16
REMARK    7  A    between atoms: C_17  and  O_18
REMARK    8  A    between atoms: O_18  and  C_19
REMARK                            x       y       z     vdW  Elec       q    Type
REMARK                         _______ _______ _______ _____ _____    ______ ____
ROOT
ATOM      1  C   UNL     1       6.971   6.482  18.090  0.00  0.00    +0.000 C 
ATOM      2  N   UNL     1       7.656   5.693  16.974  0.00  0.00    +0.000 NA
ATOM      3  C   UNL     1       6.835   5.783  15.753  0.00  0.00    +0.000 C 
ATOM      4  C   UNL     1       5.777   4.726  15.851  0.00  0.00    +0.000 C 
ATOM      5  C   UNL     1       5.212   4.730  17.248  0.00  0.00    +0.000 A 
ATOM      6  C   UNL     1       4.405   3.606  17.514  0.00  0.00    +0.000 A 
ATOM      7  C   UNL     1       3.604   3.529  18.639  0.00  0.00    +0.000 A 
ATOM      8  C   UNL     1       3.623   4.626  19.499  0.00  0.00    +0.000 A 
ATOM      9  C   UNL     1       4.597   5.715  19.317  0.00  0.00    +0.000 A 
ATOM     10  C   UNL     1       5.485   5.768  18.191  0.00  0.00    +0.000 A 
ATOM     11  H   UNL     1       7.743   4.725  17.274  0.00  0.00    +0.000 HD
ENDROOT
BRANCH   7  12
ATOM     12  O   UNL     1       2.983   2.311  18.680  0.00  0.00    +0.000 OA
ATOM     13  C   UNL     1       3.618   1.121  18.261  0.00  0.00    +0.000 C 
ENDBRANCH   7  12
BRANCH   8  14
ATOM     14  O   UNL     1       2.879   4.516  20.661  0.00  0.00    +0.000 OA
ATOM     15  C   UNL     1       1.612   5.163  20.634  0.00  0.00    +0.000 C 
ENDBRANCH   8  14
BRANCH   1  16
ATOM     16  C   UNL     1       7.726   7.917  17.632  0.00  0.00    +0.000 C 
BRANCH  16  20
ATOM     17  C   UNL     1       9.315  11.904  18.754  0.00  0.00    +0.000 A 
ATOM     18  C   UNL     1       9.656  10.753  19.509  0.00  0.00    +0.000 A 
ATOM     19  C   UNL     1       9.186   9.436  19.199  0.00  0.00    +0.000 A 
ATOM     20  C   UNL     1       8.336   9.246  18.131  0.00  0.00    +0.000 A 
ATOM     21  C   UNL     1       8.001  10.430  17.373  0.00  0.00    +0.000 A 
ATOM     22  C   UNL     1       8.471  11.733  17.671  0.00  0.00    +0.000 A 
BRANCH  17  24
ATOM     23  C   UNL     1       9.736  14.247  18.380  0.00  0.00    +0.000 C 
ATOM     24  O   UNL     1       9.840  13.083  19.204  0.00  0.00    +0.000 OA
ENDBRANCH  17  24
ENDBRANCH  16  20
ENDBRANCH   1  16
TORSDOF 5
ENDMDL
