MODEL 1
REMARK VINA RESULT:      -8.5      0.000      0.000
REMARK  Name = 
REMARK  10 active torsions:
REMARK  status: ('A' for Active; 'I' for Inactive)
REMARK    1  A    between atoms: N_2  and  C_4
REMARK    2  A    between atoms: C_11  and  O_12
REMARK    3  A    between atoms: O_12  and  C_13
REMARK    4  A    between atoms: C_13  and  C_14
REMARK    5  A    between atoms: C_17  and  C_18
REMARK    6  A    between atoms: C_23  and  O_24
REMARK    7  A    between atoms: O_24  and  C_25
REMARK    8  A    between atoms: C_25  and  C_26
REMARK    9  A    between atoms: C_26  and  C_27
REMARK   10  A    between atoms: C_27  and  O_28
REMARK                            x       y       z     vdW  Elec       q    Type
REMARK                         _______ _______ _______ _____ _____    ______ ____
ROOT
ATOM      1  C   UNL     1       2.287   7.282  18.842  0.00  0.00    +0.000 A 
ATOM      2  C   UNL     1       1.757   7.843  20.011  0.00  0.00    +0.000 A 
ATOM      3  C   UNL     1       1.293   9.168  20.033  0.00  0.00    +0.000 A 
ATOM      4  C   UNL     1       1.334   9.979  18.889  0.00  0.00    +0.000 A 
ATOM      5  C   UNL     1       1.919   9.410  17.737  0.00  0.00    +0.000 A 
ATOM      6  C   UNL     1       2.402   8.097  17.716  0.00  0.00    +0.000 A 
ENDROOT
BRANCH   4   7
ATOM      7  C   UNL     1       0.824  11.384  18.869  0.00  0.00    +0.000 A 
ATOM      8  C   UNL     1       1.752  12.440  19.053  0.00  0.00    +0.000 A 
ATOM      9  C   UNL     1       1.384  13.786  18.992  0.00  0.00    +0.000 A 
ATOM     10  C   UNL     1       0.057  14.125  18.805  0.00  0.00    +0.000 A 
ATOM     11  C   UNL     1      -0.893  13.118  18.657  0.00  0.00    +0.000 A 
ATOM     12  C   UNL     1      -0.525  11.758  18.639  0.00  0.00    +0.000 A 
BRANCH  12  13
ATOM     13  O   UNL     1      -1.453  10.764  18.381  0.00  0.00    +0.000 OA
BRANCH  13  14
ATOM     14  C   UNL     1      -2.820  11.191  18.336  0.00  0.00    +0.000 C 
BRANCH  14  15
ATOM     15  C   UNL     1      -3.654  10.274  17.454  0.00  0.00    +0.000 C 
BRANCH  15  16
ATOM     16  C   UNL     1      -3.771  10.802  16.031  0.00  0.00    +0.000 C 
BRANCH  16  17
ATOM     17  O   UNL     1      -2.562  11.459  15.673  0.00  0.00    +0.000 OA
ATOM     18  H   UNL     1      -2.804  12.270  15.195  0.00  0.00    +0.000 HD
ENDBRANCH  16  17
ENDBRANCH  15  16
ENDBRANCH  14  15
ENDBRANCH  13  14
ENDBRANCH  12  13
ENDBRANCH   4   7
BRANCH   1  19
ATOM     19  C   UNL     1       2.733   5.843  18.781  0.00  0.00    +0.000 C 
BRANCH  19  20
ATOM     20  O   UNL     1       3.858   5.676  19.645  0.00  0.00    +0.000 OA
BRANCH  20  28
ATOM     21  C   UNL     1       6.707   4.762  15.082  0.00  0.00    +0.000 A 
ATOM     22  C   UNL     1       5.402   4.544  15.486  0.00  0.00    +0.000 A 
ATOM     23  N   UNL     1       5.476   4.555  16.847  0.00  0.00    +0.000 N 
ATOM     24  C   UNL     1       6.777   4.734  17.205  0.00  0.00    +0.000 A 
ATOM     25  N   UNL     1       7.559   4.864  16.164  0.00  0.00    +0.000 NA
ATOM     26  O   UNL     1       7.189   4.665  18.463  0.00  0.00    +0.000 OA
ATOM     27  C   UNL     1       6.246   5.161  19.408  0.00  0.00    +0.000 C 
ATOM     28  C   UNL     1       4.793   4.665  19.239  0.00  0.00    +0.000 C 
ATOM     29  C   UNL     1       4.429   4.278  17.796  0.00  0.00    +0.000 C 
BRANCH  21  31
ATOM     30  O   UNL     1       8.138   5.593  13.504  0.00  0.00    +0.000 OA
ATOM     31  N   UNL     1       7.203   4.812  13.723  0.00  0.00    +0.000 N 
ATOM     32  O   UNL     1       6.672   4.071  12.886  0.00  0.00    +0.000 OA
ENDBRANCH  21  31
ENDBRANCH  20  28
ENDBRANCH  19  20
ENDBRANCH   1  19
TORSDOF 10
ENDMDL
MODEL 2
REMARK VINA RESULT:      -8.5      0.751      1.274
REMARK  Name = 
REMARK  10 active torsions:
REMARK  status: ('A' for Active; 'I' for Inactive)
REMARK    1  A    between atoms: N_2  and  C_4
REMARK    2  A    between atoms: C_11  and  O_12
REMARK    3  A    between atoms: O_12  and  C_13
REMARK    4  A    between atoms: C_13  and  C_14
REMARK    5  A    between atoms: C_17  and  C_18
REMARK    6  A    between atoms: C_23  and  O_24
REMARK    7  A    between atoms: O_24  and  C_25
REMARK    8  A    between atoms: C_25  and  C_26
REMARK    9  A    between atoms: C_26  and  C_27
REMARK   10  A    between atoms: C_27  and  O_28
REMARK                            x       y       z     vdW  Elec       q    Type
REMARK                         _______ _______ _______ _____ _____    ______ ____
ROOT
ATOM      1  C   UNL     1       2.412   6.913  19.031  0.00  0.00    +0.000 A 
ATOM      2  C   UNL     1       2.416   7.593  17.807  0.00  0.00    +0.000 A 
ATOM      3  C   UNL     1       1.902   8.895  17.699  0.00  0.00    +0.000 A 
ATOM      4  C   UNL     1       1.371   9.569  18.810  0.00  0.00    +0.000 A 
ATOM      5  C   UNL     1       1.331   8.845  20.021  0.00  0.00    +0.000 A 
ATOM      6  C   UNL     1       1.824   7.540  20.129  0.00  0.00    +0.000 A 
ENDROOT
BRANCH   4   7
ATOM      7  C   UNL     1       0.840  10.964  18.737  0.00  0.00    +0.000 A 
ATOM      8  C   UNL     1       1.763  12.039  18.773  0.00  0.00    +0.000 A 
ATOM      9  C   UNL     1       1.370  13.373  18.652  0.00  0.00    +0.000 A 
ATOM     10  C   UNL     1       0.027  13.686  18.553  0.00  0.00    +0.000 A 
ATOM     11  C   UNL     1      -0.916  12.661  18.551  0.00  0.00    +0.000 A 
ATOM     12  C   UNL     1      -0.530  11.307  18.594  0.00  0.00    +0.000 A 
BRANCH  12  13
ATOM     13  O   UNL     1      -1.459  10.289  18.480  0.00  0.00    +0.000 OA
BRANCH  13  14
ATOM     14  C   UNL     1      -1.689   9.806  17.151  0.00  0.00    +0.000 C 
BRANCH  14  15
ATOM     15  C   UNL     1      -3.074  10.195  16.656  0.00  0.00    +0.000 C 
BRANCH  15  16
ATOM     16  C   UNL     1      -3.073  10.545  15.175  0.00  0.00    +0.000 C 
BRANCH  16  17
ATOM     17  O   UNL     1      -4.297  10.116  14.590  0.00  0.00    +0.000 OA
ATOM     18  H   UNL     1      -4.976  10.771  14.827  0.00  0.00    +0.000 HD
ENDBRANCH  16  17
ENDBRANCH  15  16
ENDBRANCH  14  15
ENDBRANCH  13  14
ENDBRANCH  12  13
ENDBRANCH   4   7
BRANCH   1  19
ATOM     19  C   UNL     1       3.016   5.539  19.181  0.00  0.00    +0.000 C 
BRANCH  19  20
ATOM     20  O   UNL     1       4.309   5.672  19.774  0.00  0.00    +0.000 OA
BRANCH  20  28
ATOM     21  C   UNL     1       6.686   4.580  14.985  0.00  0.00    +0.000 A 
ATOM     22  C   UNL     1       5.461   4.294  15.563  0.00  0.00    +0.000 A 
ATOM     23  N   UNL     1       5.689   4.435  16.899  0.00  0.00    +0.000 N 
ATOM     24  C   UNL     1       7.001   4.750  17.079  0.00  0.00    +0.000 A 
ATOM     25  N   UNL     1       7.644   4.848  15.943  0.00  0.00    +0.000 NA
ATOM     26  O   UNL     1       7.560   4.830  18.278  0.00  0.00    +0.000 OA
ATOM     27  C   UNL     1       6.691   5.332  19.289  0.00  0.00    +0.000 C 
ATOM     28  C   UNL     1       5.279   4.707  19.339  0.00  0.00    +0.000 C 
ATOM     29  C   UNL     1       4.789   4.161  17.988  0.00  0.00    +0.000 C 
BRANCH  21  31
ATOM     30  O   UNL     1       6.467   3.666  12.901  0.00  0.00    +0.000 OA
ATOM     31  N   UNL     1       7.016   4.546  13.576  0.00  0.00    +0.000 N 
ATOM     32  O   UNL     1       7.807   5.396  13.147  0.00  0.00    +0.000 OA
ENDBRANCH  21  31
ENDBRANCH  20  28
ENDBRANCH  19  20
ENDBRANCH   1  19
TORSDOF 10
ENDMDL
MODEL 3
REMARK VINA RESULT:      -8.3      1.236      1.384
REMARK  Name = 
REMARK  10 active torsions:
REMARK  status: ('A' for Active; 'I' for Inactive)
REMARK    1  A    between atoms: N_2  and  C_4
REMARK    2  A    between atoms: C_11  and  O_12
REMARK    3  A    between atoms: O_12  and  C_13
REMARK    4  A    between atoms: C_13  and  C_14
REMARK    5  A    between atoms: C_17  and  C_18
REMARK    6  A    between atoms: C_23  and  O_24
REMARK    7  A    between atoms: O_24  and  C_25
REMARK    8  A    between atoms: C_25  and  C_26
REMARK    9  A    between atoms: C_26  and  C_27
REMARK   10  A    between atoms: C_27  and  O_28
REMARK                            x       y       z     vdW  Elec       q    Type
REMARK                         _______ _______ _______ _____ _____    ______ ____
ROOT
ATOM      1  C   UNL     1       2.727   7.139  18.677  0.00  0.00    +0.000 A 
ATOM      2  C   UNL     1       2.169   7.228  19.958  0.00  0.00    +0.000 A 
ATOM      3  C   UNL     1       1.389   8.333  20.335  0.00  0.00    +0.000 A 
ATOM      4  C   UNL     1       1.131   9.386  19.445  0.00  0.00    +0.000 A 
ATOM      5  C   UNL     1       1.744   9.300  18.177  0.00  0.00    +0.000 A 
ATOM      6  C   UNL     1       2.540   8.211  17.803  0.00  0.00    +0.000 A 
ENDROOT
BRANCH   4   7
ATOM      7  C   UNL     1       0.284  10.565  19.804  0.00  0.00    +0.000 A 
ATOM      8  C   UNL     1       0.800  11.510  20.726  0.00  0.00    +0.000 A 
ATOM      9  C   UNL     1       0.110  12.672  21.078  0.00  0.00    +0.000 A 
ATOM     10  C   UNL     1      -1.153  12.901  20.565  0.00  0.00    +0.000 A 
ATOM     11  C   UNL     1      -1.712  11.979  19.684  0.00  0.00    +0.000 A 
ATOM     12  C   UNL     1      -0.997  10.842  19.260  0.00  0.00    +0.000 A 
BRANCH  12  13
ATOM     13  O   UNL     1      -1.509   9.986  18.301  0.00  0.00    +0.000 OA
BRANCH  13  14
ATOM     14  C   UNL     1      -2.514  10.545  17.446  0.00  0.00    +0.000 C 
BRANCH  14  15
ATOM     15  C   UNL     1      -2.618   9.771  16.140  0.00  0.00    +0.000 C 
BRANCH  15  16
ATOM     16  C   UNL     1      -3.137  10.638  15.003  0.00  0.00    +0.000 C 
BRANCH  16  17
ATOM     17  O   UNL     1      -2.725  10.080  13.761  0.00  0.00    +0.000 OA
ATOM     18  H   UNL     1      -3.056   9.167  13.730  0.00  0.00    +0.000 HD
ENDBRANCH  16  17
ENDBRANCH  15  16
ENDBRANCH  14  15
ENDBRANCH  13  14
ENDBRANCH  12  13
ENDBRANCH   4   7
BRANCH   1  19
ATOM     19  C   UNL     1       3.514   5.933  18.232  0.00  0.00    +0.000 C 
BRANCH  19  20
ATOM     20  O   UNL     1       4.379   5.535  19.296  0.00  0.00    +0.000 OA
BRANCH  20  28
ATOM     21  C   UNL     1       6.711   4.552  14.462  0.00  0.00    +0.000 A 
ATOM     22  C   UNL     1       5.671   3.993  15.184  0.00  0.00    +0.000 A 
ATOM     23  N   UNL     1       5.917   4.383  16.466  0.00  0.00    +0.000 N 
ATOM     24  C   UNL     1       7.072   5.102  16.482  0.00  0.00    +0.000 A 
ATOM     25  N   UNL     1       7.588   5.229  15.286  0.00  0.00    +0.000 NA
ATOM     26  O   UNL     1       7.643   5.515  17.605  0.00  0.00    +0.000 OA
ATOM     27  C   UNL     1       6.717   5.867  18.629  0.00  0.00    +0.000 C 
ATOM     28  C   UNL     1       5.577   4.858  18.886  0.00  0.00    +0.000 C 
ATOM     29  C   UNL     1       5.208   4.005  17.661  0.00  0.00    +0.000 C 
BRANCH  21  31
ATOM     30  O   UNL     1       6.276   3.585  12.437  0.00  0.00    +0.000 OA
ATOM     31  N   UNL     1       6.957   4.422  13.042  0.00  0.00    +0.000 N 
ATOM     32  O   UNL     1       7.815   5.155  12.534  0.00  0.00    +0.000 OA
ENDBRANCH  21  31
ENDBRANCH  20  28
ENDBRANCH  19  20
ENDBRANCH   1  19
TORSDOF 10
ENDMDL
MODEL 4
REMARK VINA RESULT:      -8.2      1.385      1.625
REMARK  Name = 
REMARK  10 active torsions:
REMARK  status: ('A' for Active; 'I' for Inactive)
REMARK    1  A    between atoms: N_2  and  C_4
REMARK    2  A    between atoms: C_11  and  O_12
REMARK    3  A    between atoms: O_12  and  C_13
REMARK    4  A    between atoms: C_13  and  C_14
REMARK    5  A    between atoms: C_17  and  C_18
REMARK    6  A    between atoms: C_23  and  O_24
REMARK    7  A    between atoms: O_24  and  C_25
REMARK    8  A    between atoms: C_25  and  C_26
REMARK    9  A    between atoms: C_26  and  C_27
REMARK   10  A    between atoms: C_27  and  O_28
REMARK                            x       y       z     vdW  Elec       q    Type
REMARK                         _______ _______ _______ _____ _____    ______ ____
ROOT
ATOM      1  C   UNL     1       2.428   7.498  18.964  0.00  0.00    +0.000 A 
ATOM      2  C   UNL     1       1.980   7.431  20.289  0.00  0.00    +0.000 A 
ATOM      3  C   UNL     1       1.123   8.410  20.816  0.00  0.00    +0.000 A 
ATOM      4  C   UNL     1       0.677   9.489  20.038  0.00  0.00    +0.000 A 
ATOM      5  C   UNL     1       1.181   9.564  18.722  0.00  0.00    +0.000 A 
ATOM      6  C   UNL     1       2.052   8.602  18.199  0.00  0.00    +0.000 A 
ENDROOT
BRANCH   4   7
ATOM      7  C   UNL     1      -0.256  10.535  20.557  0.00  0.00    +0.000 A 
ATOM      8  C   UNL     1      -0.376  10.694  21.961  0.00  0.00    +0.000 A 
ATOM      9  C   UNL     1      -1.175  11.681  22.542  0.00  0.00    +0.000 A 
ATOM     10  C   UNL     1      -1.934  12.510  21.736  0.00  0.00    +0.000 A 
ATOM     11  C   UNL     1      -1.874  12.363  20.353  0.00  0.00    +0.000 A 
ATOM     12  C   UNL     1      -1.013  11.423  19.751  0.00  0.00    +0.000 A 
BRANCH  12  13
ATOM     13  O   UNL     1      -0.872  11.354  18.376  0.00  0.00    +0.000 OA
BRANCH  13  14
ATOM     14  C   UNL     1      -2.092  11.394  17.626  0.00  0.00    +0.000 C 
BRANCH  14  15
ATOM     15  C   UNL     1      -2.215  10.185  16.711  0.00  0.00    +0.000 C 
BRANCH  15  16
ATOM     16  C   UNL     1      -2.925  10.524  15.409  0.00  0.00    +0.000 C 
BRANCH  16  17
ATOM     17  O   UNL     1      -4.312  10.714  15.665  0.00  0.00    +0.000 OA
ATOM     18  H   UNL     1      -4.713   9.832  15.751  0.00  0.00    +0.000 HD
ENDBRANCH  16  17
ENDBRANCH  15  16
ENDBRANCH  14  15
ENDBRANCH  13  14
ENDBRANCH  12  13
ENDBRANCH   4   7
BRANCH   1  19
ATOM     19  C   UNL     1       3.297   6.423  18.361  0.00  0.00    +0.000 C 
BRANCH  19  20
ATOM     20  O   UNL     1       3.715   5.537  19.401  0.00  0.00    +0.000 OA
BRANCH  20  28
ATOM     21  C   UNL     1       6.764   4.783  14.939  0.00  0.00    +0.000 A 
ATOM     22  C   UNL     1       5.446   4.538  15.282  0.00  0.00    +0.000 A 
ATOM     23  N   UNL     1       5.462   4.513  16.645  0.00  0.00    +0.000 N 
ATOM     24  C   UNL     1       6.745   4.696  17.062  0.00  0.00    +0.000 A 
ATOM     25  N   UNL     1       7.569   4.864  16.059  0.00  0.00    +0.000 NA
ATOM     26  O   UNL     1       7.104   4.597  18.334  0.00  0.00    +0.000 OA
ATOM     27  C   UNL     1       6.116   5.055  19.252  0.00  0.00    +0.000 C 
ATOM     28  C   UNL     1       4.678   4.548  19.007  0.00  0.00    +0.000 C 
ATOM     29  C   UNL     1       4.380   4.197  17.541  0.00  0.00    +0.000 C 
BRANCH  21  31
ATOM     30  O   UNL     1       8.230   5.695  13.441  0.00  0.00    +0.000 OA
ATOM     31  N   UNL     1       7.317   4.876  13.605  0.00  0.00    +0.000 N 
ATOM     32  O   UNL     1       6.850   4.132  12.732  0.00  0.00    +0.000 OA
ENDBRANCH  21  31
ENDBRANCH  20  28
ENDBRANCH  19  20
ENDBRANCH   1  19
TORSDOF 10
ENDMDL
MODEL 5
REMARK VINA RESULT:      -8.2      0.885      1.274
REMARK  Name = 
REMARK  10 active torsions:
REMARK  status: ('A' for Active; 'I' for Inactive)
REMARK    1  A    between atoms: N_2  and  C_4
REMARK    2  A    between atoms: C_11  and  O_12
REMARK    3  A    between atoms: O_12  and  C_13
REMARK    4  A    between atoms: C_13  and  C_14
REMARK    5  A    between atoms: C_17  and  C_18
REMARK    6  A    between atoms: C_23  and  O_24
REMARK    7  A    between atoms: O_24  and  C_25
REMARK    8  A    between atoms: C_25  and  C_26
REMARK    9  A    between atoms: C_26  and  C_27
REMARK   10  A    between atoms: C_27  and  O_28
REMARK                            x       y       z     vdW  Elec       q    Type
REMARK                         _______ _______ _______ _____ _____    ______ ____
ROOT
ATOM      1  C   UNL     1       2.300   7.097  19.381  0.00  0.00    +0.000 A 
ATOM      2  C   UNL     1       2.356   7.730  18.133  0.00  0.00    +0.000 A 
ATOM      3  C   UNL     1       1.839   9.022  17.951  0.00  0.00    +0.000 A 
ATOM      4  C   UNL     1       1.253   9.733  19.009  0.00  0.00    +0.000 A 
ATOM      5  C   UNL     1       1.161   9.056  20.244  0.00  0.00    +0.000 A 
ATOM      6  C   UNL     1       1.656   7.760  20.425  0.00  0.00    +0.000 A 
ENDROOT
BRANCH   4   7
ATOM      7  C   UNL     1       0.716  11.120  18.858  0.00  0.00    +0.000 A 
ATOM      8  C   UNL     1       1.567  12.210  19.171  0.00  0.00    +0.000 A 
ATOM      9  C   UNL     1       1.179  13.541  19.006  0.00  0.00    +0.000 A 
ATOM     10  C   UNL     1      -0.104  13.832  18.579  0.00  0.00    +0.000 A 
ATOM     11  C   UNL     1      -0.985  12.791  18.297  0.00  0.00    +0.000 A 
ATOM     12  C   UNL     1      -0.582  11.444  18.384  0.00  0.00    +0.000 A 
BRANCH  12  13
ATOM     13  O   UNL     1      -1.422  10.415  17.997  0.00  0.00    +0.000 OA
BRANCH  13  14
ATOM     14  C   UNL     1      -2.727  10.813  17.560  0.00  0.00    +0.000 C 
BRANCH  14  15
ATOM     15  C   UNL     1      -2.754  11.057  16.058  0.00  0.00    +0.000 C 
BRANCH  15  16
ATOM     16  C   UNL     1      -2.984   9.772  15.276  0.00  0.00    +0.000 C 
BRANCH  16  17
ATOM     17  O   UNL     1      -3.743  10.063  14.108  0.00  0.00    +0.000 OA
ATOM     18  H   UNL     1      -3.420  10.911  13.757  0.00  0.00    +0.000 HD
ENDBRANCH  16  17
ENDBRANCH  15  16
ENDBRANCH  14  15
ENDBRANCH  13  14
ENDBRANCH  12  13
ENDBRANCH   4   7
BRANCH   1  19
ATOM     19  C   UNL     1       2.905   5.735  19.612  0.00  0.00    +0.000 C 
BRANCH  19  20
ATOM     20  O   UNL     1       3.145   5.122  18.344  0.00  0.00    +0.000 OA
BRANCH  20  28
ATOM     21  C   UNL     1       6.927   4.938  14.415  0.00  0.00    +0.000 A 
ATOM     22  C   UNL     1       5.715   4.310  14.643  0.00  0.00    +0.000 A 
ATOM     23  N   UNL     1       5.528   4.440  15.987  0.00  0.00    +0.000 N 
ATOM     24  C   UNL     1       6.609   5.081  16.510  0.00  0.00    +0.000 A 
ATOM     25  N   UNL     1       7.483   5.402  15.591  0.00  0.00    +0.000 NA
ATOM     26  O   UNL     1       6.781   5.246  17.814  0.00  0.00    +0.000 OA
ATOM     27  C   UNL     1       5.570   5.449  18.536  0.00  0.00    +0.000 C 
ATOM     28  C   UNL     1       4.419   4.471  18.215  0.00  0.00    +0.000 C 
ATOM     29  C   UNL     1       4.475   3.883  16.796  0.00  0.00    +0.000 C 
BRANCH  21  31
ATOM     30  O   UNL     1       8.567   5.859  13.116  0.00  0.00    +0.000 OA
ATOM     31  N   UNL     1       7.621   5.063  13.151  0.00  0.00    +0.000 N 
ATOM     32  O   UNL     1       7.231   4.365  12.205  0.00  0.00    +0.000 OA
ENDBRANCH  21  31
ENDBRANCH  20  28
ENDBRANCH  19  20
ENDBRANCH   1  19
TORSDOF 10
ENDMDL
MODEL 6
REMARK VINA RESULT:      -8.2      2.032      3.027
REMARK  Name = 
REMARK  10 active torsions:
REMARK  status: ('A' for Active; 'I' for Inactive)
REMARK    1  A    between atoms: N_2  and  C_4
REMARK    2  A    between atoms: C_11  and  O_12
REMARK    3  A    between atoms: O_12  and  C_13
REMARK    4  A    between atoms: C_13  and  C_14
REMARK    5  A    between atoms: C_17  and  C_18
REMARK    6  A    between atoms: C_23  and  O_24
REMARK    7  A    between atoms: O_24  and  C_25
REMARK    8  A    between atoms: C_25  and  C_26
REMARK    9  A    between atoms: C_26  and  C_27
REMARK   10  A    between atoms: C_27  and  O_28
REMARK                            x       y       z     vdW  Elec       q    Type
REMARK                         _______ _______ _______ _____ _____    ______ ____
ROOT
ATOM      1  C   UNL     1       2.545   7.153  18.694  0.00  0.00    +0.000 A 
ATOM      2  C   UNL     1       2.078   8.360  18.159  0.00  0.00    +0.000 A 
ATOM      3  C   UNL     1       1.338   9.261  18.939  0.00  0.00    +0.000 A 
ATOM      4  C   UNL     1       1.041   8.996  20.284  0.00  0.00    +0.000 A 
ATOM      5  C   UNL     1       1.477   7.752  20.788  0.00  0.00    +0.000 A 
ATOM      6  C   UNL     1       2.198   6.840  20.009  0.00  0.00    +0.000 A 
ENDROOT
BRANCH   4   7
ATOM      7  C   UNL     1       0.278   9.944  21.151  0.00  0.00    +0.000 A 
ATOM      8  C   UNL     1      -0.283   9.453  22.357  0.00  0.00    +0.000 A 
ATOM      9  C   UNL     1      -0.961  10.272  23.261  0.00  0.00    +0.000 A 
ATOM     10  C   UNL     1      -1.157  11.608  22.962  0.00  0.00    +0.000 A 
ATOM     11  C   UNL     1      -0.655  12.123  21.770  0.00  0.00    +0.000 A 
ATOM     12  C   UNL     1       0.099  11.326  20.885  0.00  0.00    +0.000 A 
BRANCH  12  13
ATOM     13  O   UNL     1       0.690  11.866  19.757  0.00  0.00    +0.000 OA
BRANCH  13  14
ATOM     14  C   UNL     1       1.566  12.976  19.989  0.00  0.00    +0.000 C 
BRANCH  14  15
ATOM     15  C   UNL     1       1.262  14.125  19.040  0.00  0.00    +0.000 C 
BRANCH  15  16
ATOM     16  C   UNL     1      -0.067  13.939  18.324  0.00  0.00    +0.000 C 
BRANCH  16  17
ATOM     17  O   UNL     1      -1.127  14.305  19.199  0.00  0.00    +0.000 OA
ATOM     18  H   UNL     1      -1.349  13.520  19.729  0.00  0.00    +0.000 HD
ENDBRANCH  16  17
ENDBRANCH  15  16
ENDBRANCH  14  15
ENDBRANCH  13  14
ENDBRANCH  12  13
ENDBRANCH   4   7
BRANCH   1  19
ATOM     19  C   UNL     1       3.395   6.200  17.892  0.00  0.00    +0.000 C 
BRANCH  19  20
ATOM     20  O   UNL     1       3.417   4.937  18.558  0.00  0.00    +0.000 OA
BRANCH  20  28
ATOM     21  C   UNL     1       6.965   4.808  14.414  0.00  0.00    +0.000 A 
ATOM     22  C   UNL     1       5.658   4.393  14.603  0.00  0.00    +0.000 A 
ATOM     23  N   UNL     1       5.542   4.288  15.957  0.00  0.00    +0.000 N 
ATOM     24  C   UNL     1       6.745   4.592  16.516  0.00  0.00    +0.000 A 
ATOM     25  N   UNL     1       7.638   4.914  15.616  0.00  0.00    +0.000 NA
ATOM     26  O   UNL     1       6.985   4.459  17.813  0.00  0.00    +0.000 OA
ATOM     27  C   UNL     1       5.863   4.745  18.642  0.00  0.00    +0.000 C 
ATOM     28  C   UNL     1       4.528   4.091  18.222  0.00  0.00    +0.000 C 
ATOM     29  C   UNL     1       4.422   3.797  16.717  0.00  0.00    +0.000 C 
BRANCH  21  31
ATOM     30  O   UNL     1       7.225   4.395  12.181  0.00  0.00    +0.000 OA
ATOM     31  N   UNL     1       7.632   5.045  13.152  0.00  0.00    +0.000 N 
ATOM     32  O   UNL     1       8.547   5.879  13.128  0.00  0.00    +0.000 OA
ENDBRANCH  21  31
ENDBRANCH  20  28
ENDBRANCH  19  20
ENDBRANCH   1  19
TORSDOF 10
ENDMDL
MODEL 7
REMARK VINA RESULT:      -8.2      1.611      1.792
REMARK  Name = 
REMARK  10 active torsions:
REMARK  status: ('A' for Active; 'I' for Inactive)
REMARK    1  A    between atoms: N_2  and  C_4
REMARK    2  A    between atoms: C_11  and  O_12
REMARK    3  A    between atoms: O_12  and  C_13
REMARK    4  A    between atoms: C_13  and  C_14
REMARK    5  A    between atoms: C_17  and  C_18
REMARK    6  A    between atoms: C_23  and  O_24
REMARK    7  A    between atoms: O_24  and  C_25
REMARK    8  A    between atoms: C_25  and  C_26
REMARK    9  A    between atoms: C_26  and  C_27
REMARK   10  A    between atoms: C_27  and  O_28
REMARK                            x       y       z     vdW  Elec       q    Type
REMARK                         _______ _______ _______ _____ _____    ______ ____
ROOT
ATOM      1  C   UNL     1       2.778   7.577  18.395  0.00  0.00    +0.000 A 
ATOM      2  C   UNL     1       2.289   7.365  19.690  0.00  0.00    +0.000 A 
ATOM      3  C   UNL     1       1.408   8.277  20.292  0.00  0.00    +0.000 A 
ATOM      4  C   UNL     1       0.977   9.432  19.622  0.00  0.00    +0.000 A 
ATOM      5  C   UNL     1       1.523   9.652  18.339  0.00  0.00    +0.000 A 
ATOM      6  C   UNL     1       2.417   8.756  17.743  0.00  0.00    +0.000 A 
ENDROOT
BRANCH   4   7
ATOM      7  C   UNL     1       0.020  10.411  20.221  0.00  0.00    +0.000 A 
ATOM      8  C   UNL     1       0.258  10.863  21.544  0.00  0.00    +0.000 A 
ATOM      9  C   UNL     1      -0.544  11.820  22.169  0.00  0.00    +0.000 A 
ATOM     10  C   UNL     1      -1.655  12.317  21.512  0.00  0.00    +0.000 A 
ATOM     11  C   UNL     1      -1.946  11.872  20.225  0.00  0.00    +0.000 A 
ATOM     12  C   UNL     1      -1.102  10.965  19.553  0.00  0.00    +0.000 A 
BRANCH  12  13
ATOM     13  O   UNL     1      -1.332  10.610  18.236  0.00  0.00    +0.000 OA
BRANCH  13  14
ATOM     14  C   UNL     1      -2.707  10.437  17.872  0.00  0.00    +0.000 C 
BRANCH  14  15
ATOM     15  C   UNL     1      -2.844   9.550  16.644  0.00  0.00    +0.000 C 
BRANCH  15  16
ATOM     16  C   UNL     1      -2.894  10.360  15.357  0.00  0.00    +0.000 C 
BRANCH  16  17
ATOM     17  O   UNL     1      -2.373  11.661  15.600  0.00  0.00    +0.000 OA
ATOM     18  H   UNL     1      -1.556  11.747  15.080  0.00  0.00    +0.000 HD
ENDBRANCH  16  17
ENDBRANCH  15  16
ENDBRANCH  14  15
ENDBRANCH  13  14
ENDBRANCH  12  13
ENDBRANCH   4   7
BRANCH   1  19
ATOM     19  C   UNL     1       3.675   6.579  17.708  0.00  0.00    +0.000 C 
BRANCH  19  20
ATOM     20  O   UNL     1       4.436   5.889  18.701  0.00  0.00    +0.000 OA
BRANCH  20  28
ATOM     21  C   UNL     1       6.483   4.249  13.916  0.00  0.00    +0.000 A 
ATOM     22  C   UNL     1       5.709   3.668  14.906  0.00  0.00    +0.000 A 
ATOM     23  N   UNL     1       5.958   4.433  16.006  0.00  0.00    +0.000 N 
ATOM     24  C   UNL     1       6.867   5.388  15.668  0.00  0.00    +0.000 A 
ATOM     25  N   UNL     1       7.213   5.313  14.408  0.00  0.00    +0.000 NA
ATOM     26  O   UNL     1       7.405   6.210  16.557  0.00  0.00    +0.000 OA
ATOM     27  C   UNL     1       6.519   6.587  17.607  0.00  0.00    +0.000 C 
ATOM     28  C   UNL     1       5.729   5.439  18.271  0.00  0.00    +0.000 C 
ATOM     29  C   UNL     1       5.496   4.228  17.354  0.00  0.00    +0.000 C 
BRANCH  21  31
ATOM     30  O   UNL     1       7.468   4.394  11.858  0.00  0.00    +0.000 OA
ATOM     31  N   UNL     1       6.621   3.809  12.544  0.00  0.00    +0.000 N 
ATOM     32  O   UNL     1       5.897   2.881  12.159  0.00  0.00    +0.000 OA
ENDBRANCH  21  31
ENDBRANCH  20  28
ENDBRANCH  19  20
ENDBRANCH   1  19
TORSDOF 10
ENDMDL
MODEL 8
REMARK VINA RESULT:      -8.2      2.176      3.344
REMARK  Name = 
REMARK  10 active torsions:
REMARK  status: ('A' for Active; 'I' for Inactive)
REMARK    1  A    between atoms: N_2  and  C_4
REMARK    2  A    between atoms: C_11  and  O_12
REMARK    3  A    between atoms: O_12  and  C_13
REMARK    4  A    between atoms: C_13  and  C_14
REMARK    5  A    between atoms: C_17  and  C_18
REMARK    6  A    between atoms: C_23  and  O_24
REMARK    7  A    between atoms: O_24  and  C_25
REMARK    8  A    between atoms: C_25  and  C_26
REMARK    9  A    between atoms: C_26  and  C_27
REMARK   10  A    between atoms: C_27  and  O_28
REMARK                            x       y       z     vdW  Elec       q    Type
REMARK                         _______ _______ _______ _____ _____    ______ ____
ROOT
ATOM      1  C   UNL     1       2.481   7.136  18.690  0.00  0.00    +0.000 A 
ATOM      2  C   UNL     1       2.013   8.297  18.062  0.00  0.00    +0.000 A 
ATOM      3  C   UNL     1       1.307   9.275  18.779  0.00  0.00    +0.000 A 
ATOM      4  C   UNL     1       1.047   9.134  20.151  0.00  0.00    +0.000 A 
ATOM      5  C   UNL     1       1.483   7.934  20.751  0.00  0.00    +0.000 A 
ATOM      6  C   UNL     1       2.170   6.946  20.036  0.00  0.00    +0.000 A 
ENDROOT
BRANCH   4   7
ATOM      7  C   UNL     1       0.321  10.167  20.952  0.00  0.00    +0.000 A 
ATOM      8  C   UNL     1      -0.302   9.767  22.161  0.00  0.00    +0.000 A 
ATOM      9  C   UNL     1      -0.952  10.667  23.006  0.00  0.00    +0.000 A 
ATOM     10  C   UNL     1      -1.057  11.997  22.642  0.00  0.00    +0.000 A 
ATOM     11  C   UNL     1      -0.490  12.425  21.444  0.00  0.00    +0.000 A 
ATOM     12  C   UNL     1       0.236  11.543  20.618  0.00  0.00    +0.000 A 
BRANCH  12  13
ATOM     13  O   UNL     1       0.891  11.993  19.486  0.00  0.00    +0.000 OA
BRANCH  13  14
ATOM     14  C   UNL     1       1.986  12.887  19.719  0.00  0.00    +0.000 C 
BRANCH  14  15
ATOM     15  C   UNL     1       2.764  13.151  18.438  0.00  0.00    +0.000 C 
BRANCH  15  16
ATOM     16  C   UNL     1       3.439  14.514  18.450  0.00  0.00    +0.000 C 
BRANCH  16  17
ATOM     17  O   UNL     1       3.631  14.956  17.112  0.00  0.00    +0.000 OA
ATOM     18  H   UNL     1       4.487  15.415  17.079  0.00  0.00    +0.000 HD
ENDBRANCH  16  17
ENDBRANCH  15  16
ENDBRANCH  14  15
ENDBRANCH  13  14
ENDBRANCH  12  13
ENDBRANCH   4   7
BRANCH   1  19
ATOM     19  C   UNL     1       3.296   6.104  17.952  0.00  0.00    +0.000 C 
BRANCH  19  20
ATOM     20  O   UNL     1       3.488   4.977  18.808  0.00  0.00    +0.000 OA
BRANCH  20  28
ATOM     21  C   UNL     1       6.929   4.786  14.577  0.00  0.00    +0.000 A 
ATOM     22  C   UNL     1       5.628   4.373  14.806  0.00  0.00    +0.000 A 
ATOM     23  N   UNL     1       5.546   4.289  16.164  0.00  0.00    +0.000 N 
ATOM     24  C   UNL     1       6.762   4.603  16.687  0.00  0.00    +0.000 A 
ATOM     25  N   UNL     1       7.632   4.911  15.759  0.00  0.00    +0.000 NA
ATOM     26  O   UNL     1       7.036   4.491  17.980  0.00  0.00    +0.000 OA
ATOM     27  C   UNL     1       5.935   4.788  18.832  0.00  0.00    +0.000 C 
ATOM     28  C   UNL     1       4.591   4.127  18.457  0.00  0.00    +0.000 C 
ATOM     29  C   UNL     1       4.447   3.808  16.960  0.00  0.00    +0.000 C 
BRANCH  21  31
ATOM     30  O   UNL     1       7.114   4.357  12.339  0.00  0.00    +0.000 OA
ATOM     31  N   UNL     1       7.563   5.003  13.295  0.00  0.00    +0.000 N 
ATOM     32  O   UNL     1       8.494   5.818  13.240  0.00  0.00    +0.000 OA
ENDBRANCH  21  31
ENDBRANCH  20  28
ENDBRANCH  19  20
ENDBRANCH   1  19
TORSDOF 10
ENDMDL
MODEL 9
REMARK VINA RESULT:      -8.2      2.132      3.085
REMARK  Name = 
REMARK  10 active torsions:
REMARK  status: ('A' for Active; 'I' for Inactive)
REMARK    1  A    between atoms: N_2  and  C_4
REMARK    2  A    between atoms: C_11  and  O_12
REMARK    3  A    between atoms: O_12  and  C_13
REMARK    4  A    between atoms: C_13  and  C_14
REMARK    5  A    between atoms: C_17  and  C_18
REMARK    6  A    between atoms: C_23  and  O_24
REMARK    7  A    between atoms: O_24  and  C_25
REMARK    8  A    between atoms: C_25  and  C_26
REMARK    9  A    between atoms: C_26  and  C_27
REMARK   10  A    between atoms: C_27  and  O_28
REMARK                            x       y       z     vdW  Elec       q    Type
REMARK                         _______ _______ _______ _____ _____    ______ ____
ROOT
ATOM      1  C   UNL     1       2.280   7.518  19.108  0.00  0.00    +0.000 A 
ATOM      2  C   UNL     1       1.807   8.651  18.433  0.00  0.00    +0.000 A 
ATOM      3  C   UNL     1       1.107   9.660  19.112  0.00  0.00    +0.000 A 
ATOM      4  C   UNL     1       0.859   9.581  20.491  0.00  0.00    +0.000 A 
ATOM      5  C   UNL     1       1.300   8.408  21.140  0.00  0.00    +0.000 A 
ATOM      6  C   UNL     1       1.980   7.389  20.464  0.00  0.00    +0.000 A 
ENDROOT
BRANCH   4   7
ATOM      7  C   UNL     1       0.141  10.649  21.251  0.00  0.00    +0.000 A 
ATOM      8  C   UNL     1      -0.694  10.262  22.330  0.00  0.00    +0.000 A 
ATOM      9  C   UNL     1      -1.359  11.188  23.137  0.00  0.00    +0.000 A 
ATOM     10  C   UNL     1      -1.261  12.538  22.854  0.00  0.00    +0.000 A 
ATOM     11  C   UNL     1      -0.481  12.958  21.780  0.00  0.00    +0.000 A 
ATOM     12  C   UNL     1       0.258  12.041  21.005  0.00  0.00    +0.000 A 
BRANCH  12  13
ATOM     13  O   UNL     1       1.118  12.469  20.010  0.00  0.00    +0.000 OA
BRANCH  13  14
ATOM     14  C   UNL     1       0.648  13.564  19.214  0.00  0.00    +0.000 C 
BRANCH  14  15
ATOM     15  C   UNL     1       1.802  14.433  18.737  0.00  0.00    +0.000 C 
BRANCH  15  16
ATOM     16  C   UNL     1       2.973  13.602  18.233  0.00  0.00    +0.000 C 
BRANCH  16  17
ATOM     17  O   UNL     1       2.481  12.539  17.425  0.00  0.00    +0.000 OA
ATOM     18  H   UNL     1       1.611  12.287  17.778  0.00  0.00    +0.000 HD
ENDBRANCH  16  17
ENDBRANCH  15  16
ENDBRANCH  14  15
ENDBRANCH  13  14
ENDBRANCH  12  13
ENDBRANCH   4   7
BRANCH   1  19
ATOM     19  C   UNL     1       3.088   6.453  18.409  0.00  0.00    +0.000 C 
BRANCH  19  20
ATOM     20  O   UNL     1       4.031   5.915  19.336  0.00  0.00    +0.000 OA
BRANCH  20  28
ATOM     21  C   UNL     1       6.870   4.877  14.793  0.00  0.00    +0.000 A 
ATOM     22  C   UNL     1       5.528   4.884  15.135  0.00  0.00    +0.000 A 
ATOM     23  N   UNL     1       5.537   4.757  16.491  0.00  0.00    +0.000 N 
ATOM     24  C   UNL     1       6.829   4.642  16.904  0.00  0.00    +0.000 A 
ATOM     25  N   UNL     1       7.672   4.710  15.905  0.00  0.00    +0.000 NA
ATOM     26  O   UNL     1       7.157   4.380  18.161  0.00  0.00    +0.000 OA
ATOM     27  C   UNL     1       6.283   4.963  19.122  0.00  0.00    +0.000 C 
ATOM     28  C   UNL     1       4.772   4.781  18.860  0.00  0.00    +0.000 C 
ATOM     29  C   UNL     1       4.411   4.605  17.377  0.00  0.00    +0.000 C 
BRANCH  21  31
ATOM     30  O   UNL     1       8.347   5.768  13.293  0.00  0.00    +0.000 OA
ATOM     31  N   UNL     1       7.432   4.952  13.462  0.00  0.00    +0.000 N 
ATOM     32  O   UNL     1       6.972   4.196  12.596  0.00  0.00    +0.000 OA
ENDBRANCH  21  31
ENDBRANCH  20  28
ENDBRANCH  19  20
ENDBRANCH   1  19
TORSDOF 10
ENDMDL
