MODEL 1
REMARK VINA RESULT:      -9.3      0.000      0.000
REMARK  Name = 
REMARK  9 active torsions:
REMARK  status: ('A' for Active; 'I' for Inactive)
REMARK    1  A    between atoms: C_1  and  C_2
REMARK    2  A    between atoms: C_6  and  C_7
REMARK    3  A    between atoms: C_14  and  N_15
REMARK    4  A    between atoms: N_15  and  C_16
REMARK    5  A    between atoms: C_18  and  C_19
REMARK    6  A    between atoms: C_19  and  O_20
REMARK    7  A    between atoms: C_21  and  O_22
REMARK    8  A    between atoms: C_23  and  O_24
REMARK    9  A    between atoms: C_27  and  C_28
REMARK                            x       y       z     vdW  Elec       q    Type
REMARK                         _______ _______ _______ _____ _____    ______ ____
ROOT
ATOM      1  C   UNL     1       2.810   4.451  19.479  0.00  0.00    +0.000 A 
ATOM      2  C   UNL     1       2.013   3.263  19.580  0.00  0.00    +0.000 A 
ATOM      3 CL   UNL     1       0.337   3.313  20.074  0.00  0.00    +0.000 Cl
ATOM      4  N   UNL     1       2.566   2.024  19.350  0.00  0.00    +0.000 NA
ATOM      5  C   UNL     1       3.878   1.873  19.025  0.00  0.00    +0.000 A 
ATOM      6  N   UNL     1       4.456   0.611  18.723  0.00  0.00    +0.000 N 
ATOM      7  N   UNL     1       4.662   2.955  18.991  0.00  0.00    +0.000 NA
ATOM      8  C   UNL     1       4.182   4.202  19.203  0.00  0.00    +0.000 A 
ATOM      9  H   UNL     1       3.896  -0.261  18.739  0.00  0.00    +0.000 HD
ATOM     10  H   UNL     1       5.439   0.553  18.427  0.00  0.00    +0.000 HD
ENDROOT
BRANCH   1  16
ATOM     11  C   UNL     1      -0.074  10.800  22.139  0.00  0.00    +0.000 C 
ATOM     12  C   UNL     1       0.594   9.831  21.188  0.00  0.00    +0.000 A 
ATOM     13  C   UNL     1       0.814   8.517  21.595  0.00  0.00    +0.000 A 
ATOM     14  C   UNL     1       1.417   7.665  20.688  0.00  0.00    +0.000 A 
ATOM     15  C   UNL     1       1.741   6.392  20.868  0.00  0.00    +0.000 A 
ATOM     16  C   UNL     1       2.307   5.905  19.677  0.00  0.00    +0.000 A 
ATOM     17  O   UNL     1       2.334   6.939  18.820  0.00  0.00    +0.000 OA
ATOM     18  C   UNL     1       1.798   8.005  19.443  0.00  0.00    +0.000 A 
ATOM     19  C   UNL     1       1.611   9.351  19.045  0.00  0.00    +0.000 A 
ATOM     20  C   UNL     1       2.101   9.881  17.744  0.00  0.00    +0.000 C 
ATOM     21  N   UNL     1       1.008  10.217  19.933  0.00  0.00    +0.000 NA
ENDBRANCH   1  16
BRANCH   8  22
ATOM     22  N   UNL     1       5.128   5.237  19.162  0.00  0.00    +0.000 N 
ATOM     23  H   UNL     1       4.748   6.155  18.870  0.00  0.00    +0.000 HD
BRANCH  22  24
ATOM     24  C   UNL     1       6.557   5.016  18.979  0.00  0.00    +0.000 C 
ATOM     25  C   UNL     1       7.416   6.307  19.164  0.00  0.00    +0.000 C 
ATOM     26  C   UNL     1       7.779   6.826  17.753  0.00  0.00    +0.000 C 
ATOM     27  C   UNL     1       6.894   6.038  16.800  0.00  0.00    +0.000 C 
ATOM     28  C   UNL     1       6.825   4.651  17.491  0.00  0.00    +0.000 C 
BRANCH  27  29
ATOM     29  O   UNL     1       7.480   5.966  15.522  0.00  0.00    +0.000 OA
ATOM     30  H   UNL     1       8.398   5.608  15.633  0.00  0.00    +0.000 HD
ENDBRANCH  27  29
BRANCH  28  31
ATOM     31  O   UNL     1       8.069   4.018  17.338  0.00  0.00    +0.000 OA
ATOM     32  H   UNL     1       8.036   3.136  17.788  0.00  0.00    +0.000 HD
ENDBRANCH  28  31
BRANCH  26  33
ATOM     33  C   UNL     1       7.725   8.366  17.621  0.00  0.00    +0.000 C 
BRANCH  33  34
ATOM     34  O   UNL     1       8.572   9.013  18.536  0.00  0.00    +0.000 OA
ATOM     35  H   UNL     1       9.497   8.711  18.355  0.00  0.00    +0.000 HD
ENDBRANCH  33  34
ENDBRANCH  26  33
ENDBRANCH  22  24
ENDBRANCH   8  22
TORSDOF 7
ENDMDL
MODEL 2
REMARK VINA RESULT:      -9.2      0.724      1.655
REMARK  Name = 
REMARK  9 active torsions:
REMARK  status: ('A' for Active; 'I' for Inactive)
REMARK    1  A    between atoms: C_1  and  C_2
REMARK    2  A    between atoms: C_6  and  C_7
REMARK    3  A    between atoms: C_14  and  N_15
REMARK    4  A    between atoms: N_15  and  C_16
REMARK    5  A    between atoms: C_18  and  C_19
REMARK    6  A    between atoms: C_19  and  O_20
REMARK    7  A    between atoms: C_21  and  O_22
REMARK    8  A    between atoms: C_23  and  O_24
REMARK    9  A    between atoms: C_27  and  C_28
REMARK                            x       y       z     vdW  Elec       q    Type
REMARK                         _______ _______ _______ _____ _____    ______ ____
ROOT
ATOM      1  C   UNL     1       2.908   4.605  19.483  0.00  0.00    +0.000 A 
ATOM      2  C   UNL     1       2.078   3.440  19.581  0.00  0.00    +0.000 A 
ATOM      3 CL   UNL     1       0.378   3.546  19.978  0.00  0.00    +0.000 Cl
ATOM      4  N   UNL     1       2.612   2.182  19.427  0.00  0.00    +0.000 NA
ATOM      5  C   UNL     1       3.935   1.989  19.181  0.00  0.00    +0.000 A 
ATOM      6  N   UNL     1       4.498   0.703  18.958  0.00  0.00    +0.000 N 
ATOM      7  N   UNL     1       4.746   3.050  19.153  0.00  0.00    +0.000 NA
ATOM      8  C   UNL     1       4.287   4.315  19.293  0.00  0.00    +0.000 A 
ATOM      9  H   UNL     1       3.917  -0.154  18.975  0.00  0.00    +0.000 HD
ATOM     10  H   UNL     1       5.494   0.613  18.720  0.00  0.00    +0.000 HD
ENDROOT
BRANCH   1  16
ATOM     11  C   UNL     1       1.197  11.765  18.255  0.00  0.00    +0.000 C 
ATOM     12  C   UNL     1       1.329  10.438  18.970  0.00  0.00    +0.000 A 
ATOM     13  C   UNL     1       1.891   9.354  18.298  0.00  0.00    +0.000 A 
ATOM     14  C   UNL     1       2.002   8.165  18.994  0.00  0.00    +0.000 A 
ATOM     15  C   UNL     1       2.479   7.010  18.550  0.00  0.00    +0.000 A 
ATOM     16  C   UNL     1       2.430   6.077  19.600  0.00  0.00    +0.000 A 
ATOM     17  O   UNL     1       1.880   6.712  20.647  0.00  0.00    +0.000 OA
ATOM     18  C   UNL     1       1.616   7.978  20.270  0.00  0.00    +0.000 A 
ATOM     19  C   UNL     1       1.008   9.067  20.938  0.00  0.00    +0.000 A 
ATOM     20  C   UNL     1       0.428   8.952  22.304  0.00  0.00    +0.000 C 
ATOM     21  N   UNL     1       0.891  10.265  20.263  0.00  0.00    +0.000 NA
ENDBRANCH   1  16
BRANCH   8  22
ATOM     22  N   UNL     1       5.259   5.326  19.267  0.00  0.00    +0.000 N 
ATOM     23  H   UNL     1       4.896   6.266  19.027  0.00  0.00    +0.000 HD
BRANCH  22  24
ATOM     24  C   UNL     1       6.675   5.077  19.033  0.00  0.00    +0.000 C 
ATOM     25  C   UNL     1       7.564   6.353  19.173  0.00  0.00    +0.000 C 
ATOM     26  C   UNL     1       7.884   6.852  17.745  0.00  0.00    +0.000 C 
ATOM     27  C   UNL     1       6.948   6.073  16.833  0.00  0.00    +0.000 C 
ATOM     28  C   UNL     1       6.879   4.694  17.539  0.00  0.00    +0.000 C 
BRANCH  27  29
ATOM     29  O   UNL     1       7.484   5.979  15.535  0.00  0.00    +0.000 OA
ATOM     30  H   UNL     1       8.031   5.153  15.495  0.00  0.00    +0.000 HD
ENDBRANCH  27  29
BRANCH  28  31
ATOM     31  O   UNL     1       8.105   4.036  17.345  0.00  0.00    +0.000 OA
ATOM     32  H   UNL     1       7.993   3.078  17.573  0.00  0.00    +0.000 HD
ENDBRANCH  28  31
BRANCH  26  33
ATOM     33  C   UNL     1       7.853   8.392  17.601  0.00  0.00    +0.000 C 
BRANCH  33  34
ATOM     34  O   UNL     1       8.644   9.038  18.564  0.00  0.00    +0.000 OA
ATOM     35  H   UNL     1       8.057   9.647  19.077  0.00  0.00    +0.000 HD
ENDBRANCH  33  34
ENDBRANCH  26  33
ENDBRANCH  22  24
ENDBRANCH   8  22
TORSDOF 7
ENDMDL
MODEL 3
REMARK VINA RESULT:      -9.0      2.792      6.788
REMARK  Name = 
REMARK  9 active torsions:
REMARK  status: ('A' for Active; 'I' for Inactive)
REMARK    1  A    between atoms: C_1  and  C_2
REMARK    2  A    between atoms: C_6  and  C_7
REMARK    3  A    between atoms: C_14  and  N_15
REMARK    4  A    between atoms: N_15  and  C_16
REMARK    5  A    between atoms: C_18  and  C_19
REMARK    6  A    between atoms: C_19  and  O_20
REMARK    7  A    between atoms: C_21  and  O_22
REMARK    8  A    between atoms: C_23  and  O_24
REMARK    9  A    between atoms: C_27  and  C_28
REMARK                            x       y       z     vdW  Elec       q    Type
REMARK                         _______ _______ _______ _____ _____    ______ ____
ROOT
ATOM      1  C   UNL     1       2.536   7.302  19.371  0.00  0.00    +0.000 A 
ATOM      2  C   UNL     1       1.911   8.566  19.113  0.00  0.00    +0.000 A 
ATOM      3 CL   UNL     1       2.464   9.629  17.841  0.00  0.00    +0.000 Cl
ATOM      4  N   UNL     1       0.882   9.016  19.909  0.00  0.00    +0.000 NA
ATOM      5  C   UNL     1       0.423   8.293  20.965  0.00  0.00    +0.000 A 
ATOM      6  N   UNL     1      -0.677   8.709  21.763  0.00  0.00    +0.000 N 
ATOM      7  N   UNL     1       1.031   7.144  21.272  0.00  0.00    +0.000 NA
ATOM      8  C   UNL     1       2.045   6.641  20.530  0.00  0.00    +0.000 A 
ATOM      9  H   UNL     1      -1.182   9.593  21.573  0.00  0.00    +0.000 HD
ATOM     10  H   UNL     1      -1.025   8.101  22.516  0.00  0.00    +0.000 HD
ENDROOT
BRANCH   1  16
ATOM     11  C   UNL     1       6.770   4.410  13.947  0.00  0.00    +0.000 C 
ATOM     12  C   UNL     1       6.354   4.899  15.317  0.00  0.00    +0.000 A 
ATOM     13  C   UNL     1       5.080   5.436  15.493  0.00  0.00    +0.000 A 
ATOM     14  C   UNL     1       4.740   5.859  16.765  0.00  0.00    +0.000 A 
ATOM     15  C   UNL     1       3.602   6.417  17.153  0.00  0.00    +0.000 A 
ATOM     16  C   UNL     1       3.676   6.662  18.535  0.00  0.00    +0.000 A 
ATOM     17  O   UNL     1       4.898   6.265  18.925  0.00  0.00    +0.000 OA
ATOM     18  C   UNL     1       5.541   5.784  17.844  0.00  0.00    +0.000 A 
ATOM     19  C   UNL     1       6.849   5.278  17.656  0.00  0.00    +0.000 A 
ATOM     20  C   UNL     1       7.868   5.259  18.739  0.00  0.00    +0.000 C 
ATOM     21  N   UNL     1       7.208   4.846  16.396  0.00  0.00    +0.000 NA
ENDBRANCH   1  16
BRANCH   8  22
ATOM     22  N   UNL     1       2.603   5.439  20.990  0.00  0.00    +0.000 N 
ATOM     23  H   UNL     1       3.634   5.385  20.909  0.00  0.00    +0.000 HD
BRANCH  22  24
ATOM     24  C   UNL     1       1.870   4.181  21.049  0.00  0.00    +0.000 C 
ATOM     25  C   UNL     1       2.792   2.928  21.180  0.00  0.00    +0.000 C 
ATOM     26  C   UNL     1       2.891   2.279  19.780  0.00  0.00    +0.000 C 
ATOM     27  C   UNL     1       2.302   3.305  18.824  0.00  0.00    +0.000 C 
ATOM     28  C   UNL     1       1.175   3.938  19.679  0.00  0.00    +0.000 C 
BRANCH  27  29
ATOM     29  O   UNL     1       1.804   2.678  17.667  0.00  0.00    +0.000 OA
ATOM     30  H   UNL     1       1.844   1.698  17.816  0.00  0.00    +0.000 HD
ENDBRANCH  27  29
BRANCH  28  31
ATOM     31  O   UNL     1       0.132   3.004  19.796  0.00  0.00    +0.000 OA
ATOM     32  H   UNL     1      -0.707   3.488  20.009  0.00  0.00    +0.000 HD
ENDBRANCH  28  31
BRANCH  26  33
ATOM     33  C   UNL     1       4.304   1.752  19.434  0.00  0.00    +0.000 C 
BRANCH  33  34
ATOM     34  O   UNL     1       5.287   2.750  19.530  0.00  0.00    +0.000 OA
ATOM     35  H   UNL     1       6.119   2.323  19.854  0.00  0.00    +0.000 HD
ENDBRANCH  33  34
ENDBRANCH  26  33
ENDBRANCH  22  24
ENDBRANCH   8  22
TORSDOF 7
ENDMDL
MODEL 4
REMARK VINA RESULT:      -8.9      1.156      2.171
REMARK  Name = 
REMARK  9 active torsions:
REMARK  status: ('A' for Active; 'I' for Inactive)
REMARK    1  A    between atoms: C_1  and  C_2
REMARK    2  A    between atoms: C_6  and  C_7
REMARK    3  A    between atoms: C_14  and  N_15
REMARK    4  A    between atoms: N_15  and  C_16
REMARK    5  A    between atoms: C_18  and  C_19
REMARK    6  A    between atoms: C_19  and  O_20
REMARK    7  A    between atoms: C_21  and  O_22
REMARK    8  A    between atoms: C_23  and  O_24
REMARK    9  A    between atoms: C_27  and  C_28
REMARK                            x       y       z     vdW  Elec       q    Type
REMARK                         _______ _______ _______ _____ _____    ______ ____
ROOT
ATOM      1  C   UNL     1       2.706   4.571  19.464  0.00  0.00    +0.000 A 
ATOM      2  C   UNL     1       1.907   3.381  19.494  0.00  0.00    +0.000 A 
ATOM      3 CL   UNL     1       0.218   3.410  19.944  0.00  0.00    +0.000 Cl
ATOM      4  N   UNL     1       2.468   2.153  19.227  0.00  0.00    +0.000 NA
ATOM      5  C   UNL     1       3.787   2.015  18.931  0.00  0.00    +0.000 A 
ATOM      6  N   UNL     1       4.375   0.766  18.593  0.00  0.00    +0.000 N 
ATOM      7  N   UNL     1       4.571   3.097  18.964  0.00  0.00    +0.000 NA
ATOM      8  C   UNL     1       4.085   4.335  19.214  0.00  0.00    +0.000 A 
ATOM      9  H   UNL     1       3.816  -0.105  18.558  0.00  0.00    +0.000 HD
ATOM     10  H   UNL     1       5.366   0.721  18.322  0.00  0.00    +0.000 HD
ENDROOT
BRANCH   1  16
ATOM     11  C   UNL     1      -0.199  10.821  22.329  0.00  0.00    +0.000 C 
ATOM     12  C   UNL     1       0.469   9.886  21.345  0.00  0.00    +0.000 A 
ATOM     13  C   UNL     1       0.699   8.560  21.711  0.00  0.00    +0.000 A 
ATOM     14  C   UNL     1       1.301   7.740  20.776  0.00  0.00    +0.000 A 
ATOM     15  C   UNL     1       1.633   6.464  20.916  0.00  0.00    +0.000 A 
ATOM     16  C   UNL     1       2.195   6.016  19.708  0.00  0.00    +0.000 A 
ATOM     17  O   UNL     1       2.212   7.076  18.882  0.00  0.00    +0.000 OA
ATOM     18  C   UNL     1       1.674   8.120  19.540  0.00  0.00    +0.000 A 
ATOM     19  C   UNL     1       1.478   9.476  19.184  0.00  0.00    +0.000 A 
ATOM     20  C   UNL     1       1.958  10.048  17.897  0.00  0.00    +0.000 C 
ATOM     21  N   UNL     1       0.875  10.312  20.101  0.00  0.00    +0.000 NA
ENDBRANCH   1  16
BRANCH   8  22
ATOM     22  N   UNL     1       5.030   5.370  19.241  0.00  0.00    +0.000 N 
ATOM     23  H   UNL     1       5.209   5.765  20.182  0.00  0.00    +0.000 HD
BRANCH  22  24
ATOM     24  C   UNL     1       5.333   6.215  18.093  0.00  0.00    +0.000 C 
ATOM     25  C   UNL     1       4.659   5.734  16.770  0.00  0.00    +0.000 C 
ATOM     26  C   UNL     1       5.739   5.002  15.940  0.00  0.00    +0.000 C 
ATOM     27  C   UNL     1       6.904   4.798  16.897  0.00  0.00    +0.000 C 
ATOM     28  C   UNL     1       6.847   6.086  17.758  0.00  0.00    +0.000 C 
BRANCH  27  29
ATOM     29  O   UNL     1       8.115   4.686  16.188  0.00  0.00    +0.000 OA
ATOM     30  H   UNL     1       8.049   5.267  15.388  0.00  0.00    +0.000 HD
ENDBRANCH  27  29
BRANCH  28  31
ATOM     31  O   UNL     1       7.288   7.164  16.972  0.00  0.00    +0.000 OA
ATOM     32  H   UNL     1       6.546   7.454  16.384  0.00  0.00    +0.000 HD
ENDBRANCH  28  31
BRANCH  26  33
ATOM     33  C   UNL     1       5.220   3.737  15.216  0.00  0.00    +0.000 C 
BRANCH  33  34
ATOM     34  O   UNL     1       6.125   3.260  14.254  0.00  0.00    +0.000 OA
ATOM     35  H   UNL     1       6.844   2.775  14.731  0.00  0.00    +0.000 HD
ENDBRANCH  33  34
ENDBRANCH  26  33
ENDBRANCH  22  24
ENDBRANCH   8  22
TORSDOF 7
ENDMDL
MODEL 5
REMARK VINA RESULT:      -8.9      1.444      2.232
REMARK  Name = 
REMARK  9 active torsions:
REMARK  status: ('A' for Active; 'I' for Inactive)
REMARK    1  A    between atoms: C_1  and  C_2
REMARK    2  A    between atoms: C_6  and  C_7
REMARK    3  A    between atoms: C_14  and  N_15
REMARK    4  A    between atoms: N_15  and  C_16
REMARK    5  A    between atoms: C_18  and  C_19
REMARK    6  A    between atoms: C_19  and  O_20
REMARK    7  A    between atoms: C_21  and  O_22
REMARK    8  A    between atoms: C_23  and  O_24
REMARK    9  A    between atoms: C_27  and  C_28
REMARK                            x       y       z     vdW  Elec       q    Type
REMARK                         _______ _______ _______ _____ _____    ______ ____
ROOT
ATOM      1  C   UNL     1       2.806   4.514  19.386  0.00  0.00    +0.000 A 
ATOM      2  C   UNL     1       2.740   3.420  20.310  0.00  0.00    +0.000 A 
ATOM      3 CL   UNL     1       2.129   3.618  21.937  0.00  0.00    +0.000 Cl
ATOM      4  N   UNL     1       3.219   2.177  19.964  0.00  0.00    +0.000 NA
ATOM      5  C   UNL     1       3.774   1.936  18.746  0.00  0.00    +0.000 A 
ATOM      6  N   UNL     1       4.220   0.648  18.344  0.00  0.00    +0.000 N 
ATOM      7  N   UNL     1       3.913   2.953  17.889  0.00  0.00    +0.000 NA
ATOM      8  C   UNL     1       3.460   4.198  18.165  0.00  0.00    +0.000 A 
ATOM      9  H   UNL     1       4.141  -0.173  18.969  0.00  0.00    +0.000 HD
ATOM     10  H   UNL     1       4.581   0.504  17.392  0.00  0.00    +0.000 HD
ENDROOT
BRANCH   1  16
ATOM     11  C   UNL     1      -0.206  10.705  22.268  0.00  0.00    +0.000 C 
ATOM     12  C   UNL     1       0.481   9.784  21.283  0.00  0.00    +0.000 A 
ATOM     13  C   UNL     1       0.729   8.461  21.644  0.00  0.00    +0.000 A 
ATOM     14  C   UNL     1       1.348   7.654  20.707  0.00  0.00    +0.000 A 
ATOM     15  C   UNL     1       1.699   6.383  20.843  0.00  0.00    +0.000 A 
ATOM     16  C   UNL     1       2.273   5.950  19.635  0.00  0.00    +0.000 A 
ATOM     17  O   UNL     1       2.276   7.013  18.814  0.00  0.00    +0.000 OA
ATOM     18  C   UNL     1       1.719   8.046  19.474  0.00  0.00    +0.000 A 
ATOM     19  C   UNL     1       1.504   9.400  19.124  0.00  0.00    +0.000 A 
ATOM     20  C   UNL     1       1.979   9.985  17.841  0.00  0.00    +0.000 C 
ATOM     21  N   UNL     1       0.884  10.222  20.042  0.00  0.00    +0.000 NA
ENDBRANCH   1  16
BRANCH   8  22
ATOM     22  N   UNL     1       3.700   5.168  17.180  0.00  0.00    +0.000 N 
ATOM     23  H   UNL     1       3.271   4.963  16.261  0.00  0.00    +0.000 HD
BRANCH  22  24
ATOM     24  C   UNL     1       4.848   6.066  17.197  0.00  0.00    +0.000 C 
ATOM     25  C   UNL     1       5.435   6.354  15.779  0.00  0.00    +0.000 C 
ATOM     26  C   UNL     1       6.699   5.479  15.616  0.00  0.00    +0.000 C 
ATOM     27  C   UNL     1       6.653   4.495  16.775  0.00  0.00    +0.000 C 
ATOM     28  C   UNL     1       6.035   5.354  17.908  0.00  0.00    +0.000 C 
BRANCH  27  29
ATOM     29  O   UNL     1       7.947   4.044  17.096  0.00  0.00    +0.000 OA
ATOM     30  H   UNL     1       8.465   3.995  16.252  0.00  0.00    +0.000 HD
ENDBRANCH  27  29
BRANCH  28  31
ATOM     31  O   UNL     1       7.000   6.279  18.338  0.00  0.00    +0.000 OA
ATOM     32  H   UNL     1       6.664   6.737  19.150  0.00  0.00    +0.000 HD
ENDBRANCH  28  31
BRANCH  26  33
ATOM     33  C   UNL     1       6.856   4.866  14.204  0.00  0.00    +0.000 C 
BRANCH  33  34
ATOM     34  O   UNL     1       6.498   3.508  14.165  0.00  0.00    +0.000 OA
ATOM     35  H   UNL     1       7.321   2.976  14.303  0.00  0.00    +0.000 HD
ENDBRANCH  33  34
ENDBRANCH  26  33
ENDBRANCH  22  24
ENDBRANCH   8  22
TORSDOF 7
ENDMDL
MODEL 6
REMARK VINA RESULT:      -8.6      0.982      1.476
REMARK  Name = 
REMARK  9 active torsions:
REMARK  status: ('A' for Active; 'I' for Inactive)
REMARK    1  A    between atoms: C_1  and  C_2
REMARK    2  A    between atoms: C_6  and  C_7
REMARK    3  A    between atoms: C_14  and  N_15
REMARK    4  A    between atoms: N_15  and  C_16
REMARK    5  A    between atoms: C_18  and  C_19
REMARK    6  A    between atoms: C_19  and  O_20
REMARK    7  A    between atoms: C_21  and  O_22
REMARK    8  A    between atoms: C_23  and  O_24
REMARK    9  A    between atoms: C_27  and  C_28
REMARK                            x       y       z     vdW  Elec       q    Type
REMARK                         _______ _______ _______ _____ _____    ______ ____
ROOT
ATOM      1  C   UNL     1       2.751   4.315  19.318  0.00  0.00    +0.000 A 
ATOM      2  C   UNL     1       2.230   3.154  19.979  0.00  0.00    +0.000 A 
ATOM      3 CL   UNL     1       1.034   3.271  21.249  0.00  0.00    +0.000 Cl
ATOM      4  N   UNL     1       2.705   1.899  19.674  0.00  0.00    +0.000 NA
ATOM      5  C   UNL     1       3.682   1.707  18.747  0.00  0.00    +0.000 A 
ATOM      6  N   UNL     1       4.146   0.418  18.373  0.00  0.00    +0.000 N 
ATOM      7  N   UNL     1       4.236   2.775  18.165  0.00  0.00    +0.000 NA
ATOM      8  C   UNL     1       3.813   4.036  18.415  0.00  0.00    +0.000 A 
ATOM      9  H   UNL     1       3.755  -0.443  18.796  0.00  0.00    +0.000 HD
ATOM     10  H   UNL     1       4.846   0.320  17.626  0.00  0.00    +0.000 HD
ENDROOT
BRANCH   1  16
ATOM     11  C   UNL     1       0.034  10.690  22.090  0.00  0.00    +0.000 C 
ATOM     12  C   UNL     1       0.670   9.719  21.118  0.00  0.00    +0.000 A 
ATOM     13  C   UNL     1       0.867   8.395  21.507  0.00  0.00    +0.000 A 
ATOM     14  C   UNL     1       1.441   7.542  20.582  0.00  0.00    +0.000 A 
ATOM     15  C   UNL     1       1.740   6.261  20.743  0.00  0.00    +0.000 A 
ATOM     16  C   UNL     1       2.281   5.777  19.539  0.00  0.00    +0.000 A 
ATOM     17  O   UNL     1       2.320   6.820  18.695  0.00  0.00    +0.000 OA
ATOM     18  C   UNL     1       1.814   7.890  19.337  0.00  0.00    +0.000 A 
ATOM     19  C   UNL     1       1.652   9.244  18.958  0.00  0.00    +0.000 A 
ATOM     20  C   UNL     1       2.137   9.780  17.657  0.00  0.00    +0.000 C 
ATOM     21  N   UNL     1       1.077  10.112  19.864  0.00  0.00    +0.000 NA
ENDBRANCH   1  16
BRANCH   8  22
ATOM     22  N   UNL     1       4.507   5.058  17.750  0.00  0.00    +0.000 N 
ATOM     23  H   UNL     1       3.908   5.826  17.399  0.00  0.00    +0.000 HD
BRANCH  22  24
ATOM     24  C   UNL     1       5.797   4.865  17.101  0.00  0.00    +0.000 C 
ATOM     25  C   UNL     1       6.976   4.660  18.105  0.00  0.00    +0.000 C 
ATOM     26  C   UNL     1       7.738   6.002  18.203  0.00  0.00    +0.000 C 
ATOM     27  C   UNL     1       6.837   7.021  17.522  0.00  0.00    +0.000 C 
ATOM     28  C   UNL     1       6.201   6.184  16.382  0.00  0.00    +0.000 C 
BRANCH  27  29
ATOM     29  O   UNL     1       7.592   8.102  17.030  0.00  0.00    +0.000 OA
ATOM     30  H   UNL     1       7.691   7.978  16.051  0.00  0.00    +0.000 HD
ENDBRANCH  27  29
BRANCH  28  31
ATOM     31  O   UNL     1       7.183   5.951  15.404  0.00  0.00    +0.000 OA
ATOM     32  H   UNL     1       7.754   6.757  15.326  0.00  0.00    +0.000 HD
ENDBRANCH  28  31
BRANCH  26  33
ATOM     33  C   UNL     1       8.206   6.352  19.635  0.00  0.00    +0.000 C 
BRANCH  33  34
ATOM     34  O   UNL     1       8.072   5.272  20.522  0.00  0.00    +0.000 OA
ATOM     35  H   UNL     1       7.128   4.973  20.491  0.00  0.00    +0.000 HD
ENDBRANCH  33  34
ENDBRANCH  26  33
ENDBRANCH  22  24
ENDBRANCH   8  22
TORSDOF 7
ENDMDL
MODEL 7
REMARK VINA RESULT:      -8.6      1.210      2.241
REMARK  Name = 
REMARK  9 active torsions:
REMARK  status: ('A' for Active; 'I' for Inactive)
REMARK    1  A    between atoms: C_1  and  C_2
REMARK    2  A    between atoms: C_6  and  C_7
REMARK    3  A    between atoms: C_14  and  N_15
REMARK    4  A    between atoms: N_15  and  C_16
REMARK    5  A    between atoms: C_18  and  C_19
REMARK    6  A    between atoms: C_19  and  O_20
REMARK    7  A    between atoms: C_21  and  O_22
REMARK    8  A    between atoms: C_23  and  O_24
REMARK    9  A    between atoms: C_27  and  C_28
REMARK                            x       y       z     vdW  Elec       q    Type
REMARK                         _______ _______ _______ _____ _____    ______ ____
ROOT
ATOM      1  C   UNL     1       2.745   4.559  19.040  0.00  0.00    +0.000 A 
ATOM      2  C   UNL     1       2.129   3.441  19.694  0.00  0.00    +0.000 A 
ATOM      3 CL   UNL     1       0.901   3.647  20.921  0.00  0.00    +0.000 Cl
ATOM      4  N   UNL     1       2.534   2.155  19.418  0.00  0.00    +0.000 NA
ATOM      5  C   UNL     1       3.528   1.892  18.527  0.00  0.00    +0.000 A 
ATOM      6  N   UNL     1       3.922   0.571  18.181  0.00  0.00    +0.000 N 
ATOM      7  N   UNL     1       4.168   2.915  17.955  0.00  0.00    +0.000 NA
ATOM      8  C   UNL     1       3.817   4.203  18.178  0.00  0.00    +0.000 A 
ATOM      9  H   UNL     1       3.464  -0.259  18.599  0.00  0.00    +0.000 HD
ATOM     10  H   UNL     1       4.640   0.421  17.461  0.00  0.00    +0.000 HD
ENDROOT
BRANCH   1  16
ATOM     11  C   UNL     1       1.326  11.829  18.126  0.00  0.00    +0.000 C 
ATOM     12  C   UNL     1       1.448  10.478  18.798  0.00  0.00    +0.000 A 
ATOM     13  C   UNL     1       1.889   9.384  18.055  0.00  0.00    +0.000 A 
ATOM     14  C   UNL     1       1.995   8.173  18.712  0.00  0.00    +0.000 A 
ATOM     15  C   UNL     1       2.367   7.007  18.202  0.00  0.00    +0.000 A 
ATOM     16  C   UNL     1       2.361   6.050  19.231  0.00  0.00    +0.000 A 
ATOM     17  O   UNL     1       1.941   6.686  20.338  0.00  0.00    +0.000 OA
ATOM     18  C   UNL     1       1.715   7.973  20.013  0.00  0.00    +0.000 A 
ATOM     19  C   UNL     1       1.228   9.075  20.756  0.00  0.00    +0.000 A 
ATOM     20  C   UNL     1       0.767   8.955  22.166  0.00  0.00    +0.000 C 
ATOM     21  N   UNL     1       1.118  10.294  20.121  0.00  0.00    +0.000 NA
ENDBRANCH   1  16
BRANCH   8  22
ATOM     22  N   UNL     1       4.596   5.172  17.528  0.00  0.00    +0.000 N 
ATOM     23  H   UNL     1       4.054   5.940  17.095  0.00  0.00    +0.000 HD
BRANCH  22  24
ATOM     24  C   UNL     1       5.928   4.910  16.995  0.00  0.00    +0.000 C 
ATOM     25  C   UNL     1       7.004   4.669  18.100  0.00  0.00    +0.000 C 
ATOM     26  C   UNL     1       7.817   5.977  18.246  0.00  0.00    +0.000 C 
ATOM     27  C   UNL     1       7.026   7.024  17.477  0.00  0.00    +0.000 C 
ATOM     28  C   UNL     1       6.453   6.197  16.297  0.00  0.00    +0.000 C 
BRANCH  27  29
ATOM     29  O   UNL     1       7.870   8.061  17.038  0.00  0.00    +0.000 OA
ATOM     30  H   UNL     1       7.720   8.841  17.633  0.00  0.00    +0.000 HD
ENDBRANCH  27  29
BRANCH  28  31
ATOM     31  O   UNL     1       7.503   5.904  15.411  0.00  0.00    +0.000 OA
ATOM     32  H   UNL     1       7.319   5.033  14.976  0.00  0.00    +0.000 HD
ENDBRANCH  28  31
BRANCH  26  33
ATOM     33  C   UNL     1       8.175   6.329  19.710  0.00  0.00    +0.000 C 
BRANCH  33  34
ATOM     34  O   UNL     1       8.089   5.219  20.565  0.00  0.00    +0.000 OA
ATOM     35  H   UNL     1       7.865   5.553  21.470  0.00  0.00    +0.000 HD
ENDBRANCH  33  34
ENDBRANCH  26  33
ENDBRANCH  22  24
ENDBRANCH   8  22
TORSDOF 7
ENDMDL
MODEL 8
REMARK VINA RESULT:      -8.6      1.416      2.741
REMARK  Name = 
REMARK  9 active torsions:
REMARK  status: ('A' for Active; 'I' for Inactive)
REMARK    1  A    between atoms: C_1  and  C_2
REMARK    2  A    between atoms: C_6  and  C_7
REMARK    3  A    between atoms: C_14  and  N_15
REMARK    4  A    between atoms: N_15  and  C_16
REMARK    5  A    between atoms: C_18  and  C_19
REMARK    6  A    between atoms: C_19  and  O_20
REMARK    7  A    between atoms: C_21  and  O_22
REMARK    8  A    between atoms: C_23  and  O_24
REMARK    9  A    between atoms: C_27  and  C_28
REMARK                            x       y       z     vdW  Elec       q    Type
REMARK                         _______ _______ _______ _____ _____    ______ ____
ROOT
ATOM      1  C   UNL     1       2.791   5.046  19.461  0.00  0.00    +0.000 A 
ATOM      2  C   UNL     1       1.988   3.862  19.548  0.00  0.00    +0.000 A 
ATOM      3 CL   UNL     1       0.312   3.915  20.045  0.00  0.00    +0.000 Cl
ATOM      4  N   UNL     1       2.534   2.623  19.302  0.00  0.00    +0.000 NA
ATOM      5  C   UNL     1       3.844   2.469  18.974  0.00  0.00    +0.000 A 
ATOM      6  N   UNL     1       4.415   1.207  18.656  0.00  0.00    +0.000 N 
ATOM      7  N   UNL     1       4.634   3.547  18.952  0.00  0.00    +0.000 NA
ATOM      8  C   UNL     1       4.161   4.794  19.180  0.00  0.00    +0.000 A 
ATOM      9  H   UNL     1       3.851   0.339  18.663  0.00  0.00    +0.000 HD
ATOM     10  H   UNL     1       5.398   1.148  18.358  0.00  0.00    +0.000 HD
ENDROOT
BRANCH   1  16
ATOM     11  C   UNL     1       0.770  12.186  18.655  0.00  0.00    +0.000 C 
ATOM     12  C   UNL     1       1.020  10.845  19.310  0.00  0.00    +0.000 A 
ATOM     13  C   UNL     1       1.523   9.794  18.545  0.00  0.00    +0.000 A 
ATOM     14  C   UNL     1       1.746   8.591  19.188  0.00  0.00    +0.000 A 
ATOM     15  C   UNL     1       2.193   7.462  18.656  0.00  0.00    +0.000 A 
ATOM     16  C   UNL     1       2.296   6.501  19.677  0.00  0.00    +0.000 A 
ATOM     17  O   UNL     1       1.862   7.094  20.801  0.00  0.00    +0.000 OA
ATOM     18  C   UNL     1       1.523   8.361  20.495  0.00  0.00    +0.000 A 
ATOM     19  C   UNL     1       0.974   9.415  21.262  0.00  0.00    +0.000 A 
ATOM     20  C   UNL     1       0.568   9.250  22.684  0.00  0.00    +0.000 C 
ATOM     21  N   UNL     1       0.747  10.626  20.642  0.00  0.00    +0.000 NA
ENDBRANCH   1  16
BRANCH   8  22
ATOM     22  N   UNL     1       5.113   5.824  19.150  0.00  0.00    +0.000 N 
ATOM     23  H   UNL     1       5.214   6.342  20.041  0.00  0.00    +0.000 HD
BRANCH  22  24
ATOM     24  C   UNL     1       5.524   6.506  17.929  0.00  0.00    +0.000 C 
ATOM     25  C   UNL     1       4.808   5.975  16.647  0.00  0.00    +0.000 C 
ATOM     26  C   UNL     1       5.802   5.041  15.917  0.00  0.00    +0.000 C 
ATOM     27  C   UNL     1       6.926   4.802  16.913  0.00  0.00    +0.000 C 
ATOM     28  C   UNL     1       7.014   6.168  17.640  0.00  0.00    +0.000 C 
BRANCH  27  29
ATOM     29  O   UNL     1       8.122   4.477  16.245  0.00  0.00    +0.000 OA
ATOM     30  H   UNL     1       8.771   4.166  16.926  0.00  0.00    +0.000 HD
ENDBRANCH  27  29
BRANCH  28  31
ATOM     31  O   UNL     1       7.586   7.101  16.760  0.00  0.00    +0.000 OA
ATOM     32  H   UNL     1       7.553   6.735  15.840  0.00  0.00    +0.000 HD
ENDBRANCH  28  31
BRANCH  26  33
ATOM     33  C   UNL     1       5.143   3.778  15.313  0.00  0.00    +0.000 C 
BRANCH  33  34
ATOM     34  O   UNL     1       5.594   2.595  15.920  0.00  0.00    +0.000 OA
ATOM     35  H   UNL     1       5.575   2.734  16.900  0.00  0.00    +0.000 HD
ENDBRANCH  33  34
ENDBRANCH  26  33
ENDBRANCH  22  24
ENDBRANCH   8  22
TORSDOF 7
ENDMDL
MODEL 9
REMARK VINA RESULT:      -8.4      3.015      4.794
REMARK  Name = 
REMARK  9 active torsions:
REMARK  status: ('A' for Active; 'I' for Inactive)
REMARK    1  A    between atoms: C_1  and  C_2
REMARK    2  A    between atoms: C_6  and  C_7
REMARK    3  A    between atoms: C_14  and  N_15
REMARK    4  A    between atoms: N_15  and  C_16
REMARK    5  A    between atoms: C_18  and  C_19
REMARK    6  A    between atoms: C_19  and  O_20
REMARK    7  A    between atoms: C_21  and  O_22
REMARK    8  A    between atoms: C_23  and  O_24
REMARK    9  A    between atoms: C_27  and  C_28
REMARK                            x       y       z     vdW  Elec       q    Type
REMARK                         _______ _______ _______ _____ _____    ______ ____
ROOT
ATOM      1  C   UNL     1       4.274   6.042  17.419  0.00  0.00    +0.000 A 
ATOM      2  C   UNL     1       5.577   6.446  16.977  0.00  0.00    +0.000 A 
ATOM      3 CL   UNL     1       6.175   8.070  17.222  0.00  0.00    +0.000 Cl
ATOM      4  N   UNL     1       6.383   5.575  16.281  0.00  0.00    +0.000 NA
ATOM      5  C   UNL     1       5.983   4.310  15.982  0.00  0.00    +0.000 A 
ATOM      6  N   UNL     1       6.821   3.374  15.317  0.00  0.00    +0.000 N 
ATOM      7  N   UNL     1       4.748   3.928  16.320  0.00  0.00    +0.000 NA
ATOM      8  C   UNL     1       3.905   4.733  17.008  0.00  0.00    +0.000 A 
ATOM      9  H   UNL     1       7.785   3.619  15.028  0.00  0.00    +0.000 HD
ATOM     10  H   UNL     1       6.495   2.411  15.163  0.00  0.00    +0.000 HD
ENDROOT
BRANCH   1  16
ATOM     11  C   UNL     1      -0.338   8.792  22.603  0.00  0.00    +0.000 C 
ATOM     12  C   UNL     1       0.469   8.695  21.327  0.00  0.00    +0.000 A 
ATOM     13  C   UNL     1       1.263   7.571  21.106  0.00  0.00    +0.000 A 
ATOM     14  C   UNL     1       1.973   7.520  19.921  0.00  0.00    +0.000 A 
ATOM     15  C   UNL     1       2.802   6.568  19.517  0.00  0.00    +0.000 A 
ATOM     16  C   UNL     1       3.282   6.909  18.240  0.00  0.00    +0.000 A 
ATOM     17  O   UNL     1       2.737   8.098  17.936  0.00  0.00    +0.000 OA
ATOM     18  C   UNL     1       1.949   8.466  18.964  0.00  0.00    +0.000 A 
ATOM     19  C   UNL     1       1.175   9.625  19.208  0.00  0.00    +0.000 A 
ATOM     20  C   UNL     1       1.163  10.794  18.286  0.00  0.00    +0.000 C 
ATOM     21  N   UNL     1       0.454   9.696  20.382  0.00  0.00    +0.000 NA
ENDBRANCH   1  16
BRANCH   8  22
ATOM     22  N   UNL     1       2.632   4.205  17.269  0.00  0.00    +0.000 N 
ATOM     23  H   UNL     1       1.933   4.903  17.580  0.00  0.00    +0.000 HD
BRANCH  22  24
ATOM     24  C   UNL     1       2.395   2.814  17.633  0.00  0.00    +0.000 C 
ATOM     25  C   UNL     1       1.283   2.633  18.714  0.00  0.00    +0.000 C 
ATOM     26  C   UNL     1       1.990   2.390  20.067  0.00  0.00    +0.000 C 
ATOM     27  C   UNL     1       3.451   2.736  19.820  0.00  0.00    +0.000 C 
ATOM     28  C   UNL     1       3.654   2.261  18.358  0.00  0.00    +0.000 C 
BRANCH  27  29
ATOM     29  O   UNL     1       4.284   2.049  20.723  0.00  0.00    +0.000 OA
ATOM     30  H   UNL     1       5.004   2.672  20.999  0.00  0.00    +0.000 HD
ENDBRANCH  27  29
BRANCH  28  31
ATOM     31  O   UNL     1       3.672   0.856  18.348  0.00  0.00    +0.000 OA
ATOM     32  H   UNL     1       4.607   0.550  18.228  0.00  0.00    +0.000 HD
ENDBRANCH  28  31
BRANCH  26  33
ATOM     33  C   UNL     1       1.312   3.101  21.263  0.00  0.00    +0.000 C 
BRANCH  33  34
ATOM     34  O   UNL     1       2.156   3.192  22.382  0.00  0.00    +0.000 OA
ATOM     35  H   UNL     1       1.638   3.606  23.116  0.00  0.00    +0.000 HD
ENDBRANCH  33  34
ENDBRANCH  26  33
ENDBRANCH  22  24
ENDBRANCH   8  22
TORSDOF 7
ENDMDL
