MODEL 1
REMARK VINA RESULT:      -7.0      0.000      0.000
REMARK  Name = 
REMARK  7 active torsions:
REMARK  status: ('A' for Active; 'I' for Inactive)
REMARK    1  A    between atoms: C_1  and  O_2
REMARK    2  A    between atoms: O_2  and  N_3
REMARK    3  A    between atoms: C_13  and  S_14
REMARK    4  A    between atoms: S_14  and  C_15
REMARK    5  A    between atoms: C_17  and  N_18
REMARK    6  A    between atoms: N_18  and  C_19
REMARK    7  A    between atoms: C_22  and  C_23
REMARK                            x       y       z     vdW  Elec       q    Type
REMARK                         _______ _______ _______ _____ _____    ______ ____
ROOT
ATOM      1  N   UNL     1       2.035   5.440  18.959  0.00  0.00    +0.000 N 
ATOM      2  C   UNL     1       2.449   4.152  18.574  0.00  0.00    +0.000 A 
ATOM      3  C   UNL     1       1.696   2.997  18.682  0.00  0.00    +0.000 A 
ATOM      4  C   UNL     1       2.192   1.813  18.130  0.00  0.00    +0.000 A 
ATOM      5  C   UNL     1       3.436   1.801  17.485  0.00  0.00    +0.000 A 
ATOM      6  C   UNL     1       4.209   2.961  17.417  0.00  0.00    +0.000 A 
ATOM      7  C   UNL     1       3.707   4.136  17.976  0.00  0.00    +0.000 A 
ATOM      8  C   UNL     1       4.330   5.506  18.063  0.00  0.00    +0.000 C 
ATOM      9  C   UNL     1       4.752   6.051  16.691  0.00  0.00    +0.000 C 
ATOM     10  N   UNL     1       5.976   6.879  16.787  0.00  0.00    +0.000 NA
ATOM     11  C   UNL     1       6.609   6.599  17.873  0.00  0.00    +0.000 C 
ATOM     12  S   UNL     1       5.915   5.452  18.973  0.00  0.00    +0.000 S 
ATOM     13  C   UNL     1       3.226   6.316  18.873  0.00  0.00    +0.000 C 
ENDROOT
BRANCH   1  15
ATOM     14  C   UNL     1       2.022   5.041  21.187  0.00  0.00    +0.000 C 
ATOM     15  O   UNL     1       1.263   5.596  20.115  0.00  0.00    +0.000 OA
ENDBRANCH   1  15
BRANCH  11  16
ATOM     16  S   UNL     1       8.143   7.278  18.306  0.00  0.00    +0.000 S 
ATOM     17  C   UNL     1       7.912   8.985  17.773  0.00  0.00    +0.000 C 
ENDBRANCH  11  16
BRANCH  13  18
ATOM     18  N   UNL     1       2.750   7.537  18.240  0.00  0.00    +0.000 N 
ATOM     19  H   UNL     1       3.418   7.917  17.582  0.00  0.00    +0.000 HD
BRANCH  18  20
ATOM     20  C   UNL     1       1.860   8.424  18.810  0.00  0.00    +0.000 A 
ATOM     21  C   UNL     1       1.057   9.206  17.972  0.00  0.00    +0.000 A 
ATOM     22  C   UNL     1       0.190  10.174  18.487  0.00  0.00    +0.000 A 
ATOM     23  C   UNL     1       0.098  10.370  19.865  0.00  0.00    +0.000 A 
ATOM     24  C   UNL     1      -0.764  11.459  20.429  0.00  0.00    +0.000 C 
ATOM     25  C   UNL     1       0.808   9.517  20.713  0.00  0.00    +0.000 A 
ATOM     26  C   UNL     1       1.683   8.559  20.188  0.00  0.00    +0.000 A 
ENDBRANCH  18  20
ENDBRANCH  13  18
TORSDOF 4
ENDMDL
MODEL 2
REMARK VINA RESULT:      -6.8      4.654      7.191
REMARK  Name = 
REMARK  7 active torsions:
REMARK  status: ('A' for Active; 'I' for Inactive)
REMARK    1  A    between atoms: C_1  and  O_2
REMARK    2  A    between atoms: O_2  and  N_3
REMARK    3  A    between atoms: C_13  and  S_14
REMARK    4  A    between atoms: S_14  and  C_15
REMARK    5  A    between atoms: C_17  and  N_18
REMARK    6  A    between atoms: N_18  and  C_19
REMARK    7  A    between atoms: C_22  and  C_23
REMARK                            x       y       z     vdW  Elec       q    Type
REMARK                         _______ _______ _______ _____ _____    ______ ____
ROOT
ATOM      1  N   UNL     1       0.434   9.991  21.338  0.00  0.00    +0.000 N 
ATOM      2  C   UNL     1       1.141   9.470  20.240  0.00  0.00    +0.000 A 
ATOM      3  C   UNL     1       1.660   8.191  20.148  0.00  0.00    +0.000 A 
ATOM      4  C   UNL     1       2.219   7.774  18.937  0.00  0.00    +0.000 A 
ATOM      5  C   UNL     1       2.258   8.644  17.840  0.00  0.00    +0.000 A 
ATOM      6  C   UNL     1       1.772   9.948  17.953  0.00  0.00    +0.000 A 
ATOM      7  C   UNL     1       1.221  10.356  19.168  0.00  0.00    +0.000 A 
ATOM      8  C   UNL     1       0.650  11.692  19.568  0.00  0.00    +0.000 C 
ATOM      9  C   UNL     1      -0.465  12.165  18.624  0.00  0.00    +0.000 C 
ATOM     10  N   UNL     1      -0.461  13.638  18.472  0.00  0.00    +0.000 NA
ATOM     11  C   UNL     1       0.690  14.108  18.804  0.00  0.00    +0.000 C 
ATOM     12  S   UNL     1       1.899  13.018  19.401  0.00  0.00    +0.000 S 
ATOM     13  C   UNL     1       0.273  11.443  21.093  0.00  0.00    +0.000 C 
ENDROOT
BRANCH   1  15
ATOM     14  C   UNL     1      -0.357   9.265  23.331  0.00  0.00    +0.000 C 
ATOM     15  O   UNL     1       0.828   9.647  22.635  0.00  0.00    +0.000 OA
ENDBRANCH   1  15
BRANCH  11  16
ATOM     16  S   UNL     1       1.134  15.778  18.666  0.00  0.00    +0.000 S 
ATOM     17  C   UNL     1       2.859  15.622  18.163  0.00  0.00    +0.000 C 
ENDBRANCH  11  16
BRANCH  13  18
ATOM     18  N   UNL     1      -1.107  11.734  21.456  0.00  0.00    +0.000 N 
ATOM     19  H   UNL     1      -1.750  11.576  20.691  0.00  0.00    +0.000 HD
BRANCH  18  20
ATOM     20  C   UNL     1      -1.493  12.645  22.418  0.00  0.00    +0.000 A 
ATOM     21  C   UNL     1      -2.699  12.438  23.097  0.00  0.00    +0.000 A 
ATOM     22  C   UNL     1      -3.180  13.363  24.028  0.00  0.00    +0.000 A 
ATOM     23  C   UNL     1      -2.448  14.515  24.313  0.00  0.00    +0.000 A 
ATOM     24  C   UNL     1      -2.988  15.556  25.247  0.00  0.00    +0.000 C 
ATOM     25  C   UNL     1      -1.189  14.672  23.728  0.00  0.00    +0.000 A 
ATOM     26  C   UNL     1      -0.722  13.748  22.787  0.00  0.00    +0.000 A 
ENDBRANCH  18  20
ENDBRANCH  13  18
TORSDOF 4
ENDMDL
MODEL 3
REMARK VINA RESULT:      -6.8      4.666      9.111
REMARK  Name = 
REMARK  7 active torsions:
REMARK  status: ('A' for Active; 'I' for Inactive)
REMARK    1  A    between atoms: C_1  and  O_2
REMARK    2  A    between atoms: O_2  and  N_3
REMARK    3  A    between atoms: C_13  and  S_14
REMARK    4  A    between atoms: S_14  and  C_15
REMARK    5  A    between atoms: C_17  and  N_18
REMARK    6  A    between atoms: N_18  and  C_19
REMARK    7  A    between atoms: C_22  and  C_23
REMARK                            x       y       z     vdW  Elec       q    Type
REMARK                         _______ _______ _______ _____ _____    ______ ____
ROOT
ATOM      1  N   UNL     1      -0.159  11.909  22.040  0.00  0.00    +0.000 N 
ATOM      2  C   UNL     1      -1.053  12.983  22.199  0.00  0.00    +0.000 A 
ATOM      3  C   UNL     1      -1.286  13.672  23.375  0.00  0.00    +0.000 A 
ATOM      4  C   UNL     1      -2.102  14.806  23.344  0.00  0.00    +0.000 A 
ATOM      5  C   UNL     1      -2.679  15.228  22.140  0.00  0.00    +0.000 A 
ATOM      6  C   UNL     1      -2.475  14.503  20.965  0.00  0.00    +0.000 A 
ATOM      7  C   UNL     1      -1.663  13.370  21.007  0.00  0.00    +0.000 A 
ATOM      8  C   UNL     1      -1.296  12.404  19.910  0.00  0.00    +0.000 C 
ATOM      9  C   UNL     1      -0.675  13.103  18.692  0.00  0.00    +0.000 C 
ATOM     10  N   UNL     1      -1.045  12.425  17.428  0.00  0.00    +0.000 NA
ATOM     11  C   UNL     1      -2.100  11.711  17.609  0.00  0.00    +0.000 C 
ATOM     12  S   UNL     1      -2.786  11.618  19.198  0.00  0.00    +0.000 S 
ATOM     13  C   UNL     1      -0.402  11.346  20.692  0.00  0.00    +0.000 C 
ENDROOT
BRANCH   1  15
ATOM     14  C   UNL     1      -1.085  10.023  22.883  0.00  0.00    +0.000 C 
ATOM     15  O   UNL     1      -0.030  10.966  23.065  0.00  0.00    +0.000 OA
ENDBRANCH   1  15
BRANCH  11  16
ATOM     16  S   UNL     1      -2.913  10.843  16.348  0.00  0.00    +0.000 S 
ATOM     17  C   UNL     1      -4.609  11.399  16.603  0.00  0.00    +0.000 C 
ENDBRANCH  11  16
BRANCH  13  18
ATOM     18  N   UNL     1       0.924  11.110  20.139  0.00  0.00    +0.000 N 
ATOM     19  H   UNL     1       1.348  11.955  19.778  0.00  0.00    +0.000 HD
BRANCH  18  20
ATOM     20  C   UNL     1       1.349   9.916  19.593  0.00  0.00    +0.000 A 
ATOM     21  C   UNL     1       1.454   8.795  20.425  0.00  0.00    +0.000 A 
ATOM     22  C   UNL     1       1.947   7.577  19.949  0.00  0.00    +0.000 A 
ATOM     23  C   UNL     1       2.334   7.451  18.615  0.00  0.00    +0.000 A 
ATOM     24  C   UNL     1       2.943   6.178  18.110  0.00  0.00    +0.000 C 
ATOM     25  C   UNL     1       2.124   8.529  17.751  0.00  0.00    +0.000 A 
ATOM     26  C   UNL     1       1.642   9.748  18.239  0.00  0.00    +0.000 A 
ENDBRANCH  18  20
ENDBRANCH  13  18
TORSDOF 4
ENDMDL
MODEL 4
REMARK VINA RESULT:      -6.5      6.912      9.940
REMARK  Name = 
REMARK  7 active torsions:
REMARK  status: ('A' for Active; 'I' for Inactive)
REMARK    1  A    between atoms: C_1  and  O_2
REMARK    2  A    between atoms: O_2  and  N_3
REMARK    3  A    between atoms: C_13  and  S_14
REMARK    4  A    between atoms: S_14  and  C_15
REMARK    5  A    between atoms: C_17  and  N_18
REMARK    6  A    between atoms: N_18  and  C_19
REMARK    7  A    between atoms: C_22  and  C_23
REMARK                            x       y       z     vdW  Elec       q    Type
REMARK                         _______ _______ _______ _____ _____    ______ ____
ROOT
ATOM      1  N   UNL     1       0.277  12.557  20.324  0.00  0.00    +0.000 N 
ATOM      2  C   UNL     1       0.087  11.405  21.109  0.00  0.00    +0.000 A 
ATOM      3  C   UNL     1       0.716  10.187  20.923  0.00  0.00    +0.000 A 
ATOM      4  C   UNL     1       0.525   9.176  21.868  0.00  0.00    +0.000 A 
ATOM      5  C   UNL     1      -0.297   9.395  22.980  0.00  0.00    +0.000 A 
ATOM      6  C   UNL     1      -0.963  10.611  23.140  0.00  0.00    +0.000 A 
ATOM      7  C   UNL     1      -0.771  11.612  22.188  0.00  0.00    +0.000 A 
ATOM      8  C   UNL     1      -1.373  12.992  22.102  0.00  0.00    +0.000 C 
ATOM      9  C   UNL     1      -1.138  13.818  23.375  0.00  0.00    +0.000 C 
ATOM     10  N   UNL     1      -2.279  14.719  23.657  0.00  0.00    +0.000 NA
ATOM     11  C   UNL     1      -3.329  14.298  23.044  0.00  0.00    +0.000 C 
ATOM     12  S   UNL     1      -3.198  12.909  22.015  0.00  0.00    +0.000 S 
ATOM     13  C   UNL     1      -0.753  13.535  20.742  0.00  0.00    +0.000 C 
ENDROOT
BRANCH   1  15
ATOM     14  C   UNL     1      -0.859  12.396  18.373  0.00  0.00    +0.000 C 
ATOM     15  O   UNL     1       0.449  12.425  18.943  0.00  0.00    +0.000 OA
ENDBRANCH   1  15
BRANCH  11  16
ATOM     16  S   UNL     1      -4.898  15.018  23.200  0.00  0.00    +0.000 S 
ATOM     17  C   UNL     1      -5.670  14.464  21.667  0.00  0.00    +0.000 C 
ENDBRANCH  11  16
BRANCH  13  18
ATOM     18  N   UNL     1      -0.048  14.806  20.834  0.00  0.00    +0.000 N 
ATOM     19  H   UNL     1      -0.085  15.202  21.764  0.00  0.00    +0.000 HD
BRANCH  18  20
ATOM     20  C   UNL     1       0.125  15.687  19.786  0.00  0.00    +0.000 A 
ATOM     21  C   UNL     1       1.417  15.892  19.287  0.00  0.00    +0.000 A 
ATOM     22  C   UNL     1       1.668  16.826  18.276  0.00  0.00    +0.000 A 
ATOM     23  C   UNL     1       0.619  17.567  17.731  0.00  0.00    +0.000 A 
ATOM     24  C   UNL     1       0.883  18.630  16.707  0.00  0.00    +0.000 C 
ATOM     25  C   UNL     1      -0.686  17.285  18.141  0.00  0.00    +0.000 A 
ATOM     26  C   UNL     1      -0.926  16.359  19.162  0.00  0.00    +0.000 A 
ENDBRANCH  18  20
ENDBRANCH  13  18
TORSDOF 4
ENDMDL
MODEL 5
REMARK VINA RESULT:      -6.5      6.957      9.997
REMARK  Name = 
REMARK  7 active torsions:
REMARK  status: ('A' for Active; 'I' for Inactive)
REMARK    1  A    between atoms: C_1  and  O_2
REMARK    2  A    between atoms: O_2  and  N_3
REMARK    3  A    between atoms: C_13  and  S_14
REMARK    4  A    between atoms: S_14  and  C_15
REMARK    5  A    between atoms: C_17  and  N_18
REMARK    6  A    between atoms: N_18  and  C_19
REMARK    7  A    between atoms: C_22  and  C_23
REMARK                            x       y       z     vdW  Elec       q    Type
REMARK                         _______ _______ _______ _____ _____    ______ ____
ROOT
ATOM      1  N   UNL     1       0.343  12.640  20.375  0.00  0.00    +0.000 N 
ATOM      2  C   UNL     1       0.096  11.478  21.128  0.00  0.00    +0.000 A 
ATOM      3  C   UNL     1       0.695  10.246  20.931  0.00  0.00    +0.000 A 
ATOM      4  C   UNL     1       0.448   9.221  21.847  0.00  0.00    +0.000 A 
ATOM      5  C   UNL     1      -0.399   9.440  22.942  0.00  0.00    +0.000 A 
ATOM      6  C   UNL     1      -1.033  10.672  23.110  0.00  0.00    +0.000 A 
ATOM      7  C   UNL     1      -0.784  11.687  22.187  0.00  0.00    +0.000 A 
ATOM      8  C   UNL     1      -1.343  13.086  22.116  0.00  0.00    +0.000 C 
ATOM      9  C   UNL     1      -1.119  13.877  23.413  0.00  0.00    +0.000 C 
ATOM     10  N   UNL     1      -2.241  14.805  23.684  0.00  0.00    +0.000 NA
ATOM     11  C   UNL     1      -3.286  14.430  23.034  0.00  0.00    +0.000 C 
ATOM     12  S   UNL     1      -3.166  13.060  21.977  0.00  0.00    +0.000 S 
ATOM     13  C   UNL     1      -0.669  13.639  20.786  0.00  0.00    +0.000 C 
ENDROOT
BRANCH   1  15
ATOM     14  C   UNL     1      -0.742  12.553  18.390  0.00  0.00    +0.000 C 
ATOM     15  O   UNL     1       0.549  12.534  18.995  0.00  0.00    +0.000 OA
ENDBRANCH   1  15
BRANCH  11  16
ATOM     16  S   UNL     1      -4.836  15.192  23.163  0.00  0.00    +0.000 S 
ATOM     17  C   UNL     1      -4.495  16.774  22.366  0.00  0.00    +0.000 C 
ENDBRANCH  11  16
BRANCH  13  18
ATOM     18  N   UNL     1       0.069  14.886  20.926  0.00  0.00    +0.000 N 
ATOM     19  H   UNL     1       0.067  15.233  21.877  0.00  0.00    +0.000 HD
BRANCH  18  20
ATOM     20  C   UNL     1       0.239  15.818  19.922  0.00  0.00    +0.000 A 
ATOM     21  C   UNL     1      -0.896  16.360  19.308  0.00  0.00    +0.000 A 
ATOM     22  C   UNL     1      -0.790  17.252  18.237  0.00  0.00    +0.000 A 
ATOM     23  C   UNL     1       0.466  17.634  17.765  0.00  0.00    +0.000 A 
ATOM     24  C   UNL     1       0.596  18.523  16.565  0.00  0.00    +0.000 C 
ATOM     25  C   UNL     1       1.602  17.190  18.446  0.00  0.00    +0.000 A 
ATOM     26  C   UNL     1       1.486  16.287  19.509  0.00  0.00    +0.000 A 
ENDBRANCH  18  20
ENDBRANCH  13  18
TORSDOF 4
ENDMDL
MODEL 6
REMARK VINA RESULT:      -6.5      4.480      8.727
REMARK  Name = 
REMARK  7 active torsions:
REMARK  status: ('A' for Active; 'I' for Inactive)
REMARK    1  A    between atoms: C_1  and  O_2
REMARK    2  A    between atoms: O_2  and  N_3
REMARK    3  A    between atoms: C_13  and  S_14
REMARK    4  A    between atoms: S_14  and  C_15
REMARK    5  A    between atoms: C_17  and  N_18
REMARK    6  A    between atoms: N_18  and  C_19
REMARK    7  A    between atoms: C_22  and  C_23
REMARK                            x       y       z     vdW  Elec       q    Type
REMARK                         _______ _______ _______ _____ _____    ______ ____
ROOT
ATOM      1  N   UNL     1      -1.896  11.239  19.521  0.00  0.00    +0.000 N 
ATOM      2  C   UNL     1      -2.717  12.329  19.859  0.00  0.00    +0.000 A 
ATOM      3  C   UNL     1      -4.097  12.360  19.768  0.00  0.00    +0.000 A 
ATOM      4  C   UNL     1      -4.783  13.469  20.271  0.00  0.00    +0.000 A 
ATOM      5  C   UNL     1      -4.079  14.533  20.849  0.00  0.00    +0.000 A 
ATOM      6  C   UNL     1      -2.684  14.514  20.899  0.00  0.00    +0.000 A 
ATOM      7  C   UNL     1      -2.008  13.406  20.390  0.00  0.00    +0.000 A 
ATOM      8  C   UNL     1      -0.528  13.136  20.297  0.00  0.00    +0.000 C 
ATOM      9  C   UNL     1       0.179  13.248  21.655  0.00  0.00    +0.000 C 
ATOM     10  N   UNL     1       1.554  13.779  21.511  0.00  0.00    +0.000 NA
ATOM     11  C   UNL     1       1.667  14.400  20.389  0.00  0.00    +0.000 C 
ATOM     12  S   UNL     1       0.314  14.421  19.305  0.00  0.00    +0.000 S 
ATOM     13  C   UNL     1      -0.498  11.726  19.561  0.00  0.00    +0.000 C 
ENDROOT
BRANCH   1  15
ATOM     14  C   UNL     1      -1.961  11.253  17.258  0.00  0.00    +0.000 C 
ATOM     15  O   UNL     1      -2.221  10.453  18.410  0.00  0.00    +0.000 OA
ENDBRANCH   1  15
BRANCH  11  16
ATOM     16  S   UNL     1       3.090  15.253  19.890  0.00  0.00    +0.000 S 
ATOM     17  C   UNL     1       4.248  14.749  21.177  0.00  0.00    +0.000 C 
ENDBRANCH  11  16
BRANCH  13  18
ATOM     18  N   UNL     1       0.246  10.676  20.242  0.00  0.00    +0.000 N 
ATOM     19  H   UNL     1       0.578  10.966  21.153  0.00  0.00    +0.000 HD
BRANCH  18  20
ATOM     20  C   UNL     1       0.954   9.676  19.608  0.00  0.00    +0.000 A 
ATOM     21  C   UNL     1       1.304   8.533  20.337  0.00  0.00    +0.000 A 
ATOM     22  C   UNL     1       2.083   7.518  19.772  0.00  0.00    +0.000 A 
ATOM     23  C   UNL     1       2.518   7.621  18.451  0.00  0.00    +0.000 A 
ATOM     24  C   UNL     1       3.423   6.583  17.858  0.00  0.00    +0.000 C 
ATOM     25  C   UNL     1       2.077   8.701  17.682  0.00  0.00    +0.000 A 
ATOM     26  C   UNL     1       1.308   9.718  18.258  0.00  0.00    +0.000 A 
ENDBRANCH  18  20
ENDBRANCH  13  18
TORSDOF 4
ENDMDL
MODEL 7
REMARK VINA RESULT:      -6.5      6.619      9.639
REMARK  Name = 
REMARK  7 active torsions:
REMARK  status: ('A' for Active; 'I' for Inactive)
REMARK    1  A    between atoms: C_1  and  O_2
REMARK    2  A    between atoms: O_2  and  N_3
REMARK    3  A    between atoms: C_13  and  S_14
REMARK    4  A    between atoms: S_14  and  C_15
REMARK    5  A    between atoms: C_17  and  N_18
REMARK    6  A    between atoms: N_18  and  C_19
REMARK    7  A    between atoms: C_22  and  C_23
REMARK                            x       y       z     vdW  Elec       q    Type
REMARK                         _______ _______ _______ _____ _____    ______ ____
ROOT
ATOM      1  N   UNL     1       0.744  12.231  20.005  0.00  0.00    +0.000 N 
ATOM      2  C   UNL     1       0.334  11.193  20.861  0.00  0.00    +0.000 A 
ATOM      3  C   UNL     1       0.794   9.888  20.827  0.00  0.00    +0.000 A 
ATOM      4  C   UNL     1       0.393   9.004  21.831  0.00  0.00    +0.000 A 
ATOM      5  C   UNL     1      -0.468   9.434  22.849  0.00  0.00    +0.000 A 
ATOM      6  C   UNL     1      -0.962  10.739  22.854  0.00  0.00    +0.000 A 
ATOM      7  C   UNL     1      -0.560  11.613  21.844  0.00  0.00    +0.000 A 
ATOM      8  C   UNL     1      -0.950  13.048  21.597  0.00  0.00    +0.000 C 
ATOM      9  C   UNL     1      -0.691  13.948  22.814  0.00  0.00    +0.000 C 
ATOM     10  N   UNL     1      -1.708  15.019  22.925  0.00  0.00    +0.000 NA
ATOM     11  C   UNL     1      -2.761  14.691  22.262  0.00  0.00    +0.000 C 
ATOM     12  S   UNL     1      -2.757  13.209  21.363  0.00  0.00    +0.000 S 
ATOM     13  C   UNL     1      -0.162  13.374  20.254  0.00  0.00    +0.000 C 
ENDROOT
BRANCH   1  15
ATOM     14  C   UNL     1       2.359  12.287  18.420  0.00  0.00    +0.000 C 
ATOM     15  O   UNL     1       0.994  11.951  18.657  0.00  0.00    +0.000 OA
ENDBRANCH   1  15
BRANCH  11  16
ATOM     16  S   UNL     1      -4.218  15.629  22.227  0.00  0.00    +0.000 S 
ATOM     17  C   UNL     1      -5.029  14.928  20.777  0.00  0.00    +0.000 C 
ENDBRANCH  11  16
BRANCH  13  18
ATOM     18  N   UNL     1       0.709  14.540  20.302  0.00  0.00    +0.000 N 
ATOM     19  H   UNL     1       1.004  14.764  21.244  0.00  0.00    +0.000 HD
BRANCH  18  20
ATOM     20  C   UNL     1       0.688  15.576  19.391  0.00  0.00    +0.000 A 
ATOM     21  C   UNL     1      -0.544  16.146  19.048  0.00  0.00    +0.000 A 
ATOM     22  C   UNL     1      -0.638  17.149  18.078  0.00  0.00    +0.000 A 
ATOM     23  C   UNL     1       0.510  17.615  17.438  0.00  0.00    +0.000 A 
ATOM     24  C   UNL     1       0.417  18.629  16.337  0.00  0.00    +0.000 C 
ATOM     25  C   UNL     1       1.753  17.135  17.856  0.00  0.00    +0.000 A 
ATOM     26  C   UNL     1       1.837  16.123  18.819  0.00  0.00    +0.000 A 
ENDBRANCH  18  20
ENDBRANCH  13  18
TORSDOF 4
ENDMDL
MODEL 8
REMARK VINA RESULT:      -6.4      5.104      9.596
REMARK  Name = 
REMARK  7 active torsions:
REMARK  status: ('A' for Active; 'I' for Inactive)
REMARK    1  A    between atoms: C_1  and  O_2
REMARK    2  A    between atoms: O_2  and  N_3
REMARK    3  A    between atoms: C_13  and  S_14
REMARK    4  A    between atoms: S_14  and  C_15
REMARK    5  A    between atoms: C_17  and  N_18
REMARK    6  A    between atoms: N_18  and  C_19
REMARK    7  A    between atoms: C_22  and  C_23
REMARK                            x       y       z     vdW  Elec       q    Type
REMARK                         _______ _______ _______ _____ _____    ______ ____
ROOT
ATOM      1  N   UNL     1       1.852  13.938  18.458  0.00  0.00    +0.000 N 
ATOM      2  C   UNL     1       1.312  15.200  18.768  0.00  0.00    +0.000 A 
ATOM      3  C   UNL     1       1.790  16.416  18.315  0.00  0.00    +0.000 A 
ATOM      4  C   UNL     1       1.064  17.576  18.599  0.00  0.00    +0.000 A 
ATOM      5  C   UNL     1      -0.124  17.503  19.338  0.00  0.00    +0.000 A 
ATOM      6  C   UNL     1      -0.578  16.277  19.828  0.00  0.00    +0.000 A 
ATOM      7  C   UNL     1       0.157  15.127  19.544  0.00  0.00    +0.000 A 
ATOM      8  C   UNL     1      -0.087  13.698  19.960  0.00  0.00    +0.000 C 
ATOM      9  C   UNL     1      -1.485  13.199  19.564  0.00  0.00    +0.000 C 
ATOM     10  N   UNL     1      -2.025  12.247  20.562  0.00  0.00    +0.000 NA
ATOM     11  C   UNL     1      -1.413  12.396  21.684  0.00  0.00    +0.000 C 
ATOM     12  S   UNL     1      -0.111  13.537  21.781  0.00  0.00    +0.000 S 
ATOM     13  C   UNL     1       1.170  12.955  19.330  0.00  0.00    +0.000 C 
ENDROOT
BRANCH   1  15
ATOM     14  C   UNL     1       3.769  14.105  19.650  0.00  0.00    +0.000 C 
ATOM     15  O   UNL     1       3.239  13.790  18.364  0.00  0.00    +0.000 OA
ENDBRANCH   1  15
BRANCH  11  16
ATOM     16  S   UNL     1      -1.822  11.542  23.135  0.00  0.00    +0.000 S 
ATOM     17  C   UNL     1      -0.627  10.193  23.074  0.00  0.00    +0.000 C 
ENDBRANCH  11  16
BRANCH  13  18
ATOM     18  N   UNL     1       0.866  11.828  18.460  0.00  0.00    +0.000 N 
ATOM     19  H   UNL     1       0.027  11.978  17.913  0.00  0.00    +0.000 HD
BRANCH  18  20
ATOM     20  C   UNL     1       1.221  10.519  18.712  0.00  0.00    +0.000 A 
ATOM     21  C   UNL     1       0.848   9.944  19.933  0.00  0.00    +0.000 A 
ATOM     22  C   UNL     1       1.241   8.647  20.278  0.00  0.00    +0.000 A 
ATOM     23  C   UNL     1       2.009   7.889  19.394  0.00  0.00    +0.000 A 
ATOM     24  C   UNL     1       2.508   6.530  19.783  0.00  0.00    +0.000 C 
ATOM     25  C   UNL     1       2.287   8.411  18.129  0.00  0.00    +0.000 A 
ATOM     26  C   UNL     1       1.901   9.715  17.797  0.00  0.00    +0.000 A 
ENDBRANCH  18  20
ENDBRANCH  13  18
TORSDOF 4
ENDMDL
MODEL 9
REMARK VINA RESULT:      -6.4      5.114      9.640
REMARK  Name = 
REMARK  7 active torsions:
REMARK  status: ('A' for Active; 'I' for Inactive)
REMARK    1  A    between atoms: C_1  and  O_2
REMARK    2  A    between atoms: O_2  and  N_3
REMARK    3  A    between atoms: C_13  and  S_14
REMARK    4  A    between atoms: S_14  and  C_15
REMARK    5  A    between atoms: C_17  and  N_18
REMARK    6  A    between atoms: N_18  and  C_19
REMARK    7  A    between atoms: C_22  and  C_23
REMARK                            x       y       z     vdW  Elec       q    Type
REMARK                         _______ _______ _______ _____ _____    ______ ____
ROOT
ATOM      1  N   UNL     1       1.558  14.049  18.456  0.00  0.00    +0.000 N 
ATOM      2  C   UNL     1       0.924  15.271  18.741  0.00  0.00    +0.000 A 
ATOM      3  C   UNL     1       1.300  16.509  18.252  0.00  0.00    +0.000 A 
ATOM      4  C   UNL     1       0.488  17.615  18.516  0.00  0.00    +0.000 A 
ATOM      5  C   UNL     1      -0.683  17.468  19.271  0.00  0.00    +0.000 A 
ATOM      6  C   UNL     1      -1.034  16.224  19.797  0.00  0.00    +0.000 A 
ATOM      7  C   UNL     1      -0.214  15.128  19.533  0.00  0.00    +0.000 A 
ATOM      8  C   UNL     1      -0.341  13.695  19.986  0.00  0.00    +0.000 C 
ATOM      9  C   UNL     1      -1.698  13.078  19.619  0.00  0.00    +0.000 C 
ATOM     10  N   UNL     1      -2.152  12.113  20.647  0.00  0.00    +0.000 NA
ATOM     11  C   UNL     1      -1.542  12.338  21.758  0.00  0.00    +0.000 C 
ATOM     12  S   UNL     1      -0.333  13.580  21.811  0.00  0.00    +0.000 S 
ATOM     13  C   UNL     1       0.965  13.038  19.361  0.00  0.00    +0.000 C 
ENDROOT
BRANCH   1  15
ATOM     14  C   UNL     1       3.463  14.053  19.680  0.00  0.00    +0.000 C 
ATOM     15  O   UNL     1       2.952  14.008  18.349  0.00  0.00    +0.000 OA
ENDBRANCH   1  15
BRANCH  11  16
ATOM     16  S   UNL     1      -1.868  11.492  23.234  0.00  0.00    +0.000 S 
ATOM     17  C   UNL     1      -0.700  10.125  23.098  0.00  0.00    +0.000 C 
ENDBRANCH  11  16
BRANCH  13  18
ATOM     18  N   UNL     1       0.742  11.868  18.522  0.00  0.00    +0.000 N 
ATOM     19  H   UNL     1      -0.102  11.945  17.969  0.00  0.00    +0.000 HD
BRANCH  18  20
ATOM     20  C   UNL     1       1.185  10.595  18.812  0.00  0.00    +0.000 A 
ATOM     21  C   UNL     1       1.962   9.919  17.864  0.00  0.00    +0.000 A 
ATOM     22  C   UNL     1       2.379   8.601  18.068  0.00  0.00    +0.000 A 
ATOM     23  C   UNL     1       2.037   7.932  19.244  0.00  0.00    +0.000 A 
ATOM     24  C   UNL     1       2.405   6.492  19.442  0.00  0.00    +0.000 C 
ATOM     25  C   UNL     1       1.362   8.635  20.244  0.00  0.00    +0.000 A 
ATOM     26  C   UNL     1       0.937   9.951  20.025  0.00  0.00    +0.000 A 
ENDBRANCH  18  20
ENDBRANCH  13  18
TORSDOF 4
ENDMDL
