MODEL 1
REMARK VINA RESULT:      -8.4      0.000      0.000
REMARK  Name = 
REMARK  5 active torsions:
REMARK  status: ('A' for Active; 'I' for Inactive)
REMARK    1  A    between atoms: C_1  and  N_2
REMARK    2  A    between atoms: C_4  and  N_5
REMARK    3  A    between atoms: C_6  and  C_8
REMARK    4  A    between atoms: C_19  and  N_20
REMARK    5  A    between atoms: C_24  and  C_25
REMARK                            x       y       z     vdW  Elec       q    Type
REMARK                         _______ _______ _______ _____ _____    ______ ____
ROOT
ATOM      1  C   UNL     1       3.321   2.943  18.157  0.00  0.00    +0.000 A 
ATOM      2  C   UNL     1       2.764   1.712  18.470  0.00  0.00    +0.000 A 
ATOM      3  N   UNL     1       1.778   1.818  19.408  0.00  0.00    +0.000 NA
ATOM      4  C   UNL     1       1.697   3.104  19.654  0.00  0.00    +0.000 A 
ATOM      5  C   UNL     1       0.830   3.800  20.504  0.00  0.00    +0.000 A 
ATOM      6  C   UNL     1       0.932   5.123  20.577  0.00  0.00    +0.000 A 
ATOM      7  C   UNL     1       1.981   5.834  19.768  0.00  0.00    +0.000 A 
ATOM      8  N   UNL     1       2.051   7.212  19.881  0.00  0.00    +0.000 N 
ATOM      9  C   UNL     1       1.681   7.932  21.099  0.00  0.00    +0.000 C 
ATOM     10  C   UNL     1       0.584   8.941  20.791  0.00  0.00    +0.000 C 
ATOM     11  C   UNL     1       1.007   9.884  19.666  0.00  0.00    +0.000 C 
ATOM     12  C   UNL     1       1.444   9.094  18.420  0.00  0.00    +0.000 C 
ATOM     13  C   UNL     1       2.543   8.063  18.791  0.00  0.00    +0.000 C 
ATOM     14  N   UNL     1       2.798   5.200  18.961  0.00  0.00    +0.000 NA
ATOM     15  N   UNL     1       2.629   3.837  18.938  0.00  0.00    +0.000 N 
ENDROOT
BRANCH   1  17
ATOM     16  N   UNL     1       4.653   4.472  16.854  0.00  0.00    +0.000 N 
ATOM     17  C   UNL     1       4.370   3.155  17.186  0.00  0.00    +0.000 C 
ATOM     18  O   UNL     1       4.985   2.197  16.740  0.00  0.00    +0.000 OA
ATOM     19  H   UNL     1       4.141   5.206  17.340  0.00  0.00    +0.000 HD
BRANCH  16  23
ATOM     20  C   UNL     1       7.537   4.938  12.904  0.00  0.00    +0.000 C 
ATOM     21  N   UNL     1       6.978   5.051  14.231  0.00  0.00    +0.000 N 
ATOM     22  C   UNL     1       5.817   4.501  14.667  0.00  0.00    +0.000 A 
ATOM     23  C   UNL     1       5.684   4.838  15.993  0.00  0.00    +0.000 A 
ATOM     24  C   UNL     1       6.842   5.628  16.270  0.00  0.00    +0.000 A 
ATOM     25  N   UNL     1       7.632   5.744  15.181  0.00  0.00    +0.000 NA
BRANCH  24  26
ATOM     26  C   UNL     1       7.259   6.231  17.571  0.00  0.00    +0.000 C 
ATOM     27  F   UNL     1       8.058   5.386  18.282  0.00  0.00    +0.000 F 
ATOM     28  F   UNL     1       7.996   7.364  17.386  0.00  0.00    +0.000 F 
ENDBRANCH  24  26
ENDBRANCH  16  23
ENDBRANCH   1  17
BRANCH  12  29
ATOM     29  N   UNL     1       1.869  10.025  17.369  0.00  0.00    +0.000 NA
ATOM     30  H   UNL     1       2.280  10.861  17.783  0.00  0.00    +0.000 HD
ATOM     31  H   UNL     1       1.056  10.340  16.842  0.00  0.00    +0.000 HD
ENDBRANCH  12  29
TORSDOF 4
ENDMDL
MODEL 2
REMARK VINA RESULT:      -7.9      2.531      2.955
REMARK  Name = 
REMARK  5 active torsions:
REMARK  status: ('A' for Active; 'I' for Inactive)
REMARK    1  A    between atoms: C_1  and  N_2
REMARK    2  A    between atoms: C_4  and  N_5
REMARK    3  A    between atoms: C_6  and  C_8
REMARK    4  A    between atoms: C_19  and  N_20
REMARK    5  A    between atoms: C_24  and  C_25
REMARK                            x       y       z     vdW  Elec       q    Type
REMARK                         _______ _______ _______ _____ _____    ______ ____
ROOT
ATOM      1  C   UNL     1       3.976   3.981  17.377  0.00  0.00    +0.000 A 
ATOM      2  C   UNL     1       3.759   2.621  17.543  0.00  0.00    +0.000 A 
ATOM      3  N   UNL     1       2.906   2.359  18.575  0.00  0.00    +0.000 NA
ATOM      4  C   UNL     1       2.567   3.543  19.028  0.00  0.00    +0.000 A 
ATOM      5  C   UNL     1       1.682   3.889  20.055  0.00  0.00    +0.000 A 
ATOM      6  C   UNL     1       1.489   5.174  20.327  0.00  0.00    +0.000 A 
ATOM      7  C   UNL     1       2.236   6.220  19.546  0.00  0.00    +0.000 A 
ATOM      8  N   UNL     1       2.004   7.547  19.869  0.00  0.00    +0.000 N 
ATOM      9  C   UNL     1       1.642   7.987  21.215  0.00  0.00    +0.000 C 
ATOM     10  C   UNL     1       0.314   8.730  21.177  0.00  0.00    +0.000 C 
ATOM     11  C   UNL     1       0.362   9.887  20.181  0.00  0.00    +0.000 C 
ATOM     12  C   UNL     1       0.802   9.399  18.790  0.00  0.00    +0.000 C 
ATOM     13  C   UNL     1       2.145   8.627  18.886  0.00  0.00    +0.000 C 
ATOM     14  N   UNL     1       3.064   5.916  18.575  0.00  0.00    +0.000 NA
ATOM     15  N   UNL     1       3.206   4.569  18.352  0.00  0.00    +0.000 N 
ENDROOT
BRANCH   1  17
ATOM     16  N   UNL     1       5.441   3.690  15.485  0.00  0.00    +0.000 N 
ATOM     17  C   UNL     1       4.815   4.568  16.357  0.00  0.00    +0.000 C 
ATOM     18  O   UNL     1       4.905   5.785  16.274  0.00  0.00    +0.000 OA
ATOM     19  H   UNL     1       5.241   2.696  15.584  0.00  0.00    +0.000 HD
BRANCH  16  23
ATOM     20  C   UNL     1       8.808   5.956  12.717  0.00  0.00    +0.000 C 
ATOM     21  N   UNL     1       7.721   5.117  13.164  0.00  0.00    +0.000 N 
ATOM     22  C   UNL     1       7.280   4.981  14.440  0.00  0.00    +0.000 A 
ATOM     23  C   UNL     1       6.218   4.107  14.408  0.00  0.00    +0.000 A 
ATOM     24  C   UNL     1       6.102   3.750  13.029  0.00  0.00    +0.000 A 
ATOM     25  N   UNL     1       7.027   4.383  12.276  0.00  0.00    +0.000 NA
BRANCH  24  26
ATOM     26  C   UNL     1       5.087   2.863  12.388  0.00  0.00    +0.000 C 
ATOM     27  F   UNL     1       4.265   3.561  11.555  0.00  0.00    +0.000 F 
ATOM     28  F   UNL     1       5.674   1.908  11.609  0.00  0.00    +0.000 F 
ENDBRANCH  24  26
ENDBRANCH  16  23
ENDBRANCH   1  17
BRANCH  12  29
ATOM     29  N   UNL     1       0.864  10.535  17.864  0.00  0.00    +0.000 NA
ATOM     30  H   UNL     1       1.134  10.219  16.934  0.00  0.00    +0.000 HD
ATOM     31  H   UNL     1       1.592  11.182  18.165  0.00  0.00    +0.000 HD
ENDBRANCH  12  29
TORSDOF 4
ENDMDL
MODEL 3
REMARK VINA RESULT:      -7.4      1.254      1.468
REMARK  Name = 
REMARK  5 active torsions:
REMARK  status: ('A' for Active; 'I' for Inactive)
REMARK    1  A    between atoms: C_1  and  N_2
REMARK    2  A    between atoms: C_4  and  N_5
REMARK    3  A    between atoms: C_6  and  C_8
REMARK    4  A    between atoms: C_19  and  N_20
REMARK    5  A    between atoms: C_24  and  C_25
REMARK                            x       y       z     vdW  Elec       q    Type
REMARK                         _______ _______ _______ _____ _____    ______ ____
ROOT
ATOM      1  C   UNL     1       3.498   4.219  18.020  0.00  0.00    +0.000 A 
ATOM      2  C   UNL     1       3.257   2.870  18.229  0.00  0.00    +0.000 A 
ATOM      3  N   UNL     1       2.393   2.656  19.264  0.00  0.00    +0.000 NA
ATOM      4  C   UNL     1       2.072   3.861  19.676  0.00  0.00    +0.000 A 
ATOM      5  C   UNL     1       1.187   4.255  20.685  0.00  0.00    +0.000 A 
ATOM      6  C   UNL     1       1.014   5.551  20.913  0.00  0.00    +0.000 A 
ATOM      7  C   UNL     1       1.783   6.558  20.102  0.00  0.00    +0.000 A 
ATOM      8  N   UNL     1       1.572   7.898  20.381  0.00  0.00    +0.000 N 
ATOM      9  C   UNL     1       1.209   8.389  21.709  0.00  0.00    +0.000 C 
ATOM     10  C   UNL     1      -0.106   9.153  21.637  0.00  0.00    +0.000 C 
ATOM     11  C   UNL     1      -0.032  10.275  20.604  0.00  0.00    +0.000 C 
ATOM     12  C   UNL     1       0.408   9.734  19.232  0.00  0.00    +0.000 C 
ATOM     13  C   UNL     1       1.737   8.943  19.363  0.00  0.00    +0.000 C 
ATOM     14  N   UNL     1       2.612   6.209  19.148  0.00  0.00    +0.000 NA
ATOM     15  N   UNL     1       2.733   4.852  18.970  0.00  0.00    +0.000 N 
ENDROOT
BRANCH   1  17
ATOM     16  N   UNL     1       5.177   3.858  16.329  0.00  0.00    +0.000 N 
ATOM     17  C   UNL     1       4.354   4.759  16.988  0.00  0.00    +0.000 C 
ATOM     18  O   UNL     1       4.290   5.948  16.708  0.00  0.00    +0.000 OA
ATOM     19  H   UNL     1       5.101   2.873  16.577  0.00  0.00    +0.000 HD
BRANCH  16  23
ATOM     20  C   UNL     1       7.206   4.198  11.868  0.00  0.00    +0.000 C 
ATOM     21  N   UNL     1       6.913   4.368  13.272  0.00  0.00    +0.000 N 
ATOM     22  C   UNL     1       5.888   3.801  13.956  0.00  0.00    +0.000 A 
ATOM     23  C   UNL     1       6.000   4.212  15.264  0.00  0.00    +0.000 A 
ATOM     24  C   UNL     1       7.149   5.061  15.264  0.00  0.00    +0.000 A 
ATOM     25  N   UNL     1       7.704   5.143  14.037  0.00  0.00    +0.000 NA
BRANCH  24  26
ATOM     26  C   UNL     1       7.782   5.757  16.425  0.00  0.00    +0.000 C 
ATOM     27  F   UNL     1       7.070   6.858  16.798  0.00  0.00    +0.000 F 
ATOM     28  F   UNL     1       7.824   4.956  17.529  0.00  0.00    +0.000 F 
ENDBRANCH  24  26
ENDBRANCH  16  23
ENDBRANCH   1  17
BRANCH  12  29
ATOM     29  N   UNL     1       0.496  10.838  18.270  0.00  0.00    +0.000 NA
ATOM     30  H   UNL     1      -0.307  11.458  18.370  0.00  0.00    +0.000 HD
ATOM     31  H   UNL     1       0.453  10.469  17.322  0.00  0.00    +0.000 HD
ENDBRANCH  12  29
TORSDOF 4
ENDMDL
MODEL 4
REMARK VINA RESULT:      -7.1      7.652     11.989
REMARK  Name = 
REMARK  5 active torsions:
REMARK  status: ('A' for Active; 'I' for Inactive)
REMARK    1  A    between atoms: C_1  and  N_2
REMARK    2  A    between atoms: C_4  and  N_5
REMARK    3  A    between atoms: C_6  and  C_8
REMARK    4  A    between atoms: C_19  and  N_20
REMARK    5  A    between atoms: C_24  and  C_25
REMARK                            x       y       z     vdW  Elec       q    Type
REMARK                         _______ _______ _______ _____ _____    ______ ____
ROOT
ATOM      1  C   UNL     1      -4.681  12.050  18.297  0.00  0.00    +0.000 A 
ATOM      2  C   UNL     1      -5.292  11.848  17.068  0.00  0.00    +0.000 A 
ATOM      3  N   UNL     1      -4.515  11.109  16.223  0.00  0.00    +0.000 NA
ATOM      4  C   UNL     1      -3.445  10.824  16.928  0.00  0.00    +0.000 A 
ATOM      5  C   UNL     1      -2.327  10.056  16.586  0.00  0.00    +0.000 A 
ATOM      6  C   UNL     1      -1.362   9.897  17.485  0.00  0.00    +0.000 A 
ATOM      7  C   UNL     1      -1.482  10.558  18.830  0.00  0.00    +0.000 A 
ATOM      8  N   UNL     1      -0.447  10.367  19.731  0.00  0.00    +0.000 N 
ATOM      9  C   UNL     1       0.939  10.152  19.320  0.00  0.00    +0.000 C 
ATOM     10  C   UNL     1       1.446   8.829  19.878  0.00  0.00    +0.000 C 
ATOM     11  C   UNL     1       1.275   8.774  21.395  0.00  0.00    +0.000 C 
ATOM     12  C   UNL     1      -0.182   9.061  21.797  0.00  0.00    +0.000 C 
ATOM     13  C   UNL     1      -0.658  10.404  21.183  0.00  0.00    +0.000 C 
ATOM     14  N   UNL     1      -2.524  11.277  19.171  0.00  0.00    +0.000 NA
ATOM     15  N   UNL     1      -3.480  11.390  18.191  0.00  0.00    +0.000 N 
ENDROOT
BRANCH   1  17
ATOM     16  N   UNL     1      -5.103  12.221  20.663  0.00  0.00    +0.000 N 
ATOM     17  C   UNL     1      -5.263  12.776  19.402  0.00  0.00    +0.000 C 
ATOM     18  O   UNL     1      -5.820  13.846  19.198  0.00  0.00    +0.000 OA
ATOM     19  H   UNL     1      -4.554  11.367  20.743  0.00  0.00    +0.000 HD
BRANCH  16  23
ATOM     20  C   UNL     1      -7.916  13.873  24.338  0.00  0.00    +0.000 C 
ATOM     21  N   UNL     1      -6.794  13.582  23.477  0.00  0.00    +0.000 N 
ATOM     22  C   UNL     1      -6.818  12.836  22.344  0.00  0.00    +0.000 A 
ATOM     23  C   UNL     1      -5.541  12.840  21.831  0.00  0.00    +0.000 A 
ATOM     24  C   UNL     1      -4.795  13.626  22.762  0.00  0.00    +0.000 A 
ATOM     25  N   UNL     1      -5.577  14.082  23.763  0.00  0.00    +0.000 NA
BRANCH  24  26
ATOM     26  C   UNL     1      -3.355  14.016  22.694  0.00  0.00    +0.000 C 
ATOM     27  F   UNL     1      -2.740  13.877  23.902  0.00  0.00    +0.000 F 
ATOM     28  F   UNL     1      -2.659  13.217  21.834  0.00  0.00    +0.000 F 
ENDBRANCH  24  26
ENDBRANCH  16  23
ENDBRANCH   1  17
BRANCH  12  29
ATOM     29  N   UNL     1      -0.307   9.027  23.258  0.00  0.00    +0.000 NA
ATOM     30  H   UNL     1      -0.192   9.963  23.644  0.00  0.00    +0.000 HD
ATOM     31  H   UNL     1       0.444   8.463  23.652  0.00  0.00    +0.000 HD
ENDBRANCH  12  29
TORSDOF 4
ENDMDL
MODEL 5
REMARK VINA RESULT:      -7.1      7.461     11.688
REMARK  Name = 
REMARK  5 active torsions:
REMARK  status: ('A' for Active; 'I' for Inactive)
REMARK    1  A    between atoms: C_1  and  N_2
REMARK    2  A    between atoms: C_4  and  N_5
REMARK    3  A    between atoms: C_6  and  C_8
REMARK    4  A    between atoms: C_19  and  N_20
REMARK    5  A    between atoms: C_24  and  C_25
REMARK                            x       y       z     vdW  Elec       q    Type
REMARK                         _______ _______ _______ _____ _____    ______ ____
ROOT
ATOM      1  C   UNL     1      -4.105  12.317  19.278  0.00  0.00    +0.000 A 
ATOM      2  C   UNL     1      -5.195  12.231  18.425  0.00  0.00    +0.000 A 
ATOM      3  N   UNL     1      -4.944  11.429  17.349  0.00  0.00    +0.000 NA
ATOM      4  C   UNL     1      -3.721  10.994  17.544  0.00  0.00    +0.000 A 
ATOM      5  C   UNL     1      -2.955  10.106  16.781  0.00  0.00    +0.000 A 
ATOM      6  C   UNL     1      -1.730   9.801  17.193  0.00  0.00    +0.000 A 
ATOM      7  C   UNL     1      -1.190  10.429  18.448  0.00  0.00    +0.000 A 
ATOM      8  N   UNL     1       0.094  10.085  18.834  0.00  0.00    +0.000 N 
ATOM      9  C   UNL     1       1.141   9.715  17.882  0.00  0.00    +0.000 C 
ATOM     10  C   UNL     1       1.667   8.323  18.206  0.00  0.00    +0.000 C 
ATOM     11  C   UNL     1       2.144   8.241  19.654  0.00  0.00    +0.000 C 
ATOM     12  C   UNL     1       1.040   8.691  20.626  0.00  0.00    +0.000 C 
ATOM     13  C   UNL     1       0.520  10.102  20.239  0.00  0.00    +0.000 C 
ATOM     14  N   UNL     1      -1.895  11.259  19.180  0.00  0.00    +0.000 NA
ATOM     15  N   UNL     1      -3.151  11.520  18.691  0.00  0.00    +0.000 N 
ENDROOT
BRANCH   1  17
ATOM     16  N   UNL     1      -3.144  12.677  21.458  0.00  0.00    +0.000 N 
ATOM     17  C   UNL     1      -4.073  13.074  20.508  0.00  0.00    +0.000 C 
ATOM     18  O   UNL     1      -4.812  14.038  20.645  0.00  0.00    +0.000 OA
ATOM     19  H   UNL     1      -2.515  11.912  21.220  0.00  0.00    +0.000 HD
BRANCH  16  23
ATOM     20  C   UNL     1      -1.163  15.354  25.071  0.00  0.00    +0.000 C 
ATOM     21  N   UNL     1      -2.062  14.547  24.279  0.00  0.00    +0.000 N 
ATOM     22  C   UNL     1      -1.843  14.097  23.018  0.00  0.00    +0.000 A 
ATOM     23  C   UNL     1      -2.942  13.351  22.659  0.00  0.00    +0.000 A 
ATOM     24  C   UNL     1      -3.800  13.426  23.799  0.00  0.00    +0.000 A 
ATOM     25  N   UNL     1      -3.245  14.157  24.788  0.00  0.00    +0.000 NA
BRANCH  24  26
ATOM     26  C   UNL     1      -5.123  12.763  24.003  0.00  0.00    +0.000 C 
ATOM     27  F   UNL     1      -5.140  12.019  25.144  0.00  0.00    +0.000 F 
ATOM     28  F   UNL     1      -6.126  13.678  24.147  0.00  0.00    +0.000 F 
ENDBRANCH  24  26
ENDBRANCH  16  23
ENDBRANCH   1  17
BRANCH  12  29
ATOM     29  N   UNL     1       1.537   8.627  22.004  0.00  0.00    +0.000 NA
ATOM     30  H   UNL     1       1.237   9.449  22.526  0.00  0.00    +0.000 HD
ATOM     31  H   UNL     1       2.555   8.648  22.001  0.00  0.00    +0.000 HD
ENDBRANCH  12  29
TORSDOF 4
ENDMDL
MODEL 6
REMARK VINA RESULT:      -7.1      8.751     12.502
REMARK  Name = 
REMARK  5 active torsions:
REMARK  status: ('A' for Active; 'I' for Inactive)
REMARK    1  A    between atoms: C_1  and  N_2
REMARK    2  A    between atoms: C_4  and  N_5
REMARK    3  A    between atoms: C_6  and  C_8
REMARK    4  A    between atoms: C_19  and  N_20
REMARK    5  A    between atoms: C_24  and  C_25
REMARK                            x       y       z     vdW  Elec       q    Type
REMARK                         _______ _______ _______ _____ _____    ______ ____
ROOT
ATOM      1  C   UNL     1      -5.963  13.066  22.089  0.00  0.00    +0.000 A 
ATOM      2  C   UNL     1      -7.198  12.728  22.621  0.00  0.00    +0.000 A 
ATOM      3  N   UNL     1      -7.900  11.892  21.801  0.00  0.00    +0.000 NA
ATOM      4  C   UNL     1      -7.098  11.684  20.783  0.00  0.00    +0.000 A 
ATOM      5  C   UNL     1      -7.274  10.874  19.656  0.00  0.00    +0.000 A 
ATOM      6  C   UNL     1      -6.301  10.813  18.754  0.00  0.00    +0.000 A 
ATOM      7  C   UNL     1      -5.052  11.626  18.952  0.00  0.00    +0.000 A 
ATOM      8  N   UNL     1      -4.068  11.533  17.981  0.00  0.00    +0.000 N 
ATOM      9  C   UNL     1      -4.359  11.264  16.574  0.00  0.00    +0.000 C 
ATOM     10  C   UNL     1      -3.621  10.011  16.123  0.00  0.00    +0.000 C 
ATOM     11  C   UNL     1      -2.122  10.132  16.393  0.00  0.00    +0.000 C 
ATOM     12  C   UNL     1      -1.853  10.473  17.869  0.00  0.00    +0.000 C 
ATOM     13  C   UNL     1      -2.647  11.739  18.286  0.00  0.00    +0.000 C 
ATOM     14  N   UNL     1      -4.865  12.386  20.004  0.00  0.00    +0.000 NA
ATOM     15  N   UNL     1      -5.913  12.392  20.892  0.00  0.00    +0.000 N 
ENDROOT
BRANCH   1  17
ATOM     16  N   UNL     1      -3.931  13.286  23.366  0.00  0.00    +0.000 N 
ATOM     17  C   UNL     1      -4.989  13.919  22.731  0.00  0.00    +0.000 C 
ATOM     18  O   UNL     1      -5.105  15.134  22.656  0.00  0.00    +0.000 OA
ATOM     19  H   UNL     1      -3.878  12.270  23.306  0.00  0.00    +0.000 HD
BRANCH  16  23
ATOM     20  C   UNL     1      -1.289  16.222  26.288  0.00  0.00    +0.000 C 
ATOM     21  N   UNL     1      -1.690  15.283  25.266  0.00  0.00    +0.000 N 
ATOM     22  C   UNL     1      -2.946  14.822  25.042  0.00  0.00    +0.000 A 
ATOM     23  C   UNL     1      -2.877  13.971  23.963  0.00  0.00    +0.000 A 
ATOM     24  C   UNL     1      -1.494  13.974  23.606  0.00  0.00    +0.000 A 
ATOM     25  N   UNL     1      -0.777  14.789  24.409  0.00  0.00    +0.000 NA
BRANCH  24  26
ATOM     26  C   UNL     1      -0.833  13.266  22.469  0.00  0.00    +0.000 C 
ATOM     27  F   UNL     1      -0.859  11.914  22.638  0.00  0.00    +0.000 F 
ATOM     28  F   UNL     1      -1.479  13.499  21.289  0.00  0.00    +0.000 F 
ENDBRANCH  24  26
ENDBRANCH  16  23
ENDBRANCH   1  17
BRANCH  12  29
ATOM     29  N   UNL     1      -0.409  10.608  18.090  0.00  0.00    +0.000 NA
ATOM     30  H   UNL     1       0.095   9.878  17.588  0.00  0.00    +0.000 HD
ATOM     31  H   UNL     1      -0.200  10.469  19.077  0.00  0.00    +0.000 HD
ENDBRANCH  12  29
TORSDOF 4
ENDMDL
MODEL 7
REMARK VINA RESULT:      -6.9      8.387     12.586
REMARK  Name = 
REMARK  5 active torsions:
REMARK  status: ('A' for Active; 'I' for Inactive)
REMARK    1  A    between atoms: C_1  and  N_2
REMARK    2  A    between atoms: C_4  and  N_5
REMARK    3  A    between atoms: C_6  and  C_8
REMARK    4  A    between atoms: C_19  and  N_20
REMARK    5  A    between atoms: C_24  and  C_25
REMARK                            x       y       z     vdW  Elec       q    Type
REMARK                         _______ _______ _______ _____ _____    ______ ____
ROOT
ATOM      1  C   UNL     1      -4.731  12.480  18.785  0.00  0.00    +0.000 A 
ATOM      2  C   UNL     1      -5.484  12.177  17.661  0.00  0.00    +0.000 A 
ATOM      3  N   UNL     1      -4.859  11.273  16.852  0.00  0.00    +0.000 NA
ATOM      4  C   UNL     1      -3.743  10.988  17.481  0.00  0.00    +0.000 A 
ATOM      5  C   UNL     1      -2.728  10.088  17.139  0.00  0.00    +0.000 A 
ATOM      6  C   UNL     1      -1.685   9.961  17.952  0.00  0.00    +0.000 A 
ATOM      7  C   UNL     1      -1.611  10.796  19.200  0.00  0.00    +0.000 A 
ATOM      8  N   UNL     1      -0.502  10.631  20.014  0.00  0.00    +0.000 N 
ATOM      9  C   UNL     1       0.813  10.246  19.502  0.00  0.00    +0.000 C 
ATOM     10  C   UNL     1       1.279   8.966  20.182  0.00  0.00    +0.000 C 
ATOM     11  C   UNL     1       1.269   9.119  21.702  0.00  0.00    +0.000 C 
ATOM     12  C   UNL     1      -0.110   9.580  22.202  0.00  0.00    +0.000 C 
ATOM     13  C   UNL     1      -0.551  10.871  21.461  0.00  0.00    +0.000 C 
ATOM     14  N   UNL     1      -2.555  11.640  19.542  0.00  0.00    +0.000 NA
ATOM     15  N   UNL     1      -3.600  11.711  18.653  0.00  0.00    +0.000 N 
ENDROOT
BRANCH   1  17
ATOM     16  N   UNL     1      -4.687  13.099  21.114  0.00  0.00    +0.000 N 
ATOM     17  C   UNL     1      -5.135  13.389  19.834  0.00  0.00    +0.000 C 
ATOM     18  O   UNL     1      -5.800  14.377  19.556  0.00  0.00    +0.000 OA
ATOM     19  H   UNL     1      -4.070  12.297  21.233  0.00  0.00    +0.000 HD
BRANCH  16  23
ATOM     20  C   UNL     1      -4.161  16.346  24.764  0.00  0.00    +0.000 C 
ATOM     21  N   UNL     1      -4.701  15.369  23.847  0.00  0.00    +0.000 N 
ATOM     22  C   UNL     1      -4.055  14.807  22.794  0.00  0.00    +0.000 A 
ATOM     23  C   UNL     1      -4.930  13.919  22.212  0.00  0.00    +0.000 A 
ATOM     24  C   UNL     1      -6.116  14.032  23.001  0.00  0.00    +0.000 A 
ATOM     25  N   UNL     1      -5.960  14.920  24.005  0.00  0.00    +0.000 NA
BRANCH  24  26
ATOM     26  C   UNL     1      -7.391  13.265  22.865  0.00  0.00    +0.000 C 
ATOM     27  F   UNL     1      -7.910  13.373  21.610  0.00  0.00    +0.000 F 
ATOM     28  F   UNL     1      -7.196  11.929  23.068  0.00  0.00    +0.000 F 
ENDBRANCH  24  26
ENDBRANCH  16  23
ENDBRANCH   1  17
BRANCH  12  29
ATOM     29  N   UNL     1      -0.079   9.743  23.659  0.00  0.00    +0.000 NA
ATOM     30  H   UNL     1      -0.908  10.243  23.976  0.00  0.00    +0.000 HD
ATOM     31  H   UNL     1       0.718  10.320  23.921  0.00  0.00    +0.000 HD
ENDBRANCH  12  29
TORSDOF 4
ENDMDL
MODEL 8
REMARK VINA RESULT:      -6.9      7.804     12.157
REMARK  Name = 
REMARK  5 active torsions:
REMARK  status: ('A' for Active; 'I' for Inactive)
REMARK    1  A    between atoms: C_1  and  N_2
REMARK    2  A    between atoms: C_4  and  N_5
REMARK    3  A    between atoms: C_6  and  C_8
REMARK    4  A    between atoms: C_19  and  N_20
REMARK    5  A    between atoms: C_24  and  C_25
REMARK                            x       y       z     vdW  Elec       q    Type
REMARK                         _______ _______ _______ _____ _____    ______ ____
ROOT
ATOM      1  C   UNL     1      -4.650  12.158  18.318  0.00  0.00    +0.000 A 
ATOM      2  C   UNL     1      -5.266  11.925  17.097  0.00  0.00    +0.000 A 
ATOM      3  N   UNL     1      -4.508  11.138  16.280  0.00  0.00    +0.000 NA
ATOM      4  C   UNL     1      -3.444  10.854  16.995  0.00  0.00    +0.000 A 
ATOM      5  C   UNL     1      -2.345  10.047  16.681  0.00  0.00    +0.000 A 
ATOM      6  C   UNL     1      -1.383   9.899  17.584  0.00  0.00    +0.000 A 
ATOM      7  C   UNL     1      -1.486  10.612  18.904  0.00  0.00    +0.000 A 
ATOM      8  N   UNL     1      -0.455  10.429  19.812  0.00  0.00    +0.000 N 
ATOM      9  C   UNL     1       0.925  10.167  19.408  0.00  0.00    +0.000 C 
ATOM     10  C   UNL     1       1.401   8.854  20.015  0.00  0.00    +0.000 C 
ATOM     11  C   UNL     1       1.231   8.858  21.533  0.00  0.00    +0.000 C 
ATOM     12  C   UNL     1      -0.218   9.194  21.925  0.00  0.00    +0.000 C 
ATOM     13  C   UNL     1      -0.664  10.525  21.262  0.00  0.00    +0.000 C 
ATOM     14  N   UNL     1      -2.511  11.367  19.219  0.00  0.00    +0.000 NA
ATOM     15  N   UNL     1      -3.465  11.467  18.236  0.00  0.00    +0.000 N 
ENDROOT
BRANCH   1  17
ATOM     16  N   UNL     1      -4.329  13.718  20.126  0.00  0.00    +0.000 N 
ATOM     17  C   UNL     1      -5.213  12.938  19.396  0.00  0.00    +0.000 C 
ATOM     18  O   UNL     1      -6.421  12.918  19.591  0.00  0.00    +0.000 OA
ATOM     19  H   UNL     1      -3.353  13.730  19.837  0.00  0.00    +0.000 HD
BRANCH  16  23
ATOM     20  C   UNL     1      -5.590  17.732  22.663  0.00  0.00    +0.000 C 
ATOM     21  N   UNL     1      -5.295  16.370  22.284  0.00  0.00    +0.000 N 
ATOM     22  C   UNL     1      -4.940  15.935  21.049  0.00  0.00    +0.000 A 
ATOM     23  C   UNL     1      -4.731  14.579  21.144  0.00  0.00    +0.000 A 
ATOM     24  C   UNL     1      -5.006  14.279  22.513  0.00  0.00    +0.000 A 
ATOM     25  N   UNL     1      -5.344  15.389  23.204  0.00  0.00    +0.000 NA
BRANCH  24  26
ATOM     26  C   UNL     1      -4.894  12.963  23.210  0.00  0.00    +0.000 C 
ATOM     27  F   UNL     1      -3.695  12.366  22.965  0.00  0.00    +0.000 F 
ATOM     28  F   UNL     1      -4.963  13.105  24.566  0.00  0.00    +0.000 F 
ENDBRANCH  24  26
ENDBRANCH  16  23
ENDBRANCH   1  17
BRANCH  12  29
ATOM     29  N   UNL     1      -0.343   9.217  23.386  0.00  0.00    +0.000 NA
ATOM     30  H   UNL     1       0.169   8.437  23.796  0.00  0.00    +0.000 HD
ATOM     31  H   UNL     1      -1.318   9.085  23.647  0.00  0.00    +0.000 HD
ENDBRANCH  12  29
TORSDOF 4
ENDMDL
MODEL 9
REMARK VINA RESULT:      -6.9      8.629     12.506
REMARK  Name = 
REMARK  5 active torsions:
REMARK  status: ('A' for Active; 'I' for Inactive)
REMARK    1  A    between atoms: C_1  and  N_2
REMARK    2  A    between atoms: C_4  and  N_5
REMARK    3  A    between atoms: C_6  and  C_8
REMARK    4  A    between atoms: C_19  and  N_20
REMARK    5  A    between atoms: C_24  and  C_25
REMARK                            x       y       z     vdW  Elec       q    Type
REMARK                         _______ _______ _______ _____ _____    ______ ____
ROOT
ATOM      1  C   UNL     1      -5.648  12.578  22.335  0.00  0.00    +0.000 A 
ATOM      2  C   UNL     1      -6.947  12.455  22.803  0.00  0.00    +0.000 A 
ATOM      3  N   UNL     1      -7.813  12.065  21.823  0.00  0.00    +0.000 NA
ATOM      4  C   UNL     1      -7.057  11.915  20.760  0.00  0.00    +0.000 A 
ATOM      5  C   UNL     1      -7.399  11.490  19.472  0.00  0.00    +0.000 A 
ATOM      6  C   UNL     1      -6.444  11.403  18.553  0.00  0.00    +0.000 A 
ATOM      7  C   UNL     1      -5.033  11.783  18.909  0.00  0.00    +0.000 A 
ATOM      8  N   UNL     1      -4.073  11.681  17.915  0.00  0.00    +0.000 N 
ATOM      9  C   UNL     1      -4.374  11.859  16.495  0.00  0.00    +0.000 C 
ATOM     10  C   UNL     1      -3.974  10.611  15.721  0.00  0.00    +0.000 C 
ATOM     11  C   UNL     1      -2.507  10.261  15.965  0.00  0.00    +0.000 C 
ATOM     12  C   UNL     1      -2.211  10.138  17.469  0.00  0.00    +0.000 C 
ATOM     13  C   UNL     1      -2.660  11.423  18.216  0.00  0.00    +0.000 C 
ATOM     14  N   UNL     1      -4.692  12.177  20.112  0.00  0.00    +0.000 NA
ATOM     15  N   UNL     1      -5.733  12.236  21.006  0.00  0.00    +0.000 N 
ENDROOT
BRANCH   1  17
ATOM     16  N   UNL     1      -3.976  14.216  22.910  0.00  0.00    +0.000 N 
ATOM     17  C   UNL     1      -4.509  12.956  23.139  0.00  0.00    +0.000 C 
ATOM     18  O   UNL     1      -4.095  12.191  23.999  0.00  0.00    +0.000 OA
ATOM     19  H   UNL     1      -4.440  14.813  22.228  0.00  0.00    +0.000 HD
BRANCH  16  23
ATOM     20  C   UNL     1      -1.359  16.869  26.112  0.00  0.00    +0.000 C 
ATOM     21  N   UNL     1      -1.752  15.933  25.084  0.00  0.00    +0.000 N 
ATOM     22  C   UNL     1      -3.016  15.689  24.657  0.00  0.00    +0.000 A 
ATOM     23  C   UNL     1      -2.928  14.750  23.655  0.00  0.00    +0.000 A 
ATOM     24  C   UNL     1      -1.530  14.473  23.559  0.00  0.00    +0.000 A 
ATOM     25  N   UNL     1      -0.818  15.212  24.437  0.00  0.00    +0.000 NA
BRANCH  24  26
ATOM     26  C   UNL     1      -0.833  13.562  22.602  0.00  0.00    +0.000 C 
ATOM     27  F   UNL     1       0.459  13.944  22.397  0.00  0.00    +0.000 F 
ATOM     28  F   UNL     1      -0.767  12.286  23.082  0.00  0.00    +0.000 F 
ENDBRANCH  24  26
ENDBRANCH  16  23
ENDBRANCH   1  17
BRANCH  12  29
ATOM     29  N   UNL     1      -0.792   9.830  17.671  0.00  0.00    +0.000 NA
ATOM     30  H   UNL     1      -0.235  10.682  17.627  0.00  0.00    +0.000 HD
ATOM     31  H   UNL     1      -0.460   9.235  16.913  0.00  0.00    +0.000 HD
ENDBRANCH  12  29
TORSDOF 4
ENDMDL
