MODEL 1
REMARK VINA RESULT:      -7.9      0.000      0.000
REMARK  Name = 
REMARK  13 active torsions:
REMARK  status: ('A' for Active; 'I' for Inactive)
REMARK    1  A    between atoms: C_2  and  C_3
REMARK    2  A    between atoms: C_6  and  C_7
REMARK    3  A    between atoms: C_7  and  O_9
REMARK    4  A    between atoms: O_9  and  C_10
REMARK    5  A    between atoms: C_12  and  O_13
REMARK    6  A    between atoms: C_12  and  C_24
REMARK    7  A    between atoms: O_13  and  C_14
REMARK    8  A    between atoms: C_14  and  C_15
REMARK    9  A    between atoms: C_15  and  C_16
REMARK   10  A    between atoms: C_16  and  C_17
REMARK   11  A    between atoms: C_24  and  O_26
REMARK   12  A    between atoms: C_28  and  O_29
REMARK   13  A    between atoms: C_30  and  O_31
REMARK                            x       y       z     vdW  Elec       q    Type
REMARK                         _______ _______ _______ _____ _____    ______ ____
ROOT
ATOM      1  C   UNL     1       4.314   5.217  19.529  0.00  0.00    +0.000 C 
ATOM      2  C   UNL     1       5.546   5.983  19.012  0.00  0.00    +0.000 C 
ATOM      3  C   UNL     1       5.766   5.915  17.484  0.00  0.00    +0.000 C 
ATOM      4  C   UNL     1       5.635   4.464  16.974  0.00  0.00    +0.000 C 
ATOM      5  C   UNL     1       4.397   3.736  17.487  0.00  0.00    +0.000 C 
ATOM      6  C   UNL     1       4.310   3.772  19.017  0.00  0.00    +0.000 C 
ENDROOT
BRANCH   3   7
ATOM      7  C   UNL     1       4.835   6.849  16.674  0.00  0.00    +0.000 C 
ATOM      8  O   UNL     1       3.996   7.599  17.144  0.00  0.00    +0.000 OA
BRANCH   7   9
ATOM      9  O   UNL     1       5.119   6.855  15.345  0.00  0.00    +0.000 OA
ATOM     10  H   UNL     1       6.072   7.009  15.183  0.00  0.00    +0.000 HD
ENDBRANCH   7   9
ENDBRANCH   3   7
BRANCH   5  11
ATOM     11  O   UNL     1       4.468   2.381  17.036  0.00  0.00    +0.000 OA
ATOM     12  H   UNL     1       5.170   2.345  16.355  0.00  0.00    +0.000 HD
ENDBRANCH   5  11
BRANCH   6  13
ATOM     13  O   UNL     1       5.376   2.986  19.576  0.00  0.00    +0.000 OA
ATOM     14  H   UNL     1       5.217   2.043  19.414  0.00  0.00    +0.000 HD
ENDBRANCH   6  13
BRANCH   1  15
ATOM     15  O   UNL     1       3.094   5.845  19.083  0.00  0.00    +0.000 OA
BRANCH  15  16
ATOM     16  C   UNL     1       2.151   6.070  20.036  0.00  0.00    +0.000 C 
ATOM     17  O   UNL     1       1.737   5.232  20.823  0.00  0.00    +0.000 OA
BRANCH  16  21
ATOM     18  C   UNL     1       0.862  10.190  20.118  0.00  0.00    +0.000 A 
ATOM     19  C   UNL     1       0.753   9.364  21.247  0.00  0.00    +0.000 A 
ATOM     20  C   UNL     1       1.166   8.028  21.200  0.00  0.00    +0.000 A 
ATOM     21  C   UNL     1       1.681   7.486  20.016  0.00  0.00    +0.000 A 
ATOM     22  C   UNL     1       1.766   8.297  18.879  0.00  0.00    +0.000 A 
ATOM     23  C   UNL     1       1.356   9.636  18.932  0.00  0.00    +0.000 A 
BRANCH  18  25
ATOM     24  C   UNL     1       1.102  12.564  20.830  0.00  0.00    +0.000 C 
ATOM     25  C   UNL     1       0.419  11.588  20.218  0.00  0.00    +0.000 C 
ENDBRANCH  18  25
ENDBRANCH  16  21
ENDBRANCH  15  16
ENDBRANCH   1  15
BRANCH   3  26
ATOM     26  O   UNL     1       7.125   6.301  17.148  0.00  0.00    +0.000 OA
BRANCH  26  27
ATOM     27  C   UNL     1       7.867   6.907  18.215  0.00  0.00    +0.000 C 
BRANCH  27  28
ATOM     28  C   UNL     1       8.096   8.377  17.894  0.00  0.00    +0.000 C 
BRANCH  28  29
ATOM     29  C   UNL     1       8.809   9.108  19.033  0.00  0.00    +0.000 C 
BRANCH  29  30
ATOM     30  C   UNL     1       9.161  10.514  18.619  0.00  0.00    +0.000 A 
ATOM     31  C   UNL     1      10.323  11.126  19.117  0.00  0.00    +0.000 A 
ATOM     32  C   UNL     1      10.614  12.450  18.786  0.00  0.00    +0.000 A 
ATOM     33  C   UNL     1       9.748  13.165  17.963  0.00  0.00    +0.000 A 
ATOM     34 CL   UNL     1      10.097  14.805  17.577  0.00  0.00    +0.000 Cl
ATOM     35  C   UNL     1       8.595  12.566  17.457  0.00  0.00    +0.000 A 
ATOM     36  C   UNL     1       8.303  11.242  17.787  0.00  0.00    +0.000 A 
ENDBRANCH  29  30
ENDBRANCH  28  29
ENDBRANCH  27  28
ENDBRANCH  26  27
ENDBRANCH   3  26
TORSDOF 13
ENDMDL
MODEL 2
REMARK VINA RESULT:      -7.6      0.614      1.433
REMARK  Name = 
REMARK  13 active torsions:
REMARK  status: ('A' for Active; 'I' for Inactive)
REMARK    1  A    between atoms: C_2  and  C_3
REMARK    2  A    between atoms: C_6  and  C_7
REMARK    3  A    between atoms: C_7  and  O_9
REMARK    4  A    between atoms: O_9  and  C_10
REMARK    5  A    between atoms: C_12  and  O_13
REMARK    6  A    between atoms: C_12  and  C_24
REMARK    7  A    between atoms: O_13  and  C_14
REMARK    8  A    between atoms: C_14  and  C_15
REMARK    9  A    between atoms: C_15  and  C_16
REMARK   10  A    between atoms: C_16  and  C_17
REMARK   11  A    between atoms: C_24  and  O_26
REMARK   12  A    between atoms: C_28  and  O_29
REMARK   13  A    between atoms: C_30  and  O_31
REMARK                            x       y       z     vdW  Elec       q    Type
REMARK                         _______ _______ _______ _____ _____    ______ ____
ROOT
ATOM      1  C   UNL     1       4.363   5.162  19.495  0.00  0.00    +0.000 C 
ATOM      2  C   UNL     1       5.645   5.910  19.082  0.00  0.00    +0.000 C 
ATOM      3  C   UNL     1       5.959   5.884  17.569  0.00  0.00    +0.000 C 
ATOM      4  C   UNL     1       5.824   4.454  17.004  0.00  0.00    +0.000 C 
ATOM      5  C   UNL     1       4.537   3.745  17.414  0.00  0.00    +0.000 C 
ATOM      6  C   UNL     1       4.355   3.734  18.936  0.00  0.00    +0.000 C 
ENDROOT
BRANCH   3   7
ATOM      7  C   UNL     1       5.105   6.869  16.734  0.00  0.00    +0.000 C 
ATOM      8  O   UNL     1       4.947   6.825  15.526  0.00  0.00    +0.000 OA
BRANCH   7   9
ATOM      9  O   UNL     1       4.419   7.755  17.502  0.00  0.00    +0.000 OA
ATOM     10  H   UNL     1       3.596   7.360  17.856  0.00  0.00    +0.000 HD
ENDBRANCH   7   9
ENDBRANCH   3   7
BRANCH   5  11
ATOM     11  O   UNL     1       4.602   2.403  16.924  0.00  0.00    +0.000 OA
ATOM     12  H   UNL     1       5.546   2.140  16.941  0.00  0.00    +0.000 HD
ENDBRANCH   5  11
BRANCH   6  13
ATOM     13  O   UNL     1       5.364   2.902  19.533  0.00  0.00    +0.000 OA
ATOM     14  H   UNL     1       5.580   2.163  18.943  0.00  0.00    +0.000 HD
ENDBRANCH   6  13
BRANCH   1  15
ATOM     15  O   UNL     1       3.191   5.836  18.995  0.00  0.00    +0.000 OA
BRANCH  15  16
ATOM     16  C   UNL     1       2.185   6.034  19.888  0.00  0.00    +0.000 C 
ATOM     17  O   UNL     1       1.680   5.162  20.579  0.00  0.00    +0.000 OA
BRANCH  16  21
ATOM     18  C   UNL     1       0.904  10.158  19.884  0.00  0.00    +0.000 A 
ATOM     19  C   UNL     1       1.410   9.545  18.728  0.00  0.00    +0.000 A 
ATOM     20  C   UNL     1       1.830   8.211  18.750  0.00  0.00    +0.000 A 
ATOM     21  C   UNL     1       1.769   7.467  19.934  0.00  0.00    +0.000 A 
ATOM     22  C   UNL     1       1.291   8.081  21.097  0.00  0.00    +0.000 A 
ATOM     23  C   UNL     1       0.866   9.416  21.070  0.00  0.00    +0.000 A 
BRANCH  18  25
ATOM     24  C   UNL     1       0.006  12.160  18.707  0.00  0.00    +0.000 C 
ATOM     25  C   UNL     1       0.471  11.560  19.811  0.00  0.00    +0.000 C 
ENDBRANCH  18  25
ENDBRANCH  16  21
ENDBRANCH  15  16
ENDBRANCH   1  15
BRANCH   3  26
ATOM     26  O   UNL     1       7.346   6.243  17.332  0.00  0.00    +0.000 OA
BRANCH  26  27
ATOM     27  C   UNL     1       7.985   6.947  18.405  0.00  0.00    +0.000 C 
BRANCH  27  28
ATOM     28  C   UNL     1       8.147   8.410  18.018  0.00  0.00    +0.000 C 
BRANCH  28  29
ATOM     29  C   UNL     1       9.120   9.144  18.944  0.00  0.00    +0.000 C 
BRANCH  29  30
ATOM     30  C   UNL     1       8.956  10.636  18.806  0.00  0.00    +0.000 A 
ATOM     31  C   UNL     1       8.419  11.181  17.629  0.00  0.00    +0.000 A 
ATOM     32  C   UNL     1       8.328  12.564  17.475  0.00  0.00    +0.000 A 
ATOM     33  C   UNL     1       8.776  13.405  18.491  0.00  0.00    +0.000 A 
ATOM     34 CL   UNL     1       8.687  15.111  18.287  0.00  0.00    +0.000 Cl
ATOM     35  C   UNL     1       9.306  12.876  19.667  0.00  0.00    +0.000 A 
ATOM     36  C   UNL     1       9.395  11.492  19.822  0.00  0.00    +0.000 A 
ENDBRANCH  29  30
ENDBRANCH  28  29
ENDBRANCH  27  28
ENDBRANCH  26  27
ENDBRANCH   3  26
TORSDOF 13
ENDMDL
MODEL 3
REMARK VINA RESULT:      -7.6      0.686      1.172
REMARK  Name = 
REMARK  13 active torsions:
REMARK  status: ('A' for Active; 'I' for Inactive)
REMARK    1  A    between atoms: C_2  and  C_3
REMARK    2  A    between atoms: C_6  and  C_7
REMARK    3  A    between atoms: C_7  and  O_9
REMARK    4  A    between atoms: O_9  and  C_10
REMARK    5  A    between atoms: C_12  and  O_13
REMARK    6  A    between atoms: C_12  and  C_24
REMARK    7  A    between atoms: O_13  and  C_14
REMARK    8  A    between atoms: C_14  and  C_15
REMARK    9  A    between atoms: C_15  and  C_16
REMARK   10  A    between atoms: C_16  and  C_17
REMARK   11  A    between atoms: C_24  and  O_26
REMARK   12  A    between atoms: C_28  and  O_29
REMARK   13  A    between atoms: C_30  and  O_31
REMARK                            x       y       z     vdW  Elec       q    Type
REMARK                         _______ _______ _______ _____ _____    ______ ____
ROOT
ATOM      1  C   UNL     1       4.115   4.943  19.617  0.00  0.00    +0.000 C 
ATOM      2  C   UNL     1       5.394   5.726  19.264  0.00  0.00    +0.000 C 
ATOM      3  C   UNL     1       5.746   5.758  17.759  0.00  0.00    +0.000 C 
ATOM      4  C   UNL     1       5.651   4.347  17.143  0.00  0.00    +0.000 C 
ATOM      5  C   UNL     1       4.367   3.603  17.494  0.00  0.00    +0.000 C 
ATOM      6  C   UNL     1       4.146   3.536  19.010  0.00  0.00    +0.000 C 
ENDROOT
BRANCH   3   7
ATOM      7  C   UNL     1       4.897   6.757  16.937  0.00  0.00    +0.000 C 
ATOM      8  O   UNL     1       4.195   7.642  17.397  0.00  0.00    +0.000 OA
BRANCH   7   9
ATOM      9  O   UNL     1       5.095   6.641  15.598  0.00  0.00    +0.000 OA
ATOM     10  H   UNL     1       5.233   7.515  15.178  0.00  0.00    +0.000 HD
ENDBRANCH   7   9
ENDBRANCH   3   7
BRANCH   5  11
ATOM     11  O   UNL     1       4.468   2.279  16.960  0.00  0.00    +0.000 OA
ATOM     12  H   UNL     1       4.747   1.698  17.697  0.00  0.00    +0.000 HD
ENDBRANCH   5  11
BRANCH   6  13
ATOM     13  O   UNL     1       5.153   2.701  19.605  0.00  0.00    +0.000 OA
ATOM     14  H   UNL     1       4.773   2.184  20.332  0.00  0.00    +0.000 HD
ENDBRANCH   6  13
BRANCH   1  15
ATOM     15  O   UNL     1       2.944   5.615  19.110  0.00  0.00    +0.000 OA
BRANCH  15  16
ATOM     16  C   UNL     1       1.987   5.928  20.024  0.00  0.00    +0.000 C 
ATOM     17  O   UNL     1       1.459   5.131  20.785  0.00  0.00    +0.000 OA
BRANCH  16  21
ATOM     18  C   UNL     1       0.960  10.116  19.809  0.00  0.00    +0.000 A 
ATOM     19  C   UNL     1       1.421   9.415  18.685  0.00  0.00    +0.000 A 
ATOM     20  C   UNL     1       1.759   8.060  18.775  0.00  0.00    +0.000 A 
ATOM     21  C   UNL     1       1.660   7.384  19.997  0.00  0.00    +0.000 A 
ATOM     22  C   UNL     1       1.228   8.085  21.128  0.00  0.00    +0.000 A 
ATOM     23  C   UNL     1       0.885   9.441  21.032  0.00  0.00    +0.000 A 
BRANCH  18  25
ATOM     24  C   UNL     1       1.317  12.427  18.953  0.00  0.00    +0.000 C 
ATOM     25  C   UNL     1       0.613  11.537  19.665  0.00  0.00    +0.000 C 
ENDBRANCH  18  25
ENDBRANCH  16  21
ENDBRANCH  15  16
ENDBRANCH   1  15
BRANCH   3  26
ATOM     26  O   UNL     1       7.133   6.148  17.571  0.00  0.00    +0.000 OA
BRANCH  26  27
ATOM     27  C   UNL     1       7.940   6.119  18.756  0.00  0.00    +0.000 C 
BRANCH  27  28
ATOM     28  C   UNL     1       8.579   7.485  18.960  0.00  0.00    +0.000 C 
BRANCH  28  29
ATOM     29  C   UNL     1       8.062   8.516  17.954  0.00  0.00    +0.000 C 
BRANCH  29  30
ATOM     30  C   UNL     1       8.603   9.886  18.276  0.00  0.00    +0.000 A 
ATOM     31  C   UNL     1       9.396  10.080  19.418  0.00  0.00    +0.000 A 
ATOM     32  C   UNL     1       9.842  11.360  19.752  0.00  0.00    +0.000 A 
ATOM     33  C   UNL     1       9.495  12.445  18.952  0.00  0.00    +0.000 A 
ATOM     34 CL   UNL     1      10.025  14.025  19.381  0.00  0.00    +0.000 Cl
ATOM     35  C   UNL     1       8.713  12.263  17.812  0.00  0.00    +0.000 A 
ATOM     36  C   UNL     1       8.268  10.984  17.476  0.00  0.00    +0.000 A 
ENDBRANCH  29  30
ENDBRANCH  28  29
ENDBRANCH  27  28
ENDBRANCH  26  27
ENDBRANCH   3  26
TORSDOF 13
ENDMDL
MODEL 4
REMARK VINA RESULT:      -7.6      1.554      2.280
REMARK  Name = 
REMARK  13 active torsions:
REMARK  status: ('A' for Active; 'I' for Inactive)
REMARK    1  A    between atoms: C_2  and  C_3
REMARK    2  A    between atoms: C_6  and  C_7
REMARK    3  A    between atoms: C_7  and  O_9
REMARK    4  A    between atoms: O_9  and  C_10
REMARK    5  A    between atoms: C_12  and  O_13
REMARK    6  A    between atoms: C_12  and  C_24
REMARK    7  A    between atoms: O_13  and  C_14
REMARK    8  A    between atoms: C_14  and  C_15
REMARK    9  A    between atoms: C_15  and  C_16
REMARK   10  A    between atoms: C_16  and  C_17
REMARK   11  A    between atoms: C_24  and  O_26
REMARK   12  A    between atoms: C_28  and  O_29
REMARK   13  A    between atoms: C_30  and  O_31
REMARK                            x       y       z     vdW  Elec       q    Type
REMARK                         _______ _______ _______ _____ _____    ______ ____
ROOT
ATOM      1  C   UNL     1       5.078   5.601  18.771  0.00  0.00    +0.000 C 
ATOM      2  C   UNL     1       5.517   6.983  18.251  0.00  0.00    +0.000 C 
ATOM      3  C   UNL     1       6.423   6.954  17.000  0.00  0.00    +0.000 C 
ATOM      4  C   UNL     1       7.562   5.927  17.170  0.00  0.00    +0.000 C 
ATOM      5  C   UNL     1       7.097   4.562  17.667  0.00  0.00    +0.000 C 
ATOM      6  C   UNL     1       6.287   4.677  18.964  0.00  0.00    +0.000 C 
ENDROOT
BRANCH   3   7
ATOM      7  C   UNL     1       5.661   6.690  15.679  0.00  0.00    +0.000 C 
ATOM      8  O   UNL     1       4.657   7.274  15.308  0.00  0.00    +0.000 OA
BRANCH   7   9
ATOM      9  O   UNL     1       6.294   5.798  14.873  0.00  0.00    +0.000 OA
ATOM     10  H   UNL     1       6.034   4.878  15.084  0.00  0.00    +0.000 HD
ENDBRANCH   7   9
ENDBRANCH   3   7
BRANCH   5  11
ATOM     11  O   UNL     1       8.258   3.758  17.890  0.00  0.00    +0.000 OA
ATOM     12  H   UNL     1       8.652   3.579  17.012  0.00  0.00    +0.000 HD
ENDBRANCH   5  11
BRANCH   6  13
ATOM     13  O   UNL     1       7.148   5.111  20.030  0.00  0.00    +0.000 OA
ATOM     14  H   UNL     1       6.655   5.667  20.653  0.00  0.00    +0.000 HD
ENDBRANCH   6  13
BRANCH   1  15
ATOM     15  O   UNL     1       4.181   4.962  17.840  0.00  0.00    +0.000 OA
BRANCH  15  16
ATOM     16  C   UNL     1       2.865   4.954  18.182  0.00  0.00    +0.000 C 
ATOM     17  O   UNL     1       2.138   3.973  18.141  0.00  0.00    +0.000 OA
BRANCH  16  21
ATOM     18  C   UNL     1       1.442   8.855  19.363  0.00  0.00    +0.000 A 
ATOM     19  C   UNL     1       1.737   8.556  18.025  0.00  0.00    +0.000 A 
ATOM     20  C   UNL     1       2.207   7.289  17.661  0.00  0.00    +0.000 A 
ATOM     21  C   UNL     1       2.409   6.301  18.632  0.00  0.00    +0.000 A 
ATOM     22  C   UNL     1       2.144   6.603  19.973  0.00  0.00    +0.000 A 
ATOM     23  C   UNL     1       1.667   7.871  20.332  0.00  0.00    +0.000 A 
BRANCH  18  25
ATOM     24  C   UNL     1       0.877  11.222  18.835  0.00  0.00    +0.000 C 
ATOM     25  C   UNL     1       0.947  10.198  19.696  0.00  0.00    +0.000 C 
ENDBRANCH  18  25
ENDBRANCH  16  21
ENDBRANCH  15  16
ENDBRANCH   1  15
BRANCH   3  26
ATOM     26  O   UNL     1       7.100   8.228  16.834  0.00  0.00    +0.000 OA
BRANCH  26  27
ATOM     27  C   UNL     1       8.148   8.489  17.777  0.00  0.00    +0.000 C 
BRANCH  27  28
ATOM     28  C   UNL     1       8.196   9.981  18.072  0.00  0.00    +0.000 C 
BRANCH  28  29
ATOM     29  C   UNL     1       9.456  10.372  18.848  0.00  0.00    +0.000 C 
BRANCH  29  30
ATOM     30  C   UNL     1       9.962  11.716  18.390  0.00  0.00    +0.000 A 
ATOM     31  C   UNL     1       9.125  12.842  18.444  0.00  0.00    +0.000 A 
ATOM     32  C   UNL     1       9.571  14.071  17.959  0.00  0.00    +0.000 A 
ATOM     33  C   UNL     1      10.849  14.180  17.417  0.00  0.00    +0.000 A 
ATOM     34 CL   UNL     1      11.387  15.691  16.796  0.00  0.00    +0.000 Cl
ATOM     35  C   UNL     1      11.693  13.070  17.364  0.00  0.00    +0.000 A 
ATOM     36  C   UNL     1      11.247  11.840  17.850  0.00  0.00    +0.000 A 
ENDBRANCH  29  30
ENDBRANCH  28  29
ENDBRANCH  27  28
ENDBRANCH  26  27
ENDBRANCH   3  26
TORSDOF 13
ENDMDL
MODEL 5
REMARK VINA RESULT:      -7.5      5.458      9.227
REMARK  Name = 
REMARK  13 active torsions:
REMARK  status: ('A' for Active; 'I' for Inactive)
REMARK    1  A    between atoms: C_2  and  C_3
REMARK    2  A    between atoms: C_6  and  C_7
REMARK    3  A    between atoms: C_7  and  O_9
REMARK    4  A    between atoms: O_9  and  C_10
REMARK    5  A    between atoms: C_12  and  O_13
REMARK    6  A    between atoms: C_12  and  C_24
REMARK    7  A    between atoms: O_13  and  C_14
REMARK    8  A    between atoms: C_14  and  C_15
REMARK    9  A    between atoms: C_15  and  C_16
REMARK   10  A    between atoms: C_16  and  C_17
REMARK   11  A    between atoms: C_24  and  O_26
REMARK   12  A    between atoms: C_28  and  O_29
REMARK   13  A    between atoms: C_30  and  O_31
REMARK                            x       y       z     vdW  Elec       q    Type
REMARK                         _______ _______ _______ _____ _____    ______ ____
ROOT
ATOM      1  C   UNL     1       9.048  14.150  19.462  0.00  0.00    +0.000 C 
ATOM      2  C   UNL     1       8.835  12.659  19.137  0.00  0.00    +0.000 C 
ATOM      3  C   UNL     1       9.991  11.987  18.364  0.00  0.00    +0.000 C 
ATOM      4  C   UNL     1      10.435  12.859  17.171  0.00  0.00    +0.000 C 
ATOM      5  C   UNL     1      10.656  14.326  17.525  0.00  0.00    +0.000 C 
ATOM      6  C   UNL     1       9.424  14.939  18.202  0.00  0.00    +0.000 C 
ENDROOT
BRANCH   3   7
ATOM      7  C   UNL     1      11.212  11.630  19.246  0.00  0.00    +0.000 C 
ATOM      8  O   UNL     1      11.197  11.481  20.456  0.00  0.00    +0.000 OA
BRANCH   7   9
ATOM      9  O   UNL     1      12.330  11.367  18.519  0.00  0.00    +0.000 OA
ATOM     10  H   UNL     1      12.373  10.426  18.255  0.00  0.00    +0.000 HD
ENDBRANCH   7   9
ENDBRANCH   3   7
BRANCH   5  11
ATOM     11  O   UNL     1      10.944  15.030  16.313  0.00  0.00    +0.000 OA
ATOM     12  H   UNL     1      11.348  14.383  15.700  0.00  0.00    +0.000 HD
ENDBRANCH   5  11
BRANCH   6  13
ATOM     13  O   UNL     1       8.345  15.014  17.255  0.00  0.00    +0.000 OA
ATOM     14  H   UNL     1       8.314  15.896  16.853  0.00  0.00    +0.000 HD
ENDBRANCH   6  13
BRANCH   1  15
ATOM     15  O   UNL     1      10.110  14.321  20.422  0.00  0.00    +0.000 OA
BRANCH  15  16
ATOM     16  C   UNL     1       9.804  15.037  21.536  0.00  0.00    +0.000 C 
ATOM     17  O   UNL     1      10.157  16.187  21.748  0.00  0.00    +0.000 OA
BRANCH  16  21
ATOM     18  C   UNL     1       7.503  12.676  24.324  0.00  0.00    +0.000 A 
ATOM     19  C   UNL     1       8.523  12.107  23.548  0.00  0.00    +0.000 A 
ATOM     20  C   UNL     1       9.252  12.885  22.642  0.00  0.00    +0.000 A 
ATOM     21  C   UNL     1       8.963  14.245  22.480  0.00  0.00    +0.000 A 
ATOM     22  C   UNL     1       7.927  14.811  23.231  0.00  0.00    +0.000 A 
ATOM     23  C   UNL     1       7.203  14.030  24.142  0.00  0.00    +0.000 A 
BRANCH  18  25
ATOM     24  C   UNL     1       5.651  12.178  25.913  0.00  0.00    +0.000 C 
ATOM     25  C   UNL     1       6.767  11.819  25.265  0.00  0.00    +0.000 C 
ENDBRANCH  18  25
ENDBRANCH  16  21
ENDBRANCH  15  16
ENDBRANCH   1  15
BRANCH   3  26
ATOM     26  O   UNL     1       9.544  10.743  17.762  0.00  0.00    +0.000 OA
BRANCH  26  27
ATOM     27  C   UNL     1       8.807   9.875  18.634  0.00  0.00    +0.000 C 
BRANCH  27  28
ATOM     28  C   UNL     1       8.110   8.806  17.804  0.00  0.00    +0.000 C 
BRANCH  28  29
ATOM     29  C   UNL     1       8.253   7.414  18.424  0.00  0.00    +0.000 C 
BRANCH  29  30
ATOM     30  C   UNL     1       7.054   6.563  18.094  0.00  0.00    +0.000 A 
ATOM     31  C   UNL     1       6.860   5.334  18.745  0.00  0.00    +0.000 A 
ATOM     32  C   UNL     1       5.787   4.516  18.392  0.00  0.00    +0.000 A 
ATOM     33  C   UNL     1       4.909   4.919  17.389  0.00  0.00    +0.000 A 
ATOM     34 CL   UNL     1       3.601   3.896  16.938  0.00  0.00    +0.000 Cl
ATOM     35  C   UNL     1       5.087   6.140  16.740  0.00  0.00    +0.000 A 
ATOM     36  C   UNL     1       6.160   6.960  17.093  0.00  0.00    +0.000 A 
ENDBRANCH  29  30
ENDBRANCH  28  29
ENDBRANCH  27  28
ENDBRANCH  26  27
ENDBRANCH   3  26
TORSDOF 13
ENDMDL
MODEL 6
REMARK VINA RESULT:      -7.5      5.892     10.362
REMARK  Name = 
REMARK  13 active torsions:
REMARK  status: ('A' for Active; 'I' for Inactive)
REMARK    1  A    between atoms: C_2  and  C_3
REMARK    2  A    between atoms: C_6  and  C_7
REMARK    3  A    between atoms: C_7  and  O_9
REMARK    4  A    between atoms: O_9  and  C_10
REMARK    5  A    between atoms: C_12  and  O_13
REMARK    6  A    between atoms: C_12  and  C_24
REMARK    7  A    between atoms: O_13  and  C_14
REMARK    8  A    between atoms: C_14  and  C_15
REMARK    9  A    between atoms: C_15  and  C_16
REMARK   10  A    between atoms: C_16  and  C_17
REMARK   11  A    between atoms: C_24  and  O_26
REMARK   12  A    between atoms: C_28  and  O_29
REMARK   13  A    between atoms: C_30  and  O_31
REMARK                            x       y       z     vdW  Elec       q    Type
REMARK                         _______ _______ _______ _____ _____    ______ ____
ROOT
ATOM      1  C   UNL     1       1.112  10.934  19.139  0.00  0.00    +0.000 C 
ATOM      2  C   UNL     1       1.163  11.733  20.455  0.00  0.00    +0.000 C 
ATOM      3  C   UNL     1      -0.064  11.555  21.377  0.00  0.00    +0.000 C 
ATOM      4  C   UNL     1      -1.376  11.693  20.577  0.00  0.00    +0.000 C 
ATOM      5  C   UNL     1      -1.406  10.877  19.289  0.00  0.00    +0.000 C 
ATOM      6  C   UNL     1      -0.202  11.188  18.392  0.00  0.00    +0.000 C 
ENDROOT
BRANCH   3   7
ATOM      7  C   UNL     1      -0.063  10.228  22.173  0.00  0.00    +0.000 C 
ATOM      8  O   UNL     1       0.297  10.093  23.330  0.00  0.00    +0.000 OA
BRANCH   7   9
ATOM      9  O   UNL     1      -0.632   9.201  21.489  0.00  0.00    +0.000 OA
ATOM     10  H   UNL     1      -0.440   8.339  21.911  0.00  0.00    +0.000 HD
ENDBRANCH   7   9
ENDBRANCH   3   7
BRANCH   5  11
ATOM     11  O   UNL     1      -2.619  11.192  18.600  0.00  0.00    +0.000 OA
ATOM     12  H   UNL     1      -2.876  10.390  18.099  0.00  0.00    +0.000 HD
ENDBRANCH   5  11
BRANCH   6  13
ATOM     13  O   UNL     1      -0.306  12.534  17.901  0.00  0.00    +0.000 OA
ATOM     14  H   UNL     1      -1.196  12.694  17.549  0.00  0.00    +0.000 HD
ENDBRANCH   6  13
BRANCH   1  15
ATOM     15  O   UNL     1       1.207   9.518  19.394  0.00  0.00    +0.000 OA
BRANCH  15  16
ATOM     16  C   UNL     1       1.896   8.787  18.478  0.00  0.00    +0.000 C 
ATOM     17  O   UNL     1       2.342   9.222  17.427  0.00  0.00    +0.000 OA
BRANCH  16  21
ATOM     18  C   UNL     1       2.225   4.701  19.834  0.00  0.00    +0.000 A 
ATOM     19  C   UNL     1       1.882   5.740  20.712  0.00  0.00    +0.000 A 
ATOM     20  C   UNL     1       1.790   7.060  20.257  0.00  0.00    +0.000 A 
ATOM     21  C   UNL     1       2.057   7.370  18.918  0.00  0.00    +0.000 A 
ATOM     22  C   UNL     1       2.427   6.341  18.044  0.00  0.00    +0.000 A 
ATOM     23  C   UNL     1       2.512   5.020  18.502  0.00  0.00    +0.000 A 
BRANCH  18  25
ATOM     24  C   UNL     1       1.462   2.804  21.256  0.00  0.00    +0.000 C 
ATOM     25  C   UNL     1       2.304   3.329  20.356  0.00  0.00    +0.000 C 
ENDBRANCH  18  25
ENDBRANCH  16  21
ENDBRANCH  15  16
ENDBRANCH   1  15
BRANCH   3  26
ATOM     26  O   UNL     1      -0.119  12.622  22.361  0.00  0.00    +0.000 OA
BRANCH  26  27
ATOM     27  C   UNL     1      -0.191  13.947  21.818  0.00  0.00    +0.000 C 
BRANCH  27  28
ATOM     28  C   UNL     1      -1.190  14.765  22.625  0.00  0.00    +0.000 C 
BRANCH  28  29
ATOM     29  C   UNL     1      -1.663  14.021  23.876  0.00  0.00    +0.000 C 
BRANCH  29  30
ATOM     30  C   UNL     1      -3.160  13.845  23.851  0.00  0.00    +0.000 A 
ATOM     31  C   UNL     1      -3.989  14.911  23.471  0.00  0.00    +0.000 A 
ATOM     32  C   UNL     1      -5.377  14.769  23.512  0.00  0.00    +0.000 A 
ATOM     33  C   UNL     1      -5.938  13.567  23.935  0.00  0.00    +0.000 A 
ATOM     34 CL   UNL     1      -7.649  13.403  24.009  0.00  0.00    +0.000 Cl
ATOM     35  C   UNL     1      -5.124  12.498  24.309  0.00  0.00    +0.000 A 
ATOM     36  C   UNL     1      -3.736  12.639  24.268  0.00  0.00    +0.000 A 
ENDBRANCH  29  30
ENDBRANCH  28  29
ENDBRANCH  27  28
ENDBRANCH  26  27
ENDBRANCH   3  26
TORSDOF 13
ENDMDL
MODEL 7
REMARK VINA RESULT:      -7.3      2.995      7.066
REMARK  Name = 
REMARK  13 active torsions:
REMARK  status: ('A' for Active; 'I' for Inactive)
REMARK    1  A    between atoms: C_2  and  C_3
REMARK    2  A    between atoms: C_6  and  C_7
REMARK    3  A    between atoms: C_7  and  O_9
REMARK    4  A    between atoms: O_9  and  C_10
REMARK    5  A    between atoms: C_12  and  O_13
REMARK    6  A    between atoms: C_12  and  C_24
REMARK    7  A    between atoms: O_13  and  C_14
REMARK    8  A    between atoms: C_14  and  C_15
REMARK    9  A    between atoms: C_15  and  C_16
REMARK   10  A    between atoms: C_16  and  C_17
REMARK   11  A    between atoms: C_24  and  O_26
REMARK   12  A    between atoms: C_28  and  O_29
REMARK   13  A    between atoms: C_30  and  O_31
REMARK                            x       y       z     vdW  Elec       q    Type
REMARK                         _______ _______ _______ _____ _____    ______ ____
ROOT
ATOM      1  C   UNL     1       3.252   4.264  17.484  0.00  0.00    +0.000 C 
ATOM      2  C   UNL     1       3.200   4.973  18.851  0.00  0.00    +0.000 C 
ATOM      3  C   UNL     1       2.870   4.056  20.050  0.00  0.00    +0.000 C 
ATOM      4  C   UNL     1       1.660   3.153  19.735  0.00  0.00    +0.000 C 
ATOM      5  C   UNL     1       1.746   2.450  18.384  0.00  0.00    +0.000 C 
ATOM      6  C   UNL     1       1.979   3.445  17.240  0.00  0.00    +0.000 C 
ENDROOT
BRANCH   3   7
ATOM      7  C   UNL     1       4.065   3.197  20.531  0.00  0.00    +0.000 C 
ATOM      8  O   UNL     1       3.989   2.205  21.235  0.00  0.00    +0.000 OA
BRANCH   7   9
ATOM      9  O   UNL     1       5.247   3.585  19.985  0.00  0.00    +0.000 OA
ATOM     10  H   UNL     1       5.572   4.416  20.388  0.00  0.00    +0.000 HD
ENDBRANCH   7   9
ENDBRANCH   3   7
BRANCH   5  11
ATOM     11  O   UNL     1       0.517   1.750  18.175  0.00  0.00    +0.000 OA
ATOM     12  H   UNL     1       0.064   1.708  19.043  0.00  0.00    +0.000 HD
ENDBRANCH   5  11
BRANCH   6  13
ATOM     13  O   UNL     1       0.814   4.270  17.079  0.00  0.00    +0.000 OA
ATOM     14  H   UNL     1       0.473   4.540  17.946  0.00  0.00    +0.000 HD
ENDBRANCH   6  13
BRANCH   1  15
ATOM     15  O   UNL     1       4.376   3.363  17.414  0.00  0.00    +0.000 OA
BRANCH  15  16
ATOM     16  C   UNL     1       5.350   3.685  16.522  0.00  0.00    +0.000 C 
ATOM     17  O   UNL     1       5.687   2.994  15.572  0.00  0.00    +0.000 OA
BRANCH  16  21
ATOM     18  C   UNL     1       7.267   7.452  17.405  0.00  0.00    +0.000 A 
ATOM     19  C   UNL     1       7.746   6.244  17.931  0.00  0.00    +0.000 A 
ATOM     20  C   UNL     1       7.107   5.033  17.643  0.00  0.00    +0.000 A 
ATOM     21  C   UNL     1       5.962   5.009  16.836  0.00  0.00    +0.000 A 
ATOM     22  C   UNL     1       5.463   6.215  16.331  0.00  0.00    +0.000 A 
ATOM     23  C   UNL     1       6.110   7.425  16.617  0.00  0.00    +0.000 A 
BRANCH  18  25
ATOM     24  C   UNL     1       8.720   8.888  18.829  0.00  0.00    +0.000 C 
ATOM     25  C   UNL     1       7.975   8.698  17.732  0.00  0.00    +0.000 C 
ENDBRANCH  18  25
ENDBRANCH  16  21
ENDBRANCH  15  16
ENDBRANCH   1  15
BRANCH   3  26
ATOM     26  O   UNL     1       2.450   4.848  21.193  0.00  0.00    +0.000 OA
BRANCH  26  27
ATOM     27  C   UNL     1       1.381   5.769  20.936  0.00  0.00    +0.000 C 
BRANCH  27  28
ATOM     28  C   UNL     1       1.968   7.117  20.538  0.00  0.00    +0.000 C 
BRANCH  28  29
ATOM     29  C   UNL     1       1.427   8.256  21.405  0.00  0.00    +0.000 C 
BRANCH  29  30
ATOM     30  C   UNL     1       0.749   9.295  20.549  0.00  0.00    +0.000 A 
ATOM     31  C   UNL     1      -0.322  10.043  21.064  0.00  0.00    +0.000 A 
ATOM     32  C   UNL     1      -0.993  10.957  20.251  0.00  0.00    +0.000 A 
ATOM     33  C   UNL     1      -0.600  11.124  18.926  0.00  0.00    +0.000 A 
ATOM     34 CL   UNL     1      -1.445  12.234  17.919  0.00  0.00    +0.000 Cl
ATOM     35  C   UNL     1       0.467  10.392  18.405  0.00  0.00    +0.000 A 
ATOM     36  C   UNL     1       1.139   9.478  19.218  0.00  0.00    +0.000 A 
ENDBRANCH  29  30
ENDBRANCH  28  29
ENDBRANCH  27  28
ENDBRANCH  26  27
ENDBRANCH   3  26
TORSDOF 13
ENDMDL
MODEL 8
REMARK VINA RESULT:      -7.3      5.670      9.195
REMARK  Name = 
REMARK  13 active torsions:
REMARK  status: ('A' for Active; 'I' for Inactive)
REMARK    1  A    between atoms: C_2  and  C_3
REMARK    2  A    between atoms: C_6  and  C_7
REMARK    3  A    between atoms: C_7  and  O_9
REMARK    4  A    between atoms: O_9  and  C_10
REMARK    5  A    between atoms: C_12  and  O_13
REMARK    6  A    between atoms: C_12  and  C_24
REMARK    7  A    between atoms: O_13  and  C_14
REMARK    8  A    between atoms: C_14  and  C_15
REMARK    9  A    between atoms: C_15  and  C_16
REMARK   10  A    between atoms: C_16  and  C_17
REMARK   11  A    between atoms: C_24  and  O_26
REMARK   12  A    between atoms: C_28  and  O_29
REMARK   13  A    between atoms: C_30  and  O_31
REMARK                            x       y       z     vdW  Elec       q    Type
REMARK                         _______ _______ _______ _____ _____    ______ ____
ROOT
ATOM      1  C   UNL     1      -2.108  12.177  20.495  0.00  0.00    +0.000 C 
ATOM      2  C   UNL     1      -1.089  11.070  20.825  0.00  0.00    +0.000 C 
ATOM      3  C   UNL     1       0.158  11.036  19.913  0.00  0.00    +0.000 C 
ATOM      4  C   UNL     1      -0.245  11.132  18.427  0.00  0.00    +0.000 C 
ATOM      5  C   UNL     1      -1.240  12.249  18.126  0.00  0.00    +0.000 C 
ATOM      6  C   UNL     1      -2.489  12.149  19.010  0.00  0.00    +0.000 C 
ENDROOT
BRANCH   3   7
ATOM      7  C   UNL     1       1.212  12.118  20.251  0.00  0.00    +0.000 C 
ATOM      8  O   UNL     1       1.881  12.737  19.441  0.00  0.00    +0.000 OA
BRANCH   7   9
ATOM      9  O   UNL     1       1.251  12.423  21.574  0.00  0.00    +0.000 OA
ATOM     10  H   UNL     1       0.379  12.728  21.898  0.00  0.00    +0.000 HD
ENDBRANCH   7   9
ENDBRANCH   3   7
BRANCH   5  11
ATOM     11  O   UNL     1      -1.611  12.145  16.749  0.00  0.00    +0.000 OA
ATOM     12  H   UNL     1      -2.517  11.775  16.727  0.00  0.00    +0.000 HD
ENDBRANCH   5  11
BRANCH   6  13
ATOM     13  O   UNL     1      -3.235  10.973  18.654  0.00  0.00    +0.000 OA
ATOM     14  H   UNL     1      -2.650  10.319  18.241  0.00  0.00    +0.000 HD
ENDBRANCH   6  13
BRANCH   1  15
ATOM     15  O   UNL     1      -1.563  13.480  20.785  0.00  0.00    +0.000 OA
BRANCH  15  16
ATOM     16  C   UNL     1      -1.662  13.900  22.075  0.00  0.00    +0.000 C 
ATOM     17  O   UNL     1      -0.759  14.421  22.712  0.00  0.00    +0.000 OA
BRANCH  16  21
ATOM     18  C   UNL     1      -5.664  13.167  23.520  0.00  0.00    +0.000 A 
ATOM     19  C   UNL     1      -5.426  13.971  22.395  0.00  0.00    +0.000 A 
ATOM     20  C   UNL     1      -4.122  14.206  21.946  0.00  0.00    +0.000 A 
ATOM     21  C   UNL     1      -3.027  13.656  22.626  0.00  0.00    +0.000 A 
ATOM     22  C   UNL     1      -3.257  12.878  23.765  0.00  0.00    +0.000 A 
ATOM     23  C   UNL     1      -4.565  12.640  24.208  0.00  0.00    +0.000 A 
BRANCH  18  25
ATOM     24  C   UNL     1      -7.875  13.903  24.399  0.00  0.00    +0.000 C 
ATOM     25  C   UNL     1      -7.051  12.946  23.951  0.00  0.00    +0.000 C 
ENDBRANCH  18  25
ENDBRANCH  16  21
ENDBRANCH  15  16
ENDBRANCH   1  15
BRANCH   3  26
ATOM     26  O   UNL     1       0.836   9.756  20.027  0.00  0.00    +0.000 OA
BRANCH  26  27
ATOM     27  C   UNL     1       1.312   9.207  18.791  0.00  0.00    +0.000 C 
BRANCH  27  28
ATOM     28  C   UNL     1       2.194   8.002  19.086  0.00  0.00    +0.000 C 
BRANCH  28  29
ATOM     29  C   UNL     1       2.938   7.517  17.840  0.00  0.00    +0.000 C 
BRANCH  29  30
ATOM     30  C   UNL     1       3.094   6.018  17.868  0.00  0.00    +0.000 A 
ATOM     31  C   UNL     1       1.962   5.193  17.966  0.00  0.00    +0.000 A 
ATOM     32  C   UNL     1       2.110   3.809  18.058  0.00  0.00    +0.000 A 
ATOM     33  C   UNL     1       3.384   3.246  18.057  0.00  0.00    +0.000 A 
ATOM     34 CL   UNL     1       3.564   1.541  18.196  0.00  0.00    +0.000 Cl
ATOM     35  C   UNL     1       4.515   4.055  17.953  0.00  0.00    +0.000 A 
ATOM     36  C   UNL     1       4.368   5.440  17.859  0.00  0.00    +0.000 A 
ENDBRANCH  29  30
ENDBRANCH  28  29
ENDBRANCH  27  28
ENDBRANCH  26  27
ENDBRANCH   3  26
TORSDOF 13
ENDMDL
MODEL 9
REMARK VINA RESULT:      -7.3      5.995     10.596
REMARK  Name = 
REMARK  13 active torsions:
REMARK  status: ('A' for Active; 'I' for Inactive)
REMARK    1  A    between atoms: C_2  and  C_3
REMARK    2  A    between atoms: C_6  and  C_7
REMARK    3  A    between atoms: C_7  and  O_9
REMARK    4  A    between atoms: O_9  and  C_10
REMARK    5  A    between atoms: C_12  and  O_13
REMARK    6  A    between atoms: C_12  and  C_24
REMARK    7  A    between atoms: O_13  and  C_14
REMARK    8  A    between atoms: C_14  and  C_15
REMARK    9  A    between atoms: C_15  and  C_16
REMARK   10  A    between atoms: C_16  and  C_17
REMARK   11  A    between atoms: C_24  and  O_26
REMARK   12  A    between atoms: C_28  and  O_29
REMARK   13  A    between atoms: C_30  and  O_31
REMARK                            x       y       z     vdW  Elec       q    Type
REMARK                         _______ _______ _______ _____ _____    ______ ____
ROOT
ATOM      1  C   UNL     1       0.668  11.741  18.901  0.00  0.00    +0.000 C 
ATOM      2  C   UNL     1       0.872  12.606  20.159  0.00  0.00    +0.000 C 
ATOM      3  C   UNL     1      -0.256  12.506  21.211  0.00  0.00    +0.000 C 
ATOM      4  C   UNL     1      -1.641  12.636  20.546  0.00  0.00    +0.000 C 
ATOM      5  C   UNL     1      -1.822  11.755  19.313  0.00  0.00    +0.000 C 
ATOM      6  C   UNL     1      -0.712  11.989  18.281  0.00  0.00    +0.000 C 
ENDROOT
BRANCH   3   7
ATOM      7  C   UNL     1      -0.197  11.222  22.074  0.00  0.00    +0.000 C 
ATOM      8  O   UNL     1      -1.149  10.685  22.615  0.00  0.00    +0.000 OA
BRANCH   7   9
ATOM      9  O   UNL     1       1.034  10.648  22.084  0.00  0.00    +0.000 OA
ATOM     10  H   UNL     1       1.174  10.114  22.892  0.00  0.00    +0.000 HD
ENDBRANCH   7   9
ENDBRANCH   3   7
BRANCH   5  11
ATOM     11  O   UNL     1      -3.094  12.064  18.737  0.00  0.00    +0.000 OA
ATOM     12  H   UNL     1      -3.477  12.791  19.270  0.00  0.00    +0.000 HD
ENDBRANCH   5  11
BRANCH   6  13
ATOM     13  O   UNL     1      -0.841  13.311  17.731  0.00  0.00    +0.000 OA
ATOM     14  H   UNL     1      -1.412  13.854  18.296  0.00  0.00    +0.000 HD
ENDBRANCH   6  13
BRANCH   1  15
ATOM     15  O   UNL     1       0.761  10.338  19.220  0.00  0.00    +0.000 OA
BRANCH  15  16
ATOM     16  C   UNL     1       1.670   9.619  18.509  0.00  0.00    +0.000 C 
ATOM     17  O   UNL     1       2.303  10.041  17.553  0.00  0.00    +0.000 OA
BRANCH  16  21
ATOM     18  C   UNL     1       2.231   5.605  19.998  0.00  0.00    +0.000 A 
ATOM     19  C   UNL     1       2.501   5.937  18.662  0.00  0.00    +0.000 A 
ATOM     20  C   UNL     1       2.304   7.240  18.194  0.00  0.00    +0.000 A 
ATOM     21  C   UNL     1       1.815   8.236  19.049  0.00  0.00    +0.000 A 
ATOM     22  C   UNL     1       1.517   7.904  20.375  0.00  0.00    +0.000 A 
ATOM     23  C   UNL     1       1.721   6.598  20.842  0.00  0.00    +0.000 A 
BRANCH  18  25
ATOM     24  C   UNL     1       1.491   3.370  20.809  0.00  0.00    +0.000 C 
ATOM     25  C   UNL     1       2.457   4.223  20.444  0.00  0.00    +0.000 C 
ENDBRANCH  18  25
ENDBRANCH  16  21
ENDBRANCH  15  16
ENDBRANCH   1  15
BRANCH   3  26
ATOM     26  O   UNL     1      -0.187  13.624  22.137  0.00  0.00    +0.000 OA
BRANCH  26  27
ATOM     27  C   UNL     1      -0.381  14.916  21.547  0.00  0.00    +0.000 C 
BRANCH  27  28
ATOM     28  C   UNL     1      -1.444  15.671  22.333  0.00  0.00    +0.000 C 
BRANCH  28  29
ATOM     29  C   UNL     1      -1.727  15.017  23.687  0.00  0.00    +0.000 C 
BRANCH  29  30
ATOM     30  C   UNL     1      -3.107  14.410  23.703  0.00  0.00    +0.000 A 
ATOM     31  C   UNL     1      -4.220  15.182  23.335  0.00  0.00    +0.000 A 
ATOM     32  C   UNL     1      -5.504  14.641  23.413  0.00  0.00    +0.000 A 
ATOM     33  C   UNL     1      -5.679  13.334  23.860  0.00  0.00    +0.000 A 
ATOM     34 CL   UNL     1      -7.266  12.678  23.978  0.00  0.00    +0.000 Cl
ATOM     35  C   UNL     1      -4.580  12.556  24.222  0.00  0.00    +0.000 A 
ATOM     36  C   UNL     1      -3.296  13.096  24.143  0.00  0.00    +0.000 A 
ENDBRANCH  29  30
ENDBRANCH  28  29
ENDBRANCH  27  28
ENDBRANCH  26  27
ENDBRANCH   3  26
TORSDOF 13
ENDMDL
