MODEL 1
REMARK VINA RESULT:      -7.9      0.000      0.000
REMARK  Name = 
REMARK  4 active torsions:
REMARK  status: ('A' for Active; 'I' for Inactive)
REMARK    1  A    between atoms: C_4  and  N_5
REMARK    2  A    between atoms: N_8  and  C_9
REMARK    3  A    between atoms: C_9  and  C_10
REMARK    4  A    between atoms: N_23  and  C_24
REMARK                            x       y       z     vdW  Elec       q    Type
REMARK                         _______ _______ _______ _____ _____    ______ ____
ROOT
ATOM      1  N   UNL     1       4.029   3.617  17.757  0.00  0.00    +0.000 NA
ATOM      2  C   UNL     1       3.253   4.819  17.383  0.00  0.00    +0.000 C 
ATOM      3  C   UNL     1       1.879   4.945  18.096  0.00  0.00    +0.000 C 
ATOM      4  N   UNL     1       1.930   4.786  19.566  0.00  0.00    +0.000 NA
ATOM      5  C   UNL     1       2.592   3.491  19.831  0.00  0.00    +0.000 C 
ATOM      6  C   UNL     1       4.003   3.372  19.216  0.00  0.00    +0.000 C 
ENDROOT
BRANCH   1  10
ATOM      7  O   UNL     1       6.748   5.567  14.557  0.00  0.00    +0.000 OA
ATOM      8  C   UNL     1       6.469   5.027  15.615  0.00  0.00    +0.000 C 
ATOM      9  C   UNL     1       5.511   3.876  15.726  0.00  0.00    +0.000 C 
ATOM     10  C   UNL     1       5.417   3.595  17.226  0.00  0.00    +0.000 C 
ATOM     11  C   UNL     1       6.351   4.621  17.857  0.00  0.00    +0.000 C 
ATOM     12  O   UNL     1       6.537   4.775  19.060  0.00  0.00    +0.000 OA
ATOM     13  N   UNL     1       6.935   5.355  16.859  0.00  0.00    +0.000 N 
BRANCH  13  14
ATOM     14  C   UNL     1       7.802   6.465  17.119  0.00  0.00    +0.000 C 
ATOM     15  C   UNL     1       7.258   7.829  17.468  0.00  0.00    +0.000 C 
ATOM     16  C   UNL     1       7.984   7.028  18.505  0.00  0.00    +0.000 C 
ENDBRANCH  13  14
ENDBRANCH   1  10
BRANCH   4  17
ATOM     17  C   UNL     1       2.628   5.937  20.176  0.00  0.00    +0.000 C 
BRANCH  17  18
ATOM     18  C   UNL     1       1.961   7.282  19.971  0.00  0.00    +0.000 A 
ATOM     19  C   UNL     1       2.172   8.017  18.782  0.00  0.00    +0.000 A 
ATOM     20  C   UNL     1       1.601   9.283  18.607  0.00  0.00    +0.000 A 
ATOM     21  C   UNL     1       0.815   9.781  19.623  0.00  0.00    +0.000 A 
ATOM     22  C   UNL     1       0.594   9.072  20.779  0.00  0.00    +0.000 A 
ATOM     23  C   UNL     1       1.152   7.828  20.986  0.00  0.00    +0.000 A 
ATOM     24  O   UNL     1      -0.211   9.736  21.651  0.00  0.00    +0.000 OA
ATOM     25  C   UNL     1      -0.479  10.943  20.906  0.00  0.00    +0.000 C 
ATOM     26  O   UNL     1       0.183  10.985  19.624  0.00  0.00    +0.000 OA
ENDBRANCH  17  18
ENDBRANCH   4  17
TORSDOF 4
ENDMDL
MODEL 2
REMARK VINA RESULT:      -7.8      0.735      1.371
REMARK  Name = 
REMARK  4 active torsions:
REMARK  status: ('A' for Active; 'I' for Inactive)
REMARK    1  A    between atoms: C_4  and  N_5
REMARK    2  A    between atoms: N_8  and  C_9
REMARK    3  A    between atoms: C_9  and  C_10
REMARK    4  A    between atoms: N_23  and  C_24
REMARK                            x       y       z     vdW  Elec       q    Type
REMARK                         _______ _______ _______ _____ _____    ______ ____
ROOT
ATOM      1  N   UNL     1       3.780   3.784  18.106  0.00  0.00    +0.000 NA
ATOM      2  C   UNL     1       2.887   4.851  17.608  0.00  0.00    +0.000 C 
ATOM      3  C   UNL     1       1.620   5.086  18.476  0.00  0.00    +0.000 C 
ATOM      4  N   UNL     1       1.885   5.253  19.922  0.00  0.00    +0.000 NA
ATOM      5  C   UNL     1       2.658   4.068  20.351  0.00  0.00    +0.000 C 
ATOM      6  C   UNL     1       3.974   3.862  19.572  0.00  0.00    +0.000 C 
ENDROOT
BRANCH   1  10
ATOM      7  O   UNL     1       6.248   5.784  14.738  0.00  0.00    +0.000 OA
ATOM      8  C   UNL     1       6.054   5.171  15.776  0.00  0.00    +0.000 C 
ATOM      9  C   UNL     1       5.009   4.104  15.921  0.00  0.00    +0.000 C 
ATOM     10  C   UNL     1       5.080   3.690  17.391  0.00  0.00    +0.000 C 
ATOM     11  C   UNL     1       6.185   4.565  17.971  0.00  0.00    +0.000 C 
ATOM     12  O   UNL     1       6.538   4.586  19.146  0.00  0.00    +0.000 OA
ATOM     13  N   UNL     1       6.707   5.337  16.967  0.00  0.00    +0.000 N 
BRANCH  13  14
ATOM     14  C   UNL     1       7.707   6.336  17.197  0.00  0.00    +0.000 C 
ATOM     15  C   UNL     1       7.340   7.778  17.449  0.00  0.00    +0.000 C 
ATOM     16  C   UNL     1       7.922   6.952  18.556  0.00  0.00    +0.000 C 
ENDBRANCH  13  14
ENDBRANCH   1  10
BRANCH   4  17
ATOM     17  C   UNL     1       2.587   6.530  20.164  0.00  0.00    +0.000 C 
BRANCH  17  18
ATOM     18  C   UNL     1       1.695   7.750  20.268  0.00  0.00    +0.000 A 
ATOM     19  C   UNL     1       0.863   7.940  21.395  0.00  0.00    +0.000 A 
ATOM     20  C   UNL     1      -0.001   9.039  21.475  0.00  0.00    +0.000 A 
ATOM     21  C   UNL     1      -0.002   9.934  20.428  0.00  0.00    +0.000 A 
ATOM     22  C   UNL     1       0.809   9.766  19.332  0.00  0.00    +0.000 A 
ATOM     23  C   UNL     1       1.662   8.688  19.218  0.00  0.00    +0.000 A 
ATOM     24  O   UNL     1       0.659  10.760  18.416  0.00  0.00    +0.000 OA
ATOM     25  C   UNL     1      -0.335  11.580  19.067  0.00  0.00    +0.000 C 
ATOM     26  O   UNL     1      -0.772  11.052  20.337  0.00  0.00    +0.000 OA
ENDBRANCH  17  18
ENDBRANCH   4  17
TORSDOF 4
ENDMDL
MODEL 3
REMARK VINA RESULT:      -7.8      1.021      1.230
REMARK  Name = 
REMARK  4 active torsions:
REMARK  status: ('A' for Active; 'I' for Inactive)
REMARK    1  A    between atoms: C_4  and  N_5
REMARK    2  A    between atoms: N_8  and  C_9
REMARK    3  A    between atoms: C_9  and  C_10
REMARK    4  A    between atoms: N_23  and  C_24
REMARK                            x       y       z     vdW  Elec       q    Type
REMARK                         _______ _______ _______ _____ _____    ______ ____
ROOT
ATOM      1  N   UNL     1       3.554   3.988  18.457  0.00  0.00    +0.000 NA
ATOM      2  C   UNL     1       2.538   4.872  17.848  0.00  0.00    +0.000 C 
ATOM      3  C   UNL     1       1.352   5.229  18.786  0.00  0.00    +0.000 C 
ATOM      4  N   UNL     1       1.749   5.725  20.122  0.00  0.00    +0.000 NA
ATOM      5  C   UNL     1       2.648   4.705  20.703  0.00  0.00    +0.000 C 
ATOM      6  C   UNL     1       3.889   4.398  19.839  0.00  0.00    +0.000 C 
ENDROOT
BRANCH   1  10
ATOM      7  O   UNL     1       5.899   5.860  14.930  0.00  0.00    +0.000 OA
ATOM      8  C   UNL     1       5.739   5.239  15.969  0.00  0.00    +0.000 C 
ATOM      9  C   UNL     1       4.621   4.260  16.181  0.00  0.00    +0.000 C 
ATOM     10  C   UNL     1       4.777   3.804  17.632  0.00  0.00    +0.000 C 
ATOM     11  C   UNL     1       5.998   4.567  18.134  0.00  0.00    +0.000 C 
ATOM     12  O   UNL     1       6.447   4.528  19.275  0.00  0.00    +0.000 OA
ATOM     13  N   UNL     1       6.500   5.319  17.104  0.00  0.00    +0.000 N 
BRANCH  13  14
ATOM     14  C   UNL     1       7.597   6.224  17.268  0.00  0.00    +0.000 C 
ATOM     15  C   UNL     1       7.378   7.695  17.521  0.00  0.00    +0.000 C 
ATOM     16  C   UNL     1       7.941   6.828  18.605  0.00  0.00    +0.000 C 
ENDBRANCH  13  14
ENDBRANCH   1  10
BRANCH   4  17
ATOM     17  C   UNL     1       2.376   7.057  20.002  0.00  0.00    +0.000 C 
BRANCH  17  18
ATOM     18  C   UNL     1       1.490   8.226  20.382  0.00  0.00    +0.000 A 
ATOM     19  C   UNL     1       1.073   9.161  19.408  0.00  0.00    +0.000 A 
ATOM     20  C   UNL     1       0.296  10.271  19.760  0.00  0.00    +0.000 A 
ATOM     21  C   UNL     1      -0.060  10.414  21.083  0.00  0.00    +0.000 A 
ATOM     22  C   UNL     1       0.330   9.506  22.038  0.00  0.00    +0.000 A 
ATOM     23  C   UNL     1       1.105   8.409  21.725  0.00  0.00    +0.000 A 
ATOM     24  O   UNL     1      -0.128   9.826  23.278  0.00  0.00    +0.000 OA
ATOM     25  C   UNL     1      -0.861  11.036  22.992  0.00  0.00    +0.000 C 
ATOM     26  O   UNL     1      -0.807  11.424  21.603  0.00  0.00    +0.000 OA
ENDBRANCH  17  18
ENDBRANCH   4  17
TORSDOF 4
ENDMDL
MODEL 4
REMARK VINA RESULT:      -7.7      1.677      7.355
REMARK  Name = 
REMARK  4 active torsions:
REMARK  status: ('A' for Active; 'I' for Inactive)
REMARK    1  A    between atoms: C_4  and  N_5
REMARK    2  A    between atoms: N_8  and  C_9
REMARK    3  A    between atoms: C_9  and  C_10
REMARK    4  A    between atoms: N_23  and  C_24
REMARK                            x       y       z     vdW  Elec       q    Type
REMARK                         _______ _______ _______ _____ _____    ______ ____
ROOT
ATOM      1  N   UNL     1       2.098   6.267  19.346  0.00  0.00    +0.000 NA
ATOM      2  C   UNL     1       2.450   5.320  20.425  0.00  0.00    +0.000 C 
ATOM      3  C   UNL     1       2.475   3.829  19.989  0.00  0.00    +0.000 C 
ATOM      4  N   UNL     1       3.265   3.556  18.769  0.00  0.00    +0.000 NA
ATOM      5  C   UNL     1       2.740   4.449  17.714  0.00  0.00    +0.000 C 
ATOM      6  C   UNL     1       2.793   5.947  18.078  0.00  0.00    +0.000 C 
ENDROOT
BRANCH   1  10
ATOM      7  O   UNL     1       0.713  10.523  18.157  0.00  0.00    +0.000 OA
ATOM      8  C   UNL     1       1.102   9.634  18.899  0.00  0.00    +0.000 C 
ATOM      9  C   UNL     1       2.175   8.655  18.521  0.00  0.00    +0.000 C 
ATOM     10  C   UNL     1       2.262   7.698  19.710  0.00  0.00    +0.000 C 
ATOM     11  C   UNL     1       1.219   8.225  20.689  0.00  0.00    +0.000 C 
ATOM     12  O   UNL     1       0.928   7.716  21.767  0.00  0.00    +0.000 OA
ATOM     13  N   UNL     1       0.648   9.351  20.158  0.00  0.00    +0.000 N 
BRANCH  13  14
ATOM     14  C   UNL     1      -0.436  10.042  20.789  0.00  0.00    +0.000 C 
ATOM     15  C   UNL     1      -0.214  10.944  21.979  0.00  0.00    +0.000 C 
ATOM     16  C   UNL     1      -0.614  11.534  20.661  0.00  0.00    +0.000 C 
ENDBRANCH  13  14
ENDBRANCH   1  10
BRANCH   4  17
ATOM     17  C   UNL     1       4.703   3.754  19.042  0.00  0.00    +0.000 C 
BRANCH  17  18
ATOM     18  C   UNL     1       5.523   4.250  17.868  0.00  0.00    +0.000 A 
ATOM     19  C   UNL     1       6.390   5.357  18.012  0.00  0.00    +0.000 A 
ATOM     20  C   UNL     1       7.112   5.853  16.920  0.00  0.00    +0.000 A 
ATOM     21  C   UNL     1       6.961   5.219  15.707  0.00  0.00    +0.000 A 
ATOM     22  C   UNL     1       6.129   4.136  15.556  0.00  0.00    +0.000 A 
ATOM     23  C   UNL     1       5.395   3.631  16.610  0.00  0.00    +0.000 A 
ATOM     24  O   UNL     1       6.125   3.655  14.284  0.00  0.00    +0.000 OA
ATOM     25  C   UNL     1       7.059   4.555  13.652  0.00  0.00    +0.000 C 
ATOM     26  O   UNL     1       7.581   5.561  14.546  0.00  0.00    +0.000 OA
ENDBRANCH  17  18
ENDBRANCH   4  17
TORSDOF 4
ENDMDL
MODEL 5
REMARK VINA RESULT:      -7.6      3.111      4.878
REMARK  Name = 
REMARK  4 active torsions:
REMARK  status: ('A' for Active; 'I' for Inactive)
REMARK    1  A    between atoms: C_4  and  N_5
REMARK    2  A    between atoms: N_8  and  C_9
REMARK    3  A    between atoms: C_9  and  C_10
REMARK    4  A    between atoms: N_23  and  C_24
REMARK                            x       y       z     vdW  Elec       q    Type
REMARK                         _______ _______ _______ _____ _____    ______ ____
ROOT
ATOM      1  N   UNL     1       2.614   7.382  19.448  0.00  0.00    +0.000 NA
ATOM      2  C   UNL     1       1.490   7.922  20.244  0.00  0.00    +0.000 C 
ATOM      3  C   UNL     1       1.226   9.438  20.034  0.00  0.00    +0.000 C 
ATOM      4  N   UNL     1       1.118   9.856  18.619  0.00  0.00    +0.000 NA
ATOM      5  C   UNL     1       2.351   9.395  17.945  0.00  0.00    +0.000 C 
ATOM      6  C   UNL     1       2.592   7.875  18.052  0.00  0.00    +0.000 C 
ENDROOT
BRANCH   1  10
ATOM      7  O   UNL     1       1.947   3.563  16.916  0.00  0.00    +0.000 OA
ATOM      8  C   UNL     1       2.465   4.273  17.763  0.00  0.00    +0.000 C 
ATOM      9  C   UNL     1       1.683   5.157  18.690  0.00  0.00    +0.000 C 
ATOM     10  C   UNL     1       2.744   5.902  19.501  0.00  0.00    +0.000 C 
ATOM     11  C   UNL     1       4.066   5.365  18.966  0.00  0.00    +0.000 C 
ATOM     12  O   UNL     1       5.183   5.735  19.316  0.00  0.00    +0.000 OA
ATOM     13  N   UNL     1       3.803   4.413  18.017  0.00  0.00    +0.000 N 
BRANCH  13  14
ATOM     14  C   UNL     1       4.831   3.773  17.254  0.00  0.00    +0.000 C 
ATOM     15  C   UNL     1       5.123   4.173  15.829  0.00  0.00    +0.000 C 
ATOM     16  C   UNL     1       6.120   4.473  16.906  0.00  0.00    +0.000 C 
ENDBRANCH  13  14
ENDBRANCH   1  10
BRANCH   4  17
ATOM     17  C   UNL     1      -0.116   9.307  18.021  0.00  0.00    +0.000 C 
BRANCH  17  18
ATOM     18  C   UNL     1      -1.340  10.195  18.131  0.00  0.00    +0.000 A 
ATOM     19  C   UNL     1      -1.466  11.118  19.194  0.00  0.00    +0.000 A 
ATOM     20  C   UNL     1      -2.616  11.905  19.332  0.00  0.00    +0.000 A 
ATOM     21  C   UNL     1      -3.611  11.760  18.391  0.00  0.00    +0.000 A 
ATOM     22  C   UNL     1      -3.496  10.873  17.347  0.00  0.00    +0.000 A 
ATOM     23  C   UNL     1      -2.381  10.076  17.191  0.00  0.00    +0.000 A 
ATOM     24  O   UNL     1      -4.583  10.887  16.530  0.00  0.00    +0.000 OA
ATOM     25  C   UNL     1      -5.393  11.892  17.175  0.00  0.00    +0.000 C 
ATOM     26  O   UNL     1      -4.790  12.439  18.366  0.00  0.00    +0.000 OA
ENDBRANCH  17  18
ENDBRANCH   4  17
TORSDOF 4
ENDMDL
MODEL 6
REMARK VINA RESULT:      -7.5      1.761      6.389
REMARK  Name = 
REMARK  4 active torsions:
REMARK  status: ('A' for Active; 'I' for Inactive)
REMARK    1  A    between atoms: C_4  and  N_5
REMARK    2  A    between atoms: N_8  and  C_9
REMARK    3  A    between atoms: C_9  and  C_10
REMARK    4  A    between atoms: N_23  and  C_24
REMARK                            x       y       z     vdW  Elec       q    Type
REMARK                         _______ _______ _______ _____ _____    ______ ____
ROOT
ATOM      1  N   UNL     1       1.781   5.634  19.653  0.00  0.00    +0.000 NA
ATOM      2  C   UNL     1       2.087   4.775  20.817  0.00  0.00    +0.000 C 
ATOM      3  C   UNL     1       1.697   3.283  20.634  0.00  0.00    +0.000 C 
ATOM      4  N   UNL     1       2.186   2.666  19.381  0.00  0.00    +0.000 NA
ATOM      5  C   UNL     1       1.707   3.519  18.273  0.00  0.00    +0.000 C 
ATOM      6  C   UNL     1       2.160   4.991  18.374  0.00  0.00    +0.000 C 
ENDROOT
BRANCH   1  10
ATOM      7  O   UNL     1       1.833   9.707  17.450  0.00  0.00    +0.000 OA
ATOM      8  C   UNL     1       1.871   8.944  18.403  0.00  0.00    +0.000 C 
ATOM      9  C   UNL     1       2.637   7.654  18.397  0.00  0.00    +0.000 C 
ATOM     10  C   UNL     1       2.326   7.013  19.750  0.00  0.00    +0.000 C 
ATOM     11  C   UNL     1       1.398   8.012  20.431  0.00  0.00    +0.000 C 
ATOM     12  O   UNL     1       0.870   7.866  21.529  0.00  0.00    +0.000 OA
ATOM     13  N   UNL     1       1.237   9.095  19.607  0.00  0.00    +0.000 N 
BRANCH  13  14
ATOM     14  C   UNL     1       0.352  10.178  19.913  0.00  0.00    +0.000 C 
ATOM     15  C   UNL     1       0.708  11.224  20.940  0.00  0.00    +0.000 C 
ATOM     16  C   UNL     1       0.648  11.594  19.489  0.00  0.00    +0.000 C 
ENDBRANCH  13  14
ENDBRANCH   1  10
BRANCH   4  17
ATOM     17  C   UNL     1       3.656   2.531  19.423  0.00  0.00    +0.000 C 
BRANCH  17  18
ATOM     18  C   UNL     1       4.416   3.430  18.468  0.00  0.00    +0.000 A 
ATOM     19  C   UNL     1       4.339   3.227  17.072  0.00  0.00    +0.000 A 
ATOM     20  C   UNL     1       5.077   4.020  16.186  0.00  0.00    +0.000 A 
ATOM     21  C   UNL     1       5.870   5.013  16.719  0.00  0.00    +0.000 A 
ATOM     22  C   UNL     1       5.947   5.227  18.074  0.00  0.00    +0.000 A 
ATOM     23  C   UNL     1       5.240   4.454  18.973  0.00  0.00    +0.000 A 
ATOM     24  O   UNL     1       6.779   6.254  18.393  0.00  0.00    +0.000 OA
ATOM     25  C   UNL     1       7.211   6.669  17.080  0.00  0.00    +0.000 C 
ATOM     26  O   UNL     1       6.651   5.874  16.014  0.00  0.00    +0.000 OA
ENDBRANCH  17  18
ENDBRANCH   4  17
TORSDOF 4
ENDMDL
MODEL 7
REMARK VINA RESULT:      -7.4      3.672      5.845
REMARK  Name = 
REMARK  4 active torsions:
REMARK  status: ('A' for Active; 'I' for Inactive)
REMARK    1  A    between atoms: C_4  and  N_5
REMARK    2  A    between atoms: N_8  and  C_9
REMARK    3  A    between atoms: C_9  and  C_10
REMARK    4  A    between atoms: N_23  and  C_24
REMARK                            x       y       z     vdW  Elec       q    Type
REMARK                         _______ _______ _______ _____ _____    ______ ____
ROOT
ATOM      1  N   UNL     1       2.315   8.153  19.594  0.00  0.00    +0.000 NA
ATOM      2  C   UNL     1       1.074   8.573  20.279  0.00  0.00    +0.000 C 
ATOM      3  C   UNL     1       0.543   9.967  19.848  0.00  0.00    +0.000 C 
ATOM      4  N   UNL     1       0.428  10.160  18.386  0.00  0.00    +0.000 NA
ATOM      5  C   UNL     1       1.756   9.855  17.813  0.00  0.00    +0.000 C 
ATOM      6  C   UNL     1       2.271   8.438  18.142  0.00  0.00    +0.000 C 
ENDROOT
BRANCH   1  10
ATOM      7  O   UNL     1       0.581   3.884  20.050  0.00  0.00    +0.000 OA
ATOM      8  C   UNL     1       1.412   4.736  19.776  0.00  0.00    +0.000 C 
ATOM      9  C   UNL     1       1.671   5.941  20.633  0.00  0.00    +0.000 C 
ATOM     10  C   UNL     1       2.716   6.747  19.861  0.00  0.00    +0.000 C 
ATOM     11  C   UNL     1       2.977   5.916  18.610  0.00  0.00    +0.000 C 
ATOM     12  O   UNL     1       3.724   6.227  17.687  0.00  0.00    +0.000 OA
ATOM     13  N   UNL     1       2.225   4.773  18.676  0.00  0.00    +0.000 N 
BRANCH  13  14
ATOM     14  C   UNL     1       2.172   3.816  17.613  0.00  0.00    +0.000 C 
ATOM     15  C   UNL     1       3.385   3.014  17.209  0.00  0.00    +0.000 C 
ATOM     16  C   UNL     1       2.227   2.332  17.871  0.00  0.00    +0.000 C 
ENDBRANCH  13  14
ENDBRANCH   1  10
BRANCH   4  17
ATOM     17  C   UNL     1      -0.652   9.309  17.846  0.00  0.00    +0.000 C 
BRANCH  17  18
ATOM     18  C   UNL     1      -1.939  10.034  17.506  0.00  0.00    +0.000 A 
ATOM     19  C   UNL     1      -2.424  10.057  16.179  0.00  0.00    +0.000 A 
ATOM     20  C   UNL     1      -3.584  10.766  15.848  0.00  0.00    +0.000 A 
ATOM     21  C   UNL     1      -4.244  11.428  16.860  0.00  0.00    +0.000 A 
ATOM     22  C   UNL     1      -3.789  11.405  18.156  0.00  0.00    +0.000 A 
ATOM     23  C   UNL     1      -2.643  10.725  18.511  0.00  0.00    +0.000 A 
ATOM     24  O   UNL     1      -4.584  12.116  19.000  0.00  0.00    +0.000 OA
ATOM     25  C   UNL     1      -5.600  12.581  18.086  0.00  0.00    +0.000 C 
ATOM     26  O   UNL     1      -5.381  12.163  16.723  0.00  0.00    +0.000 OA
ENDBRANCH  17  18
ENDBRANCH   4  17
TORSDOF 4
ENDMDL
MODEL 8
REMARK VINA RESULT:      -7.3      3.822      7.279
REMARK  Name = 
REMARK  4 active torsions:
REMARK  status: ('A' for Active; 'I' for Inactive)
REMARK    1  A    between atoms: C_4  and  N_5
REMARK    2  A    between atoms: N_8  and  C_9
REMARK    3  A    between atoms: C_9  and  C_10
REMARK    4  A    between atoms: N_23  and  C_24
REMARK                            x       y       z     vdW  Elec       q    Type
REMARK                         _______ _______ _______ _____ _____    ______ ____
ROOT
ATOM      1  N   UNL     1       5.896   5.611  18.477  0.00  0.00    +0.000 NA
ATOM      2  C   UNL     1       6.922   6.230  19.344  0.00  0.00    +0.000 C 
ATOM      3  C   UNL     1       8.199   6.700  18.594  0.00  0.00    +0.000 C 
ATOM      4  N   UNL     1       7.942   7.538  17.403  0.00  0.00    +0.000 NA
ATOM      5  C   UNL     1       7.022   6.771  16.535  0.00  0.00    +0.000 C 
ATOM      6  C   UNL     1       5.699   6.372  17.222  0.00  0.00    +0.000 C 
ENDROOT
BRANCH   1  10
ATOM      7  O   UNL     1       1.381   5.015  17.639  0.00  0.00    +0.000 OA
ATOM      8  C   UNL     1       2.444   4.873  18.223  0.00  0.00    +0.000 C 
ATOM      9  C   UNL     1       3.399   6.001  18.486  0.00  0.00    +0.000 C 
ATOM     10  C   UNL     1       4.603   5.340  19.157  0.00  0.00    +0.000 C 
ATOM     11  C   UNL     1       4.226   3.865  19.230  0.00  0.00    +0.000 C 
ATOM     12  O   UNL     1       4.939   2.964  19.661  0.00  0.00    +0.000 OA
ATOM     13  N   UNL     1       2.965   3.708  18.718  0.00  0.00    +0.000 N 
BRANCH  13  14
ATOM     14  C   UNL     1       2.346   2.426  18.559  0.00  0.00    +0.000 C 
ATOM     15  C   UNL     1       1.739   1.691  19.728  0.00  0.00    +0.000 C 
ATOM     16  C   UNL     1       0.853   2.244  18.654  0.00  0.00    +0.000 C 
ENDBRANCH  13  14
ENDBRANCH   1  10
BRANCH   4  17
ATOM     17  C   UNL     1       7.402   8.850  17.813  0.00  0.00    +0.000 C 
BRANCH  17  18
ATOM     18  C   UNL     1       8.437   9.868  18.250  0.00  0.00    +0.000 A 
ATOM     19  C   UNL     1       9.154   9.694  19.455  0.00  0.00    +0.000 A 
ATOM     20  C   UNL     1      10.074  10.655  19.891  0.00  0.00    +0.000 A 
ATOM     21  C   UNL     1      10.268  11.766  19.100  0.00  0.00    +0.000 A 
ATOM     22  C   UNL     1       9.584  11.941  17.921  0.00  0.00    +0.000 A 
ATOM     23  C   UNL     1       8.663  11.019  17.471  0.00  0.00    +0.000 A 
ATOM     24  O   UNL     1       9.923  13.098  17.290  0.00  0.00    +0.000 OA
ATOM     25  C   UNL     1      10.907  13.626  18.205  0.00  0.00    +0.000 C 
ATOM     26  O   UNL     1      11.118  12.794  19.364  0.00  0.00    +0.000 OA
ENDBRANCH  17  18
ENDBRANCH   4  17
TORSDOF 4
ENDMDL
MODEL 9
REMARK VINA RESULT:      -7.3      3.182      5.399
REMARK  Name = 
REMARK  4 active torsions:
REMARK  status: ('A' for Active; 'I' for Inactive)
REMARK    1  A    between atoms: C_4  and  N_5
REMARK    2  A    between atoms: N_8  and  C_9
REMARK    3  A    between atoms: C_9  and  C_10
REMARK    4  A    between atoms: N_23  and  C_24
REMARK                            x       y       z     vdW  Elec       q    Type
REMARK                         _______ _______ _______ _____ _____    ______ ____
ROOT
ATOM      1  N   UNL     1       3.125   7.448  18.525  0.00  0.00    +0.000 NA
ATOM      2  C   UNL     1       1.984   7.384  19.464  0.00  0.00    +0.000 C 
ATOM      3  C   UNL     1       1.446   8.770  19.916  0.00  0.00    +0.000 C 
ATOM      4  N   UNL     1       1.168   9.714  18.811  0.00  0.00    +0.000 NA
ATOM      5  C   UNL     1       2.412   9.817  18.018  0.00  0.00    +0.000 C 
ATOM      6  C   UNL     1       2.920   8.467  17.471  0.00  0.00    +0.000 C 
ENDROOT
BRANCH   1  10
ATOM      7  O   UNL     1       4.995   3.364  19.652  0.00  0.00    +0.000 OA
ATOM      8  C   UNL     1       4.287   4.143  19.033  0.00  0.00    +0.000 C 
ATOM      9  C   UNL     1       4.743   5.507  18.602  0.00  0.00    +0.000 C 
ATOM     10  C   UNL     1       3.513   6.136  17.945  0.00  0.00    +0.000 C 
ATOM     11  C   UNL     1       2.442   5.057  18.050  0.00  0.00    +0.000 C 
ATOM     12  O   UNL     1       1.276   5.167  17.683  0.00  0.00    +0.000 OA
ATOM     13  N   UNL     1       2.991   3.949  18.640  0.00  0.00    +0.000 N 
BRANCH  13  14
ATOM     14  C   UNL     1       2.224   2.784  18.967  0.00  0.00    +0.000 C 
ATOM     15  C   UNL     1       1.863   2.450  20.394  0.00  0.00    +0.000 C 
ATOM     16  C   UNL     1       0.794   2.875  19.434  0.00  0.00    +0.000 C 
ENDBRANCH  13  14
ENDBRANCH   1  10
BRANCH   4  17
ATOM     17  C   UNL     1       0.009   9.247  18.025  0.00  0.00    +0.000 C 
BRANCH  17  18
ATOM     18  C   UNL     1      -1.226  10.121  18.108  0.00  0.00    +0.000 A 
ATOM     19  C   UNL     1      -1.396  11.028  19.179  0.00  0.00    +0.000 A 
ATOM     20  C   UNL     1      -2.556  11.802  19.290  0.00  0.00    +0.000 A 
ATOM     21  C   UNL     1      -3.519  11.663  18.315  0.00  0.00    +0.000 A 
ATOM     22  C   UNL     1      -3.361  10.793  17.263  0.00  0.00    +0.000 A 
ATOM     23  C   UNL     1      -2.235  10.008  17.132  0.00  0.00    +0.000 A 
ATOM     24  O   UNL     1      -4.421  10.809  16.411  0.00  0.00    +0.000 OA
ATOM     25  C   UNL     1      -5.261  11.798  17.043  0.00  0.00    +0.000 C 
ATOM     26  O   UNL     1      -4.702  12.331  18.262  0.00  0.00    +0.000 OA
ENDBRANCH  17  18
ENDBRANCH   4  17
TORSDOF 4
ENDMDL
