MODEL 1
REMARK VINA RESULT:      -8.7      0.000      0.000
REMARK  Name = 
REMARK  6 active torsions:
REMARK  status: ('A' for Active; 'I' for Inactive)
REMARK    1  A    between atoms: C_1  and  C_2
REMARK    2  A    between atoms: C_5  and  C_6
REMARK    3  A    between atoms: N_8  and  C_9
REMARK    4  A    between atoms: C_13  and  N_14
REMARK    5  A    between atoms: C_15  and  C_17
REMARK    6  A    between atoms: C_20  and  C_21
REMARK                            x       y       z     vdW  Elec       q    Type
REMARK                         _______ _______ _______ _____ _____    ______ ____
ROOT
ATOM      1  N   UNL     1       4.396   6.976  17.537  0.00  0.00    +0.000 N 
ATOM      2  C   UNL     1       3.104   6.673  17.964  0.00  0.00    +0.000 C 
ATOM      3  O   UNL     1       2.602   5.553  17.912  0.00  0.00    +0.000 OA
ATOM      4  H   UNL     1       4.642   7.956  17.581  0.00  0.00    +0.000 HD
ENDROOT
BRANCH   1  11
ATOM      5  C   UNL     1       6.216   5.698  19.474  0.00  0.00    +0.000 C 
ATOM      6  C   UNL     1       6.260   5.454  17.988  0.00  0.00    +0.000 A 
ATOM      7  C   UNL     1       7.240   4.565  17.513  0.00  0.00    +0.000 A 
ATOM      8  C   UNL     1       7.355   4.283  16.154  0.00  0.00    +0.000 A 
ATOM      9  C   UNL     1       6.495   4.881  15.232  0.00  0.00    +0.000 A 
ATOM     10  C   UNL     1       5.522   5.774  15.700  0.00  0.00    +0.000 A 
ATOM     11  C   UNL     1       5.390   6.079  17.067  0.00  0.00    +0.000 A 
BRANCH   9  12
ATOM     12  C   UNL     1       6.675   4.527  13.790  0.00  0.00    +0.000 C 
ATOM     13  O   UNL     1       7.429   5.212  13.097  0.00  0.00    +0.000 OA
ATOM     14  N   UNL     1       5.981   3.445  13.277  0.00  0.00    +0.000 N 
ATOM     15  H   UNL     1       5.341   2.909  13.847  0.00  0.00    +0.000 HD
BRANCH  14  16
ATOM     16  C   UNL     1       6.104   3.081  11.900  0.00  0.00    +0.000 C 
ATOM     17  C   UNL     1       5.947   1.646  11.481  0.00  0.00    +0.000 C 
ATOM     18  C   UNL     1       4.914   2.660  11.084  0.00  0.00    +0.000 C 
ENDBRANCH  14  16
ENDBRANCH   9  12
ENDBRANCH   1  11
BRANCH   2  19
ATOM     19  C   UNL     1       2.342   7.792  18.517  0.00  0.00    +0.000 A 
ATOM     20  C   UNL     1       1.887   8.893  17.814  0.00  0.00    +0.000 A 
ATOM     21  C   UNL     1       1.099   9.767  18.616  0.00  0.00    +0.000 A 
ATOM     22  C   UNL     1       0.977   9.323  19.920  0.00  0.00    +0.000 A 
ATOM     23  S   UNL     1       1.873   7.875  20.157  0.00  0.00    +0.000 S 
BRANCH  22  24
ATOM     24  C   UNL     1       0.202   9.899  21.022  0.00  0.00    +0.000 A 
ATOM     25  C   UNL     1       0.083   9.245  22.247  0.00  0.00    +0.000 A 
ATOM     26  C   UNL     1      -0.667   9.843  23.256  0.00  0.00    +0.000 A 
ATOM     27  C   UNL     1      -1.276  11.068  23.014  0.00  0.00    +0.000 A 
ATOM     28  C   UNL     1      -1.105  11.651  21.769  0.00  0.00    +0.000 A 
ATOM     29  N   UNL     1      -0.384  11.094  20.772  0.00  0.00    +0.000 NA
ENDBRANCH  22  24
ENDBRANCH   2  19
TORSDOF 5
ENDMDL
MODEL 2
REMARK VINA RESULT:      -8.3      0.918      1.289
REMARK  Name = 
REMARK  6 active torsions:
REMARK  status: ('A' for Active; 'I' for Inactive)
REMARK    1  A    between atoms: C_1  and  C_2
REMARK    2  A    between atoms: C_5  and  C_6
REMARK    3  A    between atoms: N_8  and  C_9
REMARK    4  A    between atoms: C_13  and  N_14
REMARK    5  A    between atoms: C_15  and  C_17
REMARK    6  A    between atoms: C_20  and  C_21
REMARK                            x       y       z     vdW  Elec       q    Type
REMARK                         _______ _______ _______ _____ _____    ______ ____
ROOT
ATOM      1  N   UNL     1       4.285   6.816  17.182  0.00  0.00    +0.000 N 
ATOM      2  C   UNL     1       3.128   6.513  17.897  0.00  0.00    +0.000 C 
ATOM      3  O   UNL     1       2.702   5.375  18.075  0.00  0.00    +0.000 OA
ATOM      4  H   UNL     1       4.469   7.804  17.063  0.00  0.00    +0.000 HD
ENDROOT
BRANCH   1  11
ATOM      5  C   UNL     1       6.497   5.809  18.851  0.00  0.00    +0.000 C 
ATOM      6  C   UNL     1       6.280   5.415  17.414  0.00  0.00    +0.000 A 
ATOM      7  C   UNL     1       7.202   4.517  16.848  0.00  0.00    +0.000 A 
ATOM      8  C   UNL     1       7.079   4.102  15.524  0.00  0.00    +0.000 A 
ATOM      9  C   UNL     1       6.034   4.572  14.729  0.00  0.00    +0.000 A 
ATOM     10  C   UNL     1       5.117   5.472  15.286  0.00  0.00    +0.000 A 
ATOM     11  C   UNL     1       5.222   5.911  16.619  0.00  0.00    +0.000 A 
BRANCH   9  12
ATOM     12  C   UNL     1       5.964   4.078  13.319  0.00  0.00    +0.000 C 
ATOM     13  O   UNL     1       6.991   4.069  12.638  0.00  0.00    +0.000 OA
ATOM     14  N   UNL     1       4.744   3.656  12.819  0.00  0.00    +0.000 N 
ATOM     15  H   UNL     1       3.902   3.698  13.376  0.00  0.00    +0.000 HD
BRANCH  14  16
ATOM     16  C   UNL     1       4.623   3.197  11.470  0.00  0.00    +0.000 C 
ATOM     17  C   UNL     1       3.316   2.643  10.976  0.00  0.00    +0.000 C 
ATOM     18  C   UNL     1       3.825   3.953  10.447  0.00  0.00    +0.000 C 
ENDBRANCH  14  16
ENDBRANCH   9  12
ENDBRANCH   1  11
BRANCH   2  19
ATOM     19  C   UNL     1       2.420   7.658  18.468  0.00  0.00    +0.000 A 
ATOM     20  C   UNL     1       2.064   8.812  17.794  0.00  0.00    +0.000 A 
ATOM     21  C   UNL     1       1.304   9.706  18.602  0.00  0.00    +0.000 A 
ATOM     22  C   UNL     1       1.104   9.221  19.882  0.00  0.00    +0.000 A 
ATOM     23  S   UNL     1       1.894   7.709  20.092  0.00  0.00    +0.000 S 
BRANCH  22  24
ATOM     24  C   UNL     1       0.325   9.805  20.978  0.00  0.00    +0.000 A 
ATOM     25  C   UNL     1      -0.368  11.003  20.819  0.00  0.00    +0.000 A 
ATOM     26  C   UNL     1      -1.090  11.508  21.897  0.00  0.00    +0.000 A 
ATOM     27  C   UNL     1      -1.098  10.807  23.096  0.00  0.00    +0.000 A 
ATOM     28  C   UNL     1      -0.384   9.623  23.168  0.00  0.00    +0.000 A 
ATOM     29  N   UNL     1       0.325   9.110  22.140  0.00  0.00    +0.000 NA
ENDBRANCH  22  24
ENDBRANCH   2  19
TORSDOF 5
ENDMDL
MODEL 3
REMARK VINA RESULT:      -8.2      1.455      1.932
REMARK  Name = 
REMARK  6 active torsions:
REMARK  status: ('A' for Active; 'I' for Inactive)
REMARK    1  A    between atoms: C_1  and  C_2
REMARK    2  A    between atoms: C_5  and  C_6
REMARK    3  A    between atoms: N_8  and  C_9
REMARK    4  A    between atoms: C_13  and  N_14
REMARK    5  A    between atoms: C_15  and  C_17
REMARK    6  A    between atoms: C_20  and  C_21
REMARK                            x       y       z     vdW  Elec       q    Type
REMARK                         _______ _______ _______ _____ _____    ______ ____
ROOT
ATOM      1  N   UNL     1       4.404   6.772  17.775  0.00  0.00    +0.000 N 
ATOM      2  C   UNL     1       3.165   6.366  18.267  0.00  0.00    +0.000 C 
ATOM      3  O   UNL     1       2.748   5.212  18.225  0.00  0.00    +0.000 OA
ATOM      4  H   UNL     1       4.577   7.769  17.821  0.00  0.00    +0.000 HD
ENDROOT
BRANCH   1  11
ATOM      5  C   UNL     1       6.412   5.602  19.590  0.00  0.00    +0.000 C 
ATOM      6  C   UNL     1       6.397   5.387  18.100  0.00  0.00    +0.000 A 
ATOM      7  C   UNL     1       7.413   4.582  17.557  0.00  0.00    +0.000 A 
ATOM      8  C   UNL     1       7.478   4.332  16.188  0.00  0.00    +0.000 A 
ATOM      9  C   UNL     1       6.530   4.880  15.324  0.00  0.00    +0.000 A 
ATOM     10  C   UNL     1       5.519   5.689  15.859  0.00  0.00    +0.000 A 
ATOM     11  C   UNL     1       5.436   5.960  17.237  0.00  0.00    +0.000 A 
BRANCH   9  12
ATOM     12  C   UNL     1       6.660   4.565  13.867  0.00  0.00    +0.000 C 
ATOM     13  O   UNL     1       7.411   5.251  13.173  0.00  0.00    +0.000 OA
ATOM     14  N   UNL     1       5.925   3.515  13.344  0.00  0.00    +0.000 N 
ATOM     15  H   UNL     1       5.288   2.978  13.917  0.00  0.00    +0.000 HD
BRANCH  14  16
ATOM     16  C   UNL     1       6.000   3.190  11.954  0.00  0.00    +0.000 C 
ATOM     17  C   UNL     1       5.787   1.773  11.498  0.00  0.00    +0.000 C 
ATOM     18  C   UNL     1       4.777   2.831  11.159  0.00  0.00    +0.000 C 
ENDBRANCH  14  16
ENDBRANCH   9  12
ENDBRANCH   1  11
BRANCH   2  19
ATOM     19  C   UNL     1       2.352   7.417  18.879  0.00  0.00    +0.000 A 
ATOM     20  C   UNL     1       1.925   7.452  20.194  0.00  0.00    +0.000 A 
ATOM     21  C   UNL     1       1.224   8.651  20.509  0.00  0.00    +0.000 A 
ATOM     22  C   UNL     1       1.119   9.504  19.425  0.00  0.00    +0.000 A 
ATOM     23  S   UNL     1       1.831   8.801  18.026  0.00  0.00    +0.000 S 
BRANCH  22  24
ATOM     24  C   UNL     1       0.537  10.847  19.360  0.00  0.00    +0.000 A 
ATOM     25  C   UNL     1      -0.528  11.138  18.511  0.00  0.00    +0.000 A 
ATOM     26  C   UNL     1      -1.039  12.433  18.495  0.00  0.00    +0.000 A 
ATOM     27  C   UNL     1      -0.473  13.396  19.320  0.00  0.00    +0.000 A 
ATOM     28  C   UNL     1       0.583  13.023  20.135  0.00  0.00    +0.000 A 
ATOM     29  N   UNL     1       1.098  11.775  20.172  0.00  0.00    +0.000 NA
ENDBRANCH  22  24
ENDBRANCH   2  19
TORSDOF 5
ENDMDL
MODEL 4
REMARK VINA RESULT:      -7.9      2.446      3.651
REMARK  Name = 
REMARK  6 active torsions:
REMARK  status: ('A' for Active; 'I' for Inactive)
REMARK    1  A    between atoms: C_1  and  C_2
REMARK    2  A    between atoms: C_5  and  C_6
REMARK    3  A    between atoms: N_8  and  C_9
REMARK    4  A    between atoms: C_13  and  N_14
REMARK    5  A    between atoms: C_15  and  C_17
REMARK    6  A    between atoms: C_20  and  C_21
REMARK                            x       y       z     vdW  Elec       q    Type
REMARK                         _______ _______ _______ _____ _____    ______ ____
ROOT
ATOM      1  N   UNL     1       2.234   6.376  20.308  0.00  0.00    +0.000 N 
ATOM      2  C   UNL     1       1.970   7.619  19.737  0.00  0.00    +0.000 C 
ATOM      3  O   UNL     1       2.283   7.937  18.593  0.00  0.00    +0.000 OA
ATOM      4  H   UNL     1       1.975   6.289  21.283  0.00  0.00    +0.000 HD
ENDROOT
BRANCH   1  11
ATOM      5  C   UNL     1       1.065   3.718  20.822  0.00  0.00    +0.000 C 
ATOM      6  C   UNL     1       2.245   3.959  19.917  0.00  0.00    +0.000 A 
ATOM      7  C   UNL     1       2.816   2.836  19.294  0.00  0.00    +0.000 A 
ATOM      8  C   UNL     1       3.911   2.966  18.444  0.00  0.00    +0.000 A 
ATOM      9  C   UNL     1       4.468   4.221  18.194  0.00  0.00    +0.000 A 
ATOM     10  C   UNL     1       3.907   5.342  18.819  0.00  0.00    +0.000 A 
ATOM     11  C   UNL     1       2.804   5.236  19.685  0.00  0.00    +0.000 A 
BRANCH   9  12
ATOM     12  C   UNL     1       5.640   4.283  17.267  0.00  0.00    +0.000 C 
ATOM     13  O   UNL     1       6.711   4.723  17.687  0.00  0.00    +0.000 OA
ATOM     14  N   UNL     1       5.481   3.853  15.960  0.00  0.00    +0.000 N 
ATOM     15  H   UNL     1       4.590   3.524  15.617  0.00  0.00    +0.000 HD
BRANCH  14  16
ATOM     16  C   UNL     1       6.567   3.914  15.032  0.00  0.00    +0.000 C 
ATOM     17  C   UNL     1       6.297   3.876  13.553  0.00  0.00    +0.000 C 
ATOM     18  C   UNL     1       6.818   5.132  14.189  0.00  0.00    +0.000 C 
ENDBRANCH  14  16
ENDBRANCH   9  12
ENDBRANCH   1  11
BRANCH   2  19
ATOM     19  C   UNL     1       1.257   8.569  20.591  0.00  0.00    +0.000 A 
ATOM     20  C   UNL     1       1.191   8.531  21.972  0.00  0.00    +0.000 A 
ATOM     21  C   UNL     1       0.494   9.646  22.519  0.00  0.00    +0.000 A 
ATOM     22  C   UNL     1       0.029  10.509  21.543  0.00  0.00    +0.000 A 
ATOM     23  S   UNL     1       0.405   9.915  19.974  0.00  0.00    +0.000 S 
BRANCH  22  24
ATOM     24  C   UNL     1      -0.668  11.789  21.699  0.00  0.00    +0.000 A 
ATOM     25  C   UNL     1      -1.341  12.384  20.635  0.00  0.00    +0.000 A 
ATOM     26  C   UNL     1      -1.985  13.600  20.845  0.00  0.00    +0.000 A 
ATOM     27  C   UNL     1      -1.936  14.186  22.105  0.00  0.00    +0.000 A 
ATOM     28  C   UNL     1      -1.246  13.526  23.108  0.00  0.00    +0.000 A 
ATOM     29  N   UNL     1      -0.612  12.346  22.932  0.00  0.00    +0.000 NA
ENDBRANCH  22  24
ENDBRANCH   2  19
TORSDOF 5
ENDMDL
MODEL 5
REMARK VINA RESULT:      -7.7      2.098      2.981
REMARK  Name = 
REMARK  6 active torsions:
REMARK  status: ('A' for Active; 'I' for Inactive)
REMARK    1  A    between atoms: C_1  and  C_2
REMARK    2  A    between atoms: C_5  and  C_6
REMARK    3  A    between atoms: N_8  and  C_9
REMARK    4  A    between atoms: C_13  and  N_14
REMARK    5  A    between atoms: C_15  and  C_17
REMARK    6  A    between atoms: C_20  and  C_21
REMARK                            x       y       z     vdW  Elec       q    Type
REMARK                         _______ _______ _______ _____ _____    ______ ____
ROOT
ATOM      1  N   UNL     1       2.405   7.234  19.265  0.00  0.00    +0.000 N 
ATOM      2  C   UNL     1       2.226   8.294  18.379  0.00  0.00    +0.000 C 
ATOM      3  O   UNL     1       2.633   8.304  17.220  0.00  0.00    +0.000 OA
ATOM      4  H   UNL     1       2.073   7.401  20.206  0.00  0.00    +0.000 HD
ENDROOT
BRANCH   1  11
ATOM      5  C   UNL     1       1.341   4.853  20.641  0.00  0.00    +0.000 C 
ATOM      6  C   UNL     1       2.470   4.816  19.646  0.00  0.00    +0.000 A 
ATOM      7  C   UNL     1       3.044   3.562  19.373  0.00  0.00    +0.000 A 
ATOM      8  C   UNL     1       4.095   3.435  18.468  0.00  0.00    +0.000 A 
ATOM      9  C   UNL     1       4.602   4.557  17.811  0.00  0.00    +0.000 A 
ATOM     10  C   UNL     1       4.038   5.810  18.085  0.00  0.00    +0.000 A 
ATOM     11  C   UNL     1       2.980   5.964  18.999  0.00  0.00    +0.000 A 
BRANCH   9  12
ATOM     12  C   UNL     1       5.729   4.343  16.850  0.00  0.00    +0.000 C 
ATOM     13  O   UNL     1       6.887   4.435  17.258  0.00  0.00    +0.000 OA
ATOM     14  N   UNL     1       5.432   4.058  15.528  0.00  0.00    +0.000 N 
ATOM     15  H   UNL     1       4.478   4.016  15.198  0.00  0.00    +0.000 HD
BRANCH  14  16
ATOM     16  C   UNL     1       6.475   3.867  14.568  0.00  0.00    +0.000 C 
ATOM     17  C   UNL     1       6.144   3.766  13.105  0.00  0.00    +0.000 C 
ATOM     18  C   UNL     1       6.890   4.960  13.625  0.00  0.00    +0.000 C 
ENDBRANCH  14  16
ENDBRANCH   9  12
ENDBRANCH   1  11
BRANCH   2  19
ATOM     19  C   UNL     1       1.486   9.440  18.905  0.00  0.00    +0.000 A 
ATOM     20  C   UNL     1       1.396  10.690  18.319  0.00  0.00    +0.000 A 
ATOM     21  C   UNL     1       0.528  11.567  19.030  0.00  0.00    +0.000 A 
ATOM     22  C   UNL     1      -0.020  10.973  20.153  0.00  0.00    +0.000 A 
ATOM     23  S   UNL     1       0.577   9.374  20.350  0.00  0.00    +0.000 S 
BRANCH  22  24
ATOM     24  C   UNL     1      -1.001  11.516  21.097  0.00  0.00    +0.000 A 
ATOM     25  C   UNL     1      -0.979  11.171  22.447  0.00  0.00    +0.000 A 
ATOM     26  C   UNL     1      -1.937  11.719  23.295  0.00  0.00    +0.000 A 
ATOM     27  C   UNL     1      -2.886  12.590  22.774  0.00  0.00    +0.000 A 
ATOM     28  C   UNL     1      -2.835  12.882  21.421  0.00  0.00    +0.000 A 
ATOM     29  N   UNL     1      -1.918  12.365  20.575  0.00  0.00    +0.000 NA
ENDBRANCH  22  24
ENDBRANCH   2  19
TORSDOF 5
ENDMDL
MODEL 6
REMARK VINA RESULT:      -7.7      2.359      3.696
REMARK  Name = 
REMARK  6 active torsions:
REMARK  status: ('A' for Active; 'I' for Inactive)
REMARK    1  A    between atoms: C_1  and  C_2
REMARK    2  A    between atoms: C_5  and  C_6
REMARK    3  A    between atoms: N_8  and  C_9
REMARK    4  A    between atoms: C_13  and  N_14
REMARK    5  A    between atoms: C_15  and  C_17
REMARK    6  A    between atoms: C_20  and  C_21
REMARK                            x       y       z     vdW  Elec       q    Type
REMARK                         _______ _______ _______ _____ _____    ______ ____
ROOT
ATOM      1  N   UNL     1       1.992   7.110  20.312  0.00  0.00    +0.000 N 
ATOM      2  C   UNL     1       1.507   8.351  19.906  0.00  0.00    +0.000 C 
ATOM      3  O   UNL     1       1.642   8.813  18.776  0.00  0.00    +0.000 OA
ATOM      4  H   UNL     1       1.861   6.899  21.293  0.00  0.00    +0.000 HD
ENDROOT
BRANCH   1  11
ATOM      5  C   UNL     1       1.649   4.264  21.004  0.00  0.00    +0.000 C 
ATOM      6  C   UNL     1       2.461   4.755  19.835  0.00  0.00    +0.000 A 
ATOM      7  C   UNL     1       3.092   3.783  19.039  0.00  0.00    +0.000 A 
ATOM      8  C   UNL     1       3.865   4.147  17.939  0.00  0.00    +0.000 A 
ATOM      9  C   UNL     1       4.030   5.491  17.604  0.00  0.00    +0.000 A 
ATOM     10  C   UNL     1       3.408   6.464  18.398  0.00  0.00    +0.000 A 
ATOM     11  C   UNL     1       2.628   6.121  19.517  0.00  0.00    +0.000 A 
BRANCH   9  12
ATOM     12  C   UNL     1       4.870   5.805  16.407  0.00  0.00    +0.000 C 
ATOM     13  O   UNL     1       5.258   6.962  16.237  0.00  0.00    +0.000 OA
ATOM     14  N   UNL     1       5.178   4.786  15.522  0.00  0.00    +0.000 N 
ATOM     15  H   UNL     1       4.828   3.848  15.654  0.00  0.00    +0.000 HD
BRANCH  14  16
ATOM     16  C   UNL     1       5.960   5.043  14.352  0.00  0.00    +0.000 C 
ATOM     17  C   UNL     1       7.377   4.548  14.268  0.00  0.00    +0.000 C 
ATOM     18  C   UNL     1       6.319   3.950  13.386  0.00  0.00    +0.000 C 
ENDBRANCH  14  16
ENDBRANCH   9  12
ENDBRANCH   1  11
BRANCH   2  19
ATOM     19  C   UNL     1       0.782   9.111  20.925  0.00  0.00    +0.000 A 
ATOM     20  C   UNL     1       0.635   8.755  22.253  0.00  0.00    +0.000 A 
ATOM     21  C   UNL     1      -0.050   9.746  23.013  0.00  0.00    +0.000 A 
ATOM     22  C   UNL     1      -0.423  10.836  22.246  0.00  0.00    +0.000 A 
ATOM     23  S   UNL     1       0.021  10.605  20.602  0.00  0.00    +0.000 S 
BRANCH  22  24
ATOM     24  C   UNL     1      -1.079  12.078  22.666  0.00  0.00    +0.000 A 
ATOM     25  C   UNL     1      -2.386  12.082  23.148  0.00  0.00    +0.000 A 
ATOM     26  C   UNL     1      -2.954  13.294  23.531  0.00  0.00    +0.000 A 
ATOM     27  C   UNL     1      -2.206  14.460  23.422  0.00  0.00    +0.000 A 
ATOM     28  C   UNL     1      -0.913  14.366  22.935  0.00  0.00    +0.000 A 
ATOM     29  N   UNL     1      -0.336  13.205  22.555  0.00  0.00    +0.000 NA
ENDBRANCH  22  24
ENDBRANCH   2  19
TORSDOF 5
ENDMDL
MODEL 7
REMARK VINA RESULT:      -7.6      0.997      1.206
REMARK  Name = 
REMARK  6 active torsions:
REMARK  status: ('A' for Active; 'I' for Inactive)
REMARK    1  A    between atoms: C_1  and  C_2
REMARK    2  A    between atoms: C_5  and  C_6
REMARK    3  A    between atoms: N_8  and  C_9
REMARK    4  A    between atoms: C_13  and  N_14
REMARK    5  A    between atoms: C_15  and  C_17
REMARK    6  A    between atoms: C_20  and  C_21
REMARK                            x       y       z     vdW  Elec       q    Type
REMARK                         _______ _______ _______ _____ _____    ______ ____
ROOT
ATOM      1  N   UNL     1       4.278   6.726  16.839  0.00  0.00    +0.000 N 
ATOM      2  C   UNL     1       3.328   6.398  17.804  0.00  0.00    +0.000 C 
ATOM      3  O   UNL     1       3.089   5.254  18.181  0.00  0.00    +0.000 OA
ATOM      4  H   UNL     1       4.311   7.705  16.586  0.00  0.00    +0.000 HD
ENDROOT
BRANCH   1  11
ATOM      5  C   UNL     1       6.897   6.201  18.087  0.00  0.00    +0.000 C 
ATOM      6  C   UNL     1       6.448   5.592  16.785  0.00  0.00    +0.000 A 
ATOM      7  C   UNL     1       7.347   4.729  16.135  0.00  0.00    +0.000 A 
ATOM      8  C   UNL     1       7.015   4.125  14.925  0.00  0.00    +0.000 A 
ATOM      9  C   UNL     1       5.777   4.367  14.330  0.00  0.00    +0.000 A 
ATOM     10  C   UNL     1       4.880   5.232  14.970  0.00  0.00    +0.000 A 
ATOM     11  C   UNL     1       5.194   5.858  16.189  0.00  0.00    +0.000 A 
BRANCH   9  12
ATOM     12  C   UNL     1       5.490   3.680  13.032  0.00  0.00    +0.000 C 
ATOM     13  O   UNL     1       4.600   4.124  12.306  0.00  0.00    +0.000 OA
ATOM     14  N   UNL     1       6.228   2.558  12.694  0.00  0.00    +0.000 N 
ATOM     15  H   UNL     1       6.934   2.184  13.312  0.00  0.00    +0.000 HD
BRANCH  14  16
ATOM     16  C   UNL     1       5.974   1.855  11.475  0.00  0.00    +0.000 C 
ATOM     17  C   UNL     1       7.119   1.430  10.597  0.00  0.00    +0.000 C 
ATOM     18  C   UNL     1       6.304   0.398  11.320  0.00  0.00    +0.000 C 
ENDBRANCH  14  16
ENDBRANCH   9  12
ENDBRANCH   1  11
BRANCH   2  19
ATOM     19  C   UNL     1       2.606   7.528  18.390  0.00  0.00    +0.000 A 
ATOM     20  C   UNL     1       2.222   8.679  17.727  0.00  0.00    +0.000 A 
ATOM     21  C   UNL     1       1.456   9.554  18.549  0.00  0.00    +0.000 A 
ATOM     22  C   UNL     1       1.279   9.059  19.828  0.00  0.00    +0.000 A 
ATOM     23  S   UNL     1       2.098   7.560  20.020  0.00  0.00    +0.000 S 
BRANCH  22  24
ATOM     24  C   UNL     1       0.503   9.623  20.936  0.00  0.00    +0.000 A 
ATOM     25  C   UNL     1       0.250   8.889  22.093  0.00  0.00    +0.000 A 
ATOM     26  C   UNL     1      -0.493   9.479  23.112  0.00  0.00    +0.000 A 
ATOM     27  C   UNL     1      -0.962  10.776  22.946  0.00  0.00    +0.000 A 
ATOM     28  C   UNL     1      -0.664  11.435  21.765  0.00  0.00    +0.000 A 
ATOM     29  N   UNL     1       0.054  10.888  20.761  0.00  0.00    +0.000 NA
ENDBRANCH  22  24
ENDBRANCH   2  19
TORSDOF 5
ENDMDL
MODEL 8
REMARK VINA RESULT:      -7.6      1.749      2.358
REMARK  Name = 
REMARK  6 active torsions:
REMARK  status: ('A' for Active; 'I' for Inactive)
REMARK    1  A    between atoms: C_1  and  C_2
REMARK    2  A    between atoms: C_5  and  C_6
REMARK    3  A    between atoms: N_8  and  C_9
REMARK    4  A    between atoms: C_13  and  N_14
REMARK    5  A    between atoms: C_15  and  C_17
REMARK    6  A    between atoms: C_20  and  C_21
REMARK                            x       y       z     vdW  Elec       q    Type
REMARK                         _______ _______ _______ _____ _____    ______ ____
ROOT
ATOM      1  N   UNL     1       4.407   5.607  17.002  0.00  0.00    +0.000 N 
ATOM      2  C   UNL     1       4.027   4.903  18.142  0.00  0.00    +0.000 C 
ATOM      3  O   UNL     1       4.441   3.785  18.436  0.00  0.00    +0.000 OA
ATOM      4  H   UNL     1       3.927   6.488  16.863  0.00  0.00    +0.000 HD
ENDROOT
BRANCH   1  11
ATOM      5  C   UNL     1       7.252   6.162  17.544  0.00  0.00    +0.000 C 
ATOM      6  C   UNL     1       6.747   5.494  16.292  0.00  0.00    +0.000 A 
ATOM      7  C   UNL     1       7.705   5.125  15.331  0.00  0.00    +0.000 A 
ATOM      8  C   UNL     1       7.327   4.505  14.142  0.00  0.00    +0.000 A 
ATOM      9  C   UNL     1       5.983   4.238  13.880  0.00  0.00    +0.000 A 
ATOM     10  C   UNL     1       5.024   4.610  14.831  0.00  0.00    +0.000 A 
ATOM     11  C   UNL     1       5.381   5.242  16.036  0.00  0.00    +0.000 A 
BRANCH   9  12
ATOM     12  C   UNL     1       5.653   3.566  12.584  0.00  0.00    +0.000 C 
ATOM     13  O   UNL     1       6.528   2.919  12.008  0.00  0.00    +0.000 OA
ATOM     14  N   UNL     1       4.375   3.702  12.069  0.00  0.00    +0.000 N 
ATOM     15  H   UNL     1       3.675   4.261  12.535  0.00  0.00    +0.000 HD
BRANCH  14  16
ATOM     16  C   UNL     1       4.019   3.097  10.823  0.00  0.00    +0.000 C 
ATOM     17  C   UNL     1       2.575   2.846  10.492  0.00  0.00    +0.000 C 
ATOM     18  C   UNL     1       3.352   3.878   9.727  0.00  0.00    +0.000 C 
ENDBRANCH  14  16
ENDBRANCH   9  12
ENDBRANCH   1  11
BRANCH   2  19
ATOM     19  C   UNL     1       3.083   5.589  19.024  0.00  0.00    +0.000 A 
ATOM     20  C   UNL     1       2.418   5.027  20.099  0.00  0.00    +0.000 A 
ATOM     21  C   UNL     1       1.635   5.976  20.816  0.00  0.00    +0.000 A 
ATOM     22  C   UNL     1       1.707   7.244  20.266  0.00  0.00    +0.000 A 
ATOM     23  S   UNL     1       2.687   7.241  18.854  0.00  0.00    +0.000 S 
BRANCH  22  24
ATOM     24  C   UNL     1       1.106   8.492  20.745  0.00  0.00    +0.000 A 
ATOM     25  C   UNL     1       0.769   8.668  22.086  0.00  0.00    +0.000 A 
ATOM     26  C   UNL     1       0.202   9.876  22.480  0.00  0.00    +0.000 A 
ATOM     27  C   UNL     1      -0.014  10.868  21.531  0.00  0.00    +0.000 A 
ATOM     28  C   UNL     1       0.352  10.611  20.220  0.00  0.00    +0.000 A 
ATOM     29  N   UNL     1       0.904   9.449  19.809  0.00  0.00    +0.000 NA
ENDBRANCH  22  24
ENDBRANCH   2  19
TORSDOF 5
ENDMDL
MODEL 9
REMARK VINA RESULT:      -7.5      1.561      2.006
REMARK  Name = 
REMARK  6 active torsions:
REMARK  status: ('A' for Active; 'I' for Inactive)
REMARK    1  A    between atoms: C_1  and  C_2
REMARK    2  A    between atoms: C_5  and  C_6
REMARK    3  A    between atoms: N_8  and  C_9
REMARK    4  A    between atoms: C_13  and  N_14
REMARK    5  A    between atoms: C_15  and  C_17
REMARK    6  A    between atoms: C_20  and  C_21
REMARK                            x       y       z     vdW  Elec       q    Type
REMARK                         _______ _______ _______ _____ _____    ______ ____
ROOT
ATOM      1  N   UNL     1       4.226   6.505  17.619  0.00  0.00    +0.000 N 
ATOM      2  C   UNL     1       3.074   6.092  18.284  0.00  0.00    +0.000 C 
ATOM      3  O   UNL     1       2.657   4.937  18.296  0.00  0.00    +0.000 OA
ATOM      4  H   UNL     1       4.402   7.502  17.645  0.00  0.00    +0.000 HD
ENDROOT
BRANCH   1  11
ATOM      5  C   UNL     1       6.730   5.740  18.977  0.00  0.00    +0.000 C 
ATOM      6  C   UNL     1       6.368   5.319  17.576  0.00  0.00    +0.000 A 
ATOM      7  C   UNL     1       7.296   4.519  16.887  0.00  0.00    +0.000 A 
ATOM      8  C   UNL     1       7.045   4.087  15.587  0.00  0.00    +0.000 A 
ATOM      9  C   UNL     1       5.862   4.443  14.939  0.00  0.00    +0.000 A 
ATOM     10  C   UNL     1       4.937   5.246  15.620  0.00  0.00    +0.000 A 
ATOM     11  C   UNL     1       5.171   5.700  16.930  0.00  0.00    +0.000 A 
BRANCH   9  12
ATOM     12  C   UNL     1       5.659   3.938  13.545  0.00  0.00    +0.000 C 
ATOM     13  O   UNL     1       4.574   4.125  12.994  0.00  0.00    +0.000 OA
ATOM     14  N   UNL     1       6.698   3.268  12.922  0.00  0.00    +0.000 N 
ATOM     15  H   UNL     1       7.573   3.093  13.395  0.00  0.00    +0.000 HD
BRANCH  14  16
ATOM     16  C   UNL     1       6.544   2.748  11.599  0.00  0.00    +0.000 C 
ATOM     17  C   UNL     1       7.543   1.766  11.053  0.00  0.00    +0.000 C 
ATOM     18  C   UNL     1       6.141   1.322  11.352  0.00  0.00    +0.000 C 
ENDBRANCH  14  16
ENDBRANCH   9  12
ENDBRANCH   1  11
BRANCH   2  19
ATOM     19  C   UNL     1       2.357   7.136  19.015  0.00  0.00    +0.000 A 
ATOM     20  C   UNL     1       1.976   7.084  20.343  0.00  0.00    +0.000 A 
ATOM     21  C   UNL     1       1.371   8.295  20.787  0.00  0.00    +0.000 A 
ATOM     22  C   UNL     1       1.291   9.245  19.785  0.00  0.00    +0.000 A 
ATOM     23  S   UNL     1       1.906   8.623  18.305  0.00  0.00    +0.000 S 
BRANCH  22  24
ATOM     24  C   UNL     1       0.802  10.625  19.859  0.00  0.00    +0.000 A 
ATOM     25  C   UNL     1       0.096  11.203  18.806  0.00  0.00    +0.000 A 
ATOM     26  C   UNL     1      -0.342  12.518  18.935  0.00  0.00    +0.000 A 
ATOM     27  C   UNL     1      -0.063  13.215  20.104  0.00  0.00    +0.000 A 
ATOM     28  C   UNL     1       0.643  12.564  21.103  0.00  0.00    +0.000 A 
ATOM     29  N   UNL     1       1.081  11.291  21.005  0.00  0.00    +0.000 NA
ENDBRANCH  22  24
ENDBRANCH   2  19
TORSDOF 5
ENDMDL
