MODEL 1
REMARK VINA RESULT:      -8.4      0.000      0.000
REMARK  Name = 
REMARK  7 active torsions:
REMARK  status: ('A' for Active; 'I' for Inactive)
REMARK    1  A    between atoms: C_1  and  C_2
REMARK    2  A    between atoms: C_5  and  N_6
REMARK    3  A    between atoms: C_7  and  C_9
REMARK    4  A    between atoms: C_15  and  S_16
REMARK    5  A    between atoms: S_16  and  C_17
REMARK    6  A    between atoms: C_17  and  C_18
REMARK    7  A    between atoms: N_20  and  C_21
REMARK                            x       y       z     vdW  Elec       q    Type
REMARK                         _______ _______ _______ _____ _____    ______ ____
ROOT
ATOM      1  C   UNL     1       1.513   8.679  19.606  0.00  0.00    +0.000 A 
ATOM      2  C   UNL     1       1.194   8.026  20.869  0.00  0.00    +0.000 A 
ATOM      3  C   UNL     1       0.659   8.724  21.894  0.00  0.00    +0.000 A 
ATOM      4  C   UNL     1       0.406  10.117  21.754  0.00  0.00    +0.000 A 
ATOM      5  N   UNL     1      -0.044  11.030  22.587  0.00  0.00    +0.000 NA
ATOM      6  N   UNL     1      -0.058  12.240  21.941  0.00  0.00    +0.000 NA
ATOM      7  C   UNL     1       0.395  12.047  20.720  0.00  0.00    +0.000 A 
ATOM      8  N   UNL     1       0.719  10.718  20.539  0.00  0.00    +0.000 N 
ATOM      9  C   UNL     1       1.271  10.004  19.477  0.00  0.00    +0.000 A 
ENDROOT
BRANCH   1  11
ATOM     10  N   UNL     1       2.999   6.918  18.753  0.00  0.00    +0.000 N 
ATOM     11  C   UNL     1       2.240   8.037  18.469  0.00  0.00    +0.000 C 
ATOM     12  O   UNL     1       2.065   8.509  17.356  0.00  0.00    +0.000 OA
ATOM     13  H   UNL     1       2.962   6.524  19.680  0.00  0.00    +0.000 HD
BRANCH  10  18
ATOM     14  C   UNL     1       6.023   3.997  14.832  0.00  0.00    +0.000 C 
ATOM     15  C   UNL     1       5.224   4.752  15.851  0.00  0.00    +0.000 A 
ATOM     16  C   UNL     1       4.278   4.097  16.637  0.00  0.00    +0.000 A 
ATOM     17  C   UNL     1       3.534   4.809  17.580  0.00  0.00    +0.000 A 
ATOM     18  C   UNL     1       3.722   6.181  17.774  0.00  0.00    +0.000 A 
ATOM     19  C   UNL     1       4.658   6.843  16.972  0.00  0.00    +0.000 A 
ATOM     20  C   UNL     1       5.409   6.129  16.027  0.00  0.00    +0.000 A 
ENDBRANCH  10  18
ENDBRANCH   1  11
BRANCH   7  21
ATOM     21  S   UNL     1       0.561  13.262  19.500  0.00  0.00    +0.000 S 
BRANCH  21  22
ATOM     22  C   UNL     1      -0.747  12.836  18.307  0.00  0.00    +0.000 C 
BRANCH  22  23
ATOM     23  C   UNL     1      -1.980  12.336  19.024  0.00  0.00    +0.000 C 
ATOM     24  O   UNL     1      -2.372  11.185  18.829  0.00  0.00    +0.000 OA
ATOM     25  N   UNL     1      -2.589  13.277  19.845  0.00  0.00    +0.000 N 
ATOM     26  H   UNL     1      -2.328  14.253  19.702  0.00  0.00    +0.000 HD
BRANCH  25  27
ATOM     27  C   UNL     1      -3.768  13.034  20.582  0.00  0.00    +0.000 A 
ATOM     28  C   UNL     1      -5.018  12.935  19.965  0.00  0.00    +0.000 A 
ATOM     29  C   UNL     1      -6.187  12.853  20.719  0.00  0.00    +0.000 A 
ATOM     30  C   UNL     1      -6.105  12.833  22.104  0.00  0.00    +0.000 A 
ATOM     31 BR   UNL     1      -7.696  12.808  23.120  0.00  0.00    +0.000 Br
ATOM     32  C   UNL     1      -4.863  12.851  22.737  0.00  0.00    +0.000 A 
ATOM     33  C   UNL     1      -3.690  12.936  21.976  0.00  0.00    +0.000 A 
ENDBRANCH  25  27
ENDBRANCH  22  23
ENDBRANCH  21  22
ENDBRANCH   7  21
TORSDOF 6
ENDMDL
MODEL 2
REMARK VINA RESULT:      -8.3      5.488      8.592
REMARK  Name = 
REMARK  7 active torsions:
REMARK  status: ('A' for Active; 'I' for Inactive)
REMARK    1  A    between atoms: C_1  and  C_2
REMARK    2  A    between atoms: C_5  and  N_6
REMARK    3  A    between atoms: C_7  and  C_9
REMARK    4  A    between atoms: C_15  and  S_16
REMARK    5  A    between atoms: S_16  and  C_17
REMARK    6  A    between atoms: C_17  and  C_18
REMARK    7  A    between atoms: N_20  and  C_21
REMARK                            x       y       z     vdW  Elec       q    Type
REMARK                         _______ _______ _______ _____ _____    ______ ____
ROOT
ATOM      1  C   UNL     1       6.663   6.706  17.514  0.00  0.00    +0.000 A 
ATOM      2  C   UNL     1       6.239   6.777  16.123  0.00  0.00    +0.000 A 
ATOM      3  C   UNL     1       5.349   5.892  15.624  0.00  0.00    +0.000 A 
ATOM      4  C   UNL     1       4.818   4.867  16.455  0.00  0.00    +0.000 A 
ATOM      5  N   UNL     1       4.002   3.863  16.223  0.00  0.00    +0.000 NA
ATOM      6  N   UNL     1       3.850   3.148  17.384  0.00  0.00    +0.000 NA
ATOM      7  C   UNL     1       4.587   3.724  18.309  0.00  0.00    +0.000 A 
ATOM      8  N   UNL     1       5.240   4.819  17.780  0.00  0.00    +0.000 N 
ATOM      9  C   UNL     1       6.157   5.729  18.303  0.00  0.00    +0.000 A 
ENDROOT
BRANCH   1  11
ATOM     10  N   UNL     1       7.768   8.881  17.806  0.00  0.00    +0.000 N 
ATOM     11  C   UNL     1       7.747   7.537  18.124  0.00  0.00    +0.000 C 
ATOM     12  O   UNL     1       8.502   6.983  18.908  0.00  0.00    +0.000 OA
ATOM     13  H   UNL     1       7.013   9.267  17.262  0.00  0.00    +0.000 HD
BRANCH  10  18
ATOM     14  C   UNL     1      11.640  12.524  19.995  0.00  0.00    +0.000 C 
ATOM     15  C   UNL     1      10.627  11.583  19.416  0.00  0.00    +0.000 A 
ATOM     16  C   UNL     1      10.414  11.530  18.040  0.00  0.00    +0.000 A 
ATOM     17  C   UNL     1       9.465  10.655  17.509  0.00  0.00    +0.000 A 
ATOM     18  C   UNL     1       8.716   9.804  18.329  0.00  0.00    +0.000 A 
ATOM     19  C   UNL     1       8.916   9.870  19.712  0.00  0.00    +0.000 A 
ATOM     20  C   UNL     1       9.872  10.746  20.247  0.00  0.00    +0.000 A 
ENDBRANCH  10  18
ENDBRANCH   1  11
BRANCH   7  21
ATOM     21  S   UNL     1       4.729   3.209  19.955  0.00  0.00    +0.000 S 
BRANCH  21  22
ATOM     22  C   UNL     1       2.999   3.148  20.521  0.00  0.00    +0.000 C 
BRANCH  22  23
ATOM     23  C   UNL     1       2.225   4.337  19.999  0.00  0.00    +0.000 C 
ATOM     24  O   UNL     1       1.184   4.154  19.368  0.00  0.00    +0.000 OA
ATOM     25  N   UNL     1       2.808   5.568  20.271  0.00  0.00    +0.000 N 
ATOM     26  H   UNL     1       3.789   5.563  20.552  0.00  0.00    +0.000 HD
BRANCH  25  27
ATOM     27  C   UNL     1       2.272   6.804  19.849  0.00  0.00    +0.000 A 
ATOM     28  C   UNL     1       2.490   7.303  18.562  0.00  0.00    +0.000 A 
ATOM     29  C   UNL     1       2.089   8.591  18.214  0.00  0.00    +0.000 A 
ATOM     30  C   UNL     1       1.432   9.377  19.149  0.00  0.00    +0.000 A 
ATOM     31 BR   UNL     1       0.968  11.151  18.698  0.00  0.00    +0.000 Br
ATOM     32  C   UNL     1       1.135   8.869  20.414  0.00  0.00    +0.000 A 
ATOM     33  C   UNL     1       1.542   7.574  20.761  0.00  0.00    +0.000 A 
ENDBRANCH  25  27
ENDBRANCH  22  23
ENDBRANCH  21  22
ENDBRANCH   7  21
TORSDOF 6
ENDMDL
MODEL 3
REMARK VINA RESULT:      -8.3      5.374      8.539
REMARK  Name = 
REMARK  7 active torsions:
REMARK  status: ('A' for Active; 'I' for Inactive)
REMARK    1  A    between atoms: C_1  and  C_2
REMARK    2  A    between atoms: C_5  and  N_6
REMARK    3  A    between atoms: C_7  and  C_9
REMARK    4  A    between atoms: C_15  and  S_16
REMARK    5  A    between atoms: S_16  and  C_17
REMARK    6  A    between atoms: C_17  and  C_18
REMARK    7  A    between atoms: N_20  and  C_21
REMARK                            x       y       z     vdW  Elec       q    Type
REMARK                         _______ _______ _______ _____ _____    ______ ____
ROOT
ATOM      1  C   UNL     1       6.674   6.698  17.510  0.00  0.00    +0.000 A 
ATOM      2  C   UNL     1       6.286   6.767  16.108  0.00  0.00    +0.000 A 
ATOM      3  C   UNL     1       5.401   5.888  15.591  0.00  0.00    +0.000 A 
ATOM      4  C   UNL     1       4.839   4.872  16.413  0.00  0.00    +0.000 A 
ATOM      5  N   UNL     1       4.019   3.875  16.165  0.00  0.00    +0.000 NA
ATOM      6  N   UNL     1       3.830   3.167  17.324  0.00  0.00    +0.000 NA
ATOM      7  C   UNL     1       4.549   3.741  18.266  0.00  0.00    +0.000 A 
ATOM      8  N   UNL     1       5.226   4.827  17.749  0.00  0.00    +0.000 N 
ATOM      9  C   UNL     1       6.138   5.731  18.290  0.00  0.00    +0.000 A 
ENDROOT
BRANCH   1  11
ATOM     10  N   UNL     1       7.774   8.870  17.844  0.00  0.00    +0.000 N 
ATOM     11  C   UNL     1       7.750   7.522  18.144  0.00  0.00    +0.000 C 
ATOM     12  O   UNL     1       8.496   6.958  18.929  0.00  0.00    +0.000 OA
ATOM     13  H   UNL     1       7.024   9.263  17.297  0.00  0.00    +0.000 HD
BRANCH  10  18
ATOM     14  C   UNL     1      11.539  12.658  19.972  0.00  0.00    +0.000 C 
ATOM     15  C   UNL     1      10.561  11.662  19.426  0.00  0.00    +0.000 A 
ATOM     16  C   UNL     1       9.797  10.875  20.286  0.00  0.00    +0.000 A 
ATOM     17  C   UNL     1       8.892   9.946  19.769  0.00  0.00    +0.000 A 
ATOM     18  C   UNL     1       8.715   9.787  18.391  0.00  0.00    +0.000 A 
ATOM     19  C   UNL     1       9.495  10.563  17.527  0.00  0.00    +0.000 A 
ATOM     20  C   UNL     1      10.402  11.500  18.045  0.00  0.00    +0.000 A 
ENDBRANCH  10  18
ENDBRANCH   1  11
BRANCH   7  21
ATOM     21  S   UNL     1       4.643   3.233  19.917  0.00  0.00    +0.000 S 
BRANCH  21  22
ATOM     22  C   UNL     1       2.901   3.223  20.449  0.00  0.00    +0.000 C 
BRANCH  22  23
ATOM     23  C   UNL     1       2.189   4.466  19.967  0.00  0.00    +0.000 C 
ATOM     24  O   UNL     1       1.179   4.357  19.273  0.00  0.00    +0.000 OA
ATOM     25  N   UNL     1       2.792   5.658  20.350  0.00  0.00    +0.000 N 
ATOM     26  H   UNL     1       3.756   5.604  20.680  0.00  0.00    +0.000 HD
BRANCH  25  27
ATOM     27  C   UNL     1       2.314   6.935  19.984  0.00  0.00    +0.000 A 
ATOM     28  C   UNL     1       1.586   7.734  20.871  0.00  0.00    +0.000 A 
ATOM     29  C   UNL     1       0.988   8.918  20.445  0.00  0.00    +0.000 A 
ATOM     30  C   UNL     1       1.148   9.328  19.129  0.00  0.00    +0.000 A 
ATOM     31 BR   UNL     1       0.265  10.889  18.537  0.00  0.00    +0.000 Br
ATOM     32  C   UNL     1       1.935   8.586  18.249  0.00  0.00    +0.000 A 
ATOM     33  C   UNL     1       2.533   7.394  18.680  0.00  0.00    +0.000 A 
ENDBRANCH  25  27
ENDBRANCH  22  23
ENDBRANCH  21  22
ENDBRANCH   7  21
TORSDOF 6
ENDMDL
MODEL 4
REMARK VINA RESULT:      -8.2      6.041     10.646
REMARK  Name = 
REMARK  7 active torsions:
REMARK  status: ('A' for Active; 'I' for Inactive)
REMARK    1  A    between atoms: C_1  and  C_2
REMARK    2  A    between atoms: C_5  and  N_6
REMARK    3  A    between atoms: C_7  and  C_9
REMARK    4  A    between atoms: C_15  and  S_16
REMARK    5  A    between atoms: S_16  and  C_17
REMARK    6  A    between atoms: C_17  and  C_18
REMARK    7  A    between atoms: N_20  and  C_21
REMARK                            x       y       z     vdW  Elec       q    Type
REMARK                         _______ _______ _______ _____ _____    ______ ____
ROOT
ATOM      1  C   UNL     1       3.302   5.544  18.813  0.00  0.00    +0.000 A 
ATOM      2  C   UNL     1       2.860   4.557  17.838  0.00  0.00    +0.000 A 
ATOM      3  C   UNL     1       3.726   4.031  16.945  0.00  0.00    +0.000 A 
ATOM      4  C   UNL     1       5.087   4.443  16.941  0.00  0.00    +0.000 A 
ATOM      5  N   UNL     1       6.108   4.147  16.167  0.00  0.00    +0.000 NA
ATOM      6  N   UNL     1       7.198   4.865  16.588  0.00  0.00    +0.000 NA
ATOM      7  C   UNL     1       6.821   5.601  17.612  0.00  0.00    +0.000 A 
ATOM      8  N   UNL     1       5.484   5.388  17.882  0.00  0.00    +0.000 N 
ATOM      9  C   UNL     1       4.597   5.935  18.808  0.00  0.00    +0.000 A 
ENDROOT
BRANCH   1  11
ATOM     10  N   UNL     1       2.318   7.663  19.576  0.00  0.00    +0.000 N 
ATOM     11  C   UNL     1       2.400   6.294  19.742  0.00  0.00    +0.000 C 
ATOM     12  O   UNL     1       1.753   5.638  20.543  0.00  0.00    +0.000 OA
ATOM     13  H   UNL     1       2.784   8.089  18.791  0.00  0.00    +0.000 HD
BRANCH  10  18
ATOM     14  C   UNL     1      -1.148  11.051  22.668  0.00  0.00    +0.000 C 
ATOM     15  C   UNL     1      -0.235  10.170  21.870  0.00  0.00    +0.000 A 
ATOM     16  C   UNL     1       0.626   9.279  22.508  0.00  0.00    +0.000 A 
ATOM     17  C   UNL     1       1.477   8.465  21.758  0.00  0.00    +0.000 A 
ATOM     18  C   UNL     1       1.483   8.507  20.360  0.00  0.00    +0.000 A 
ATOM     19  C   UNL     1       0.633   9.415  19.719  0.00  0.00    +0.000 A 
ATOM     20  C   UNL     1      -0.226  10.230  20.471  0.00  0.00    +0.000 A 
ENDBRANCH  10  18
ENDBRANCH   1  11
BRANCH   7  21
ATOM     21  S   UNL     1       7.834   6.678  18.511  0.00  0.00    +0.000 S 
BRANCH  21  22
ATOM     22  C   UNL     1       7.638   8.263  17.634  0.00  0.00    +0.000 C 
BRANCH  22  23
ATOM     23  C   UNL     1       8.518   9.326  18.251  0.00  0.00    +0.000 C 
ATOM     24  O   UNL     1       9.090   9.096  19.317  0.00  0.00    +0.000 OA
ATOM     25  N   UNL     1       8.570  10.516  17.536  0.00  0.00    +0.000 N 
ATOM     26  H   UNL     1       7.845  10.665  16.834  0.00  0.00    +0.000 HD
BRANCH  25  27
ATOM     27  C   UNL     1       9.305  11.649  17.947  0.00  0.00    +0.000 A 
ATOM     28  C   UNL     1      10.701  11.641  18.012  0.00  0.00    +0.000 A 
ATOM     29  C   UNL     1      11.400  12.711  18.569  0.00  0.00    +0.000 A 
ATOM     30  C   UNL     1      10.700  13.816  19.031  0.00  0.00    +0.000 A 
ATOM     31 BR   UNL     1      11.646  15.224  19.860  0.00  0.00    +0.000 Br
ATOM     32  C   UNL     1       9.313  13.877  18.902  0.00  0.00    +0.000 A 
ATOM     33  C   UNL     1       8.613  12.798  18.345  0.00  0.00    +0.000 A 
ENDBRANCH  25  27
ENDBRANCH  22  23
ENDBRANCH  21  22
ENDBRANCH   7  21
TORSDOF 6
ENDMDL
MODEL 5
REMARK VINA RESULT:      -8.1      5.399     11.061
REMARK  Name = 
REMARK  7 active torsions:
REMARK  status: ('A' for Active; 'I' for Inactive)
REMARK    1  A    between atoms: C_1  and  C_2
REMARK    2  A    between atoms: C_5  and  N_6
REMARK    3  A    between atoms: C_7  and  C_9
REMARK    4  A    between atoms: C_15  and  S_16
REMARK    5  A    between atoms: S_16  and  C_17
REMARK    6  A    between atoms: C_17  and  C_18
REMARK    7  A    between atoms: N_20  and  C_21
REMARK                            x       y       z     vdW  Elec       q    Type
REMARK                         _______ _______ _______ _____ _____    ______ ____
ROOT
ATOM      1  C   UNL     1       2.499   6.828  18.357  0.00  0.00    +0.000 A 
ATOM      2  C   UNL     1       1.620   5.683  18.168  0.00  0.00    +0.000 A 
ATOM      3  C   UNL     1       2.088   4.422  18.295  0.00  0.00    +0.000 A 
ATOM      4  C   UNL     1       3.457   4.197  18.608  0.00  0.00    +0.000 A 
ATOM      5  N   UNL     1       4.176   3.103  18.730  0.00  0.00    +0.000 NA
ATOM      6  N   UNL     1       5.471   3.461  19.008  0.00  0.00    +0.000 NA
ATOM      7  C   UNL     1       5.524   4.776  19.041  0.00  0.00    +0.000 A 
ATOM      8  N   UNL     1       4.277   5.307  18.782  0.00  0.00    +0.000 N 
ATOM      9  C   UNL     1       3.801   6.611  18.655  0.00  0.00    +0.000 A 
ENDROOT
BRANCH   1  11
ATOM     10  N   UNL     1       1.347   8.886  19.048  0.00  0.00    +0.000 N 
ATOM     11  C   UNL     1       2.121   8.251  18.096  0.00  0.00    +0.000 C 
ATOM     12  O   UNL     1       2.573   8.773  17.088  0.00  0.00    +0.000 OA
ATOM     13  H   UNL     1       1.147   8.409  19.913  0.00  0.00    +0.000 HD
BRANCH  10  18
ATOM     14  C   UNL     1      -0.250  14.389  18.583  0.00  0.00    +0.000 C 
ATOM     15  C   UNL     1       0.158  12.953  18.713  0.00  0.00    +0.000 A 
ATOM     16  C   UNL     1      -0.798  11.961  18.924  0.00  0.00    +0.000 A 
ATOM     17  C   UNL     1      -0.409  10.626  19.050  0.00  0.00    +0.000 A 
ATOM     18  C   UNL     1       0.933  10.244  18.956  0.00  0.00    +0.000 A 
ATOM     19  C   UNL     1       1.895  11.241  18.764  0.00  0.00    +0.000 A 
ATOM     20  C   UNL     1       1.506  12.583  18.633  0.00  0.00    +0.000 A 
ENDBRANCH  10  18
ENDBRANCH   1  11
BRANCH   7  21
ATOM     21  S   UNL     1       6.936   5.722  19.366  0.00  0.00    +0.000 S 
BRANCH  21  22
ATOM     22  C   UNL     1       7.289   6.506  17.760  0.00  0.00    +0.000 C 
BRANCH  22  23
ATOM     23  C   UNL     1       7.316   5.473  16.657  0.00  0.00    +0.000 C 
ATOM     24  O   UNL     1       7.965   4.439  16.809  0.00  0.00    +0.000 OA
ATOM     25  N   UNL     1       6.597   5.826  15.521  0.00  0.00    +0.000 N 
ATOM     26  H   UNL     1       6.343   6.809  15.421  0.00  0.00    +0.000 HD
BRANCH  25  27
ATOM     27  C   UNL     1       6.513   5.025  14.362  0.00  0.00    +0.000 A 
ATOM     28  C   UNL     1       5.487   4.094  14.180  0.00  0.00    +0.000 A 
ATOM     29  C   UNL     1       5.507   3.203  13.108  0.00  0.00    +0.000 A 
ATOM     30  C   UNL     1       6.544   3.265  12.189  0.00  0.00    +0.000 A 
ATOM     31 BR   UNL     1       6.611   2.001  10.788  0.00  0.00    +0.000 Br
ATOM     32  C   UNL     1       7.536   4.239  12.309  0.00  0.00    +0.000 A 
ATOM     33  C   UNL     1       7.513   5.132  13.390  0.00  0.00    +0.000 A 
ENDBRANCH  25  27
ENDBRANCH  22  23
ENDBRANCH  21  22
ENDBRANCH   7  21
TORSDOF 6
ENDMDL
MODEL 6
REMARK VINA RESULT:      -8.1      5.945     10.608
REMARK  Name = 
REMARK  7 active torsions:
REMARK  status: ('A' for Active; 'I' for Inactive)
REMARK    1  A    between atoms: C_1  and  C_2
REMARK    2  A    between atoms: C_5  and  N_6
REMARK    3  A    between atoms: C_7  and  C_9
REMARK    4  A    between atoms: C_15  and  S_16
REMARK    5  A    between atoms: S_16  and  C_17
REMARK    6  A    between atoms: C_17  and  C_18
REMARK    7  A    between atoms: N_20  and  C_21
REMARK                            x       y       z     vdW  Elec       q    Type
REMARK                         _______ _______ _______ _____ _____    ______ ____
ROOT
ATOM      1  C   UNL     1       3.065   5.455  18.854  0.00  0.00    +0.000 A 
ATOM      2  C   UNL     1       2.557   4.473  17.905  0.00  0.00    +0.000 A 
ATOM      3  C   UNL     1       3.380   3.890  17.006  0.00  0.00    +0.000 A 
ATOM      4  C   UNL     1       4.759   4.235  16.970  0.00  0.00    +0.000 A 
ATOM      5  N   UNL     1       5.749   3.876  16.183  0.00  0.00    +0.000 NA
ATOM      6  N   UNL     1       6.880   4.547  16.572  0.00  0.00    +0.000 NA
ATOM      7  C   UNL     1       6.559   5.319  17.589  0.00  0.00    +0.000 A 
ATOM      8  N   UNL     1       5.219   5.176  17.886  0.00  0.00    +0.000 N 
ATOM      9  C   UNL     1       4.378   5.782  18.817  0.00  0.00    +0.000 A 
ENDROOT
BRANCH   1  11
ATOM     10  N   UNL     1       2.155   7.626  19.560  0.00  0.00    +0.000 N 
ATOM     11  C   UNL     1       2.219   6.265  19.784  0.00  0.00    +0.000 C 
ATOM     12  O   UNL     1       1.595   5.659  20.642  0.00  0.00    +0.000 OA
ATOM     13  H   UNL     1       2.594   8.007  18.737  0.00  0.00    +0.000 HD
BRANCH  10  18
ATOM     14  C   UNL     1      -0.917  11.263  22.782  0.00  0.00    +0.000 C 
ATOM     15  C   UNL     1      -0.126  10.314  21.934  0.00  0.00    +0.000 A 
ATOM     16  C   UNL     1      -0.177  10.395  20.544  0.00  0.00    +0.000 A 
ATOM     17  C   UNL     1       0.559   9.503  19.761  0.00  0.00    +0.000 A 
ATOM     18  C   UNL     1       1.371   8.522  20.339  0.00  0.00    +0.000 A 
ATOM     19  C   UNL     1       1.408   8.428  21.734  0.00  0.00    +0.000 A 
ATOM     20  C   UNL     1       0.672   9.326  22.522  0.00  0.00    +0.000 A 
ENDBRANCH  10  18
ENDBRANCH   1  11
BRANCH   7  21
ATOM     21  S   UNL     1       7.641   6.360  18.449  0.00  0.00    +0.000 S 
BRANCH  21  22
ATOM     22  C   UNL     1       7.499   7.939  17.551  0.00  0.00    +0.000 C 
BRANCH  22  23
ATOM     23  C   UNL     1       8.362   8.999  18.197  0.00  0.00    +0.000 C 
ATOM     24  O   UNL     1       8.998   8.726  19.215  0.00  0.00    +0.000 OA
ATOM     25  N   UNL     1       8.323  10.236  17.566  0.00  0.00    +0.000 N 
ATOM     26  H   UNL     1       7.556  10.398  16.913  0.00  0.00    +0.000 HD
BRANCH  25  27
ATOM     27  C   UNL     1       9.026  11.373  18.020  0.00  0.00    +0.000 A 
ATOM     28  C   UNL     1       8.613  12.671  17.704  0.00  0.00    +0.000 A 
ATOM     29  C   UNL     1       9.403  13.773  18.024  0.00  0.00    +0.000 A 
ATOM     30  C   UNL     1      10.601  13.582  18.698  0.00  0.00    +0.000 A 
ATOM     31 BR   UNL     1      11.706  15.070  19.054  0.00  0.00    +0.000 Br
ATOM     32  C   UNL     1      10.991  12.302  19.092  0.00  0.00    +0.000 A 
ATOM     33  C   UNL     1      10.196  11.195  18.766  0.00  0.00    +0.000 A 
ENDBRANCH  25  27
ENDBRANCH  22  23
ENDBRANCH  21  22
ENDBRANCH   7  21
TORSDOF 6
ENDMDL
MODEL 7
REMARK VINA RESULT:      -7.9      5.602     10.431
REMARK  Name = 
REMARK  7 active torsions:
REMARK  status: ('A' for Active; 'I' for Inactive)
REMARK    1  A    between atoms: C_1  and  C_2
REMARK    2  A    between atoms: C_5  and  N_6
REMARK    3  A    between atoms: C_7  and  C_9
REMARK    4  A    between atoms: C_15  and  S_16
REMARK    5  A    between atoms: S_16  and  C_17
REMARK    6  A    between atoms: C_17  and  C_18
REMARK    7  A    between atoms: N_20  and  C_21
REMARK                            x       y       z     vdW  Elec       q    Type
REMARK                         _______ _______ _______ _____ _____    ______ ____
ROOT
ATOM      1  C   UNL     1       2.600   6.850  19.546  0.00  0.00    +0.000 A 
ATOM      2  C   UNL     1       2.103   5.701  20.290  0.00  0.00    +0.000 A 
ATOM      3  C   UNL     1       2.786   4.535  20.301  0.00  0.00    +0.000 A 
ATOM      4  C   UNL     1       4.002   4.413  19.574  0.00  0.00    +0.000 A 
ATOM      5  N   UNL     1       4.821   3.405  19.368  0.00  0.00    +0.000 NA
ATOM      6  N   UNL     1       5.837   3.830  18.549  0.00  0.00    +0.000 NA
ATOM      7  C   UNL     1       5.615   5.095  18.259  0.00  0.00    +0.000 A 
ATOM      8  N   UNL     1       4.456   5.525  18.871  0.00  0.00    +0.000 N 
ATOM      9  C   UNL     1       3.758   6.731  18.856  0.00  0.00    +0.000 A 
ENDROOT
BRANCH   1  11
ATOM     10  N   UNL     1       1.116   8.606  20.415  0.00  0.00    +0.000 N 
ATOM     11  C   UNL     1       1.854   8.131  19.348  0.00  0.00    +0.000 C 
ATOM     12  O   UNL     1       1.996   8.700  18.276  0.00  0.00    +0.000 OA
ATOM     13  H   UNL     1       1.181   8.134  21.303  0.00  0.00    +0.000 HD
BRANCH  10  18
ATOM     14  C   UNL     1      -1.759  13.583  20.322  0.00  0.00    +0.000 C 
ATOM     15  C   UNL     1      -1.020  12.280  20.345  0.00  0.00    +0.000 A 
ATOM     16  C   UNL     1      -1.355  11.260  19.455  0.00  0.00    +0.000 A 
ATOM     17  C   UNL     1      -0.665  10.046  19.486  0.00  0.00    +0.000 A 
ATOM     18  C   UNL     1       0.378   9.822  20.389  0.00  0.00    +0.000 A 
ATOM     19  C   UNL     1       0.703  10.838  21.295  0.00  0.00    +0.000 A 
ATOM     20  C   UNL     1       0.013  12.060  21.263  0.00  0.00    +0.000 A 
ENDBRANCH  10  18
ENDBRANCH   1  11
BRANCH   7  21
ATOM     21  S   UNL     1       6.619   6.095  17.266  0.00  0.00    +0.000 S 
BRANCH  21  22
ATOM     22  C   UNL     1       7.881   6.704  18.430  0.00  0.00    +0.000 C 
BRANCH  22  23
ATOM     23  C   UNL     1       8.122   8.182  18.228  0.00  0.00    +0.000 C 
ATOM     24  O   UNL     1       7.656   8.744  17.237  0.00  0.00    +0.000 OA
ATOM     25  N   UNL     1       8.906   8.776  19.210  0.00  0.00    +0.000 N 
ATOM     26  H   UNL     1       9.446   8.153  19.810  0.00  0.00    +0.000 HD
BRANCH  25  27
ATOM     27  C   UNL     1       9.281  10.137  19.201  0.00  0.00    +0.000 A 
ATOM     28  C   UNL     1       9.424  10.857  18.012  0.00  0.00    +0.000 A 
ATOM     29  C   UNL     1       9.946  12.149  18.012  0.00  0.00    +0.000 A 
ATOM     30  C   UNL     1      10.296  12.742  19.216  0.00  0.00    +0.000 A 
ATOM     31 BR   UNL     1      11.082  14.459  19.203  0.00  0.00    +0.000 Br
ATOM     32  C   UNL     1      10.087  12.071  20.421  0.00  0.00    +0.000 A 
ATOM     33  C   UNL     1       9.565  10.771  20.416  0.00  0.00    +0.000 A 
ENDBRANCH  25  27
ENDBRANCH  22  23
ENDBRANCH  21  22
ENDBRANCH   7  21
TORSDOF 6
ENDMDL
MODEL 8
REMARK VINA RESULT:      -7.9      5.687     10.410
REMARK  Name = 
REMARK  7 active torsions:
REMARK  status: ('A' for Active; 'I' for Inactive)
REMARK    1  A    between atoms: C_1  and  C_2
REMARK    2  A    between atoms: C_5  and  N_6
REMARK    3  A    between atoms: C_7  and  C_9
REMARK    4  A    between atoms: C_15  and  S_16
REMARK    5  A    between atoms: S_16  and  C_17
REMARK    6  A    between atoms: C_17  and  C_18
REMARK    7  A    between atoms: N_20  and  C_21
REMARK                            x       y       z     vdW  Elec       q    Type
REMARK                         _______ _______ _______ _____ _____    ______ ____
ROOT
ATOM      1  C   UNL     1       2.952   5.610  19.050  0.00  0.00    +0.000 A 
ATOM      2  C   UNL     1       2.482   4.610  18.101  0.00  0.00    +0.000 A 
ATOM      3  C   UNL     1       3.333   4.034  17.224  0.00  0.00    +0.000 A 
ATOM      4  C   UNL     1       4.706   4.406  17.212  0.00  0.00    +0.000 A 
ATOM      5  N   UNL     1       5.718   4.058  16.448  0.00  0.00    +0.000 NA
ATOM      6  N   UNL     1       6.828   4.755  16.851  0.00  0.00    +0.000 NA
ATOM      7  C   UNL     1       6.473   5.530  17.854  0.00  0.00    +0.000 A 
ATOM      8  N   UNL     1       5.130   5.364  18.127  0.00  0.00    +0.000 N 
ATOM      9  C   UNL     1       4.259   5.962  19.036  0.00  0.00    +0.000 A 
ENDROOT
BRANCH   1  11
ATOM     10  N   UNL     1       2.049   7.780  19.767  0.00  0.00    +0.000 N 
ATOM     11  C   UNL     1       2.073   6.412  19.956  0.00  0.00    +0.000 C 
ATOM     12  O   UNL     1       1.390   5.797  20.760  0.00  0.00    +0.000 OA
ATOM     13  H   UNL     1       2.541   8.174  18.980  0.00  0.00    +0.000 HD
BRANCH  10  18
ATOM     14  C   UNL     1      -1.116  11.411  22.906  0.00  0.00    +0.000 C 
ATOM     15  C   UNL     1      -0.301  10.462  22.081  0.00  0.00    +0.000 A 
ATOM     16  C   UNL     1      -0.442  10.427  20.695  0.00  0.00    +0.000 A 
ATOM     17  C   UNL     1       0.317   9.537  19.933  0.00  0.00    +0.000 A 
ATOM     18  C   UNL     1       1.241   8.672  20.527  0.00  0.00    +0.000 A 
ATOM     19  C   UNL     1       1.371   8.693  21.920  0.00  0.00    +0.000 A 
ATOM     20  C   UNL     1       0.611   9.590  22.687  0.00  0.00    +0.000 A 
ENDBRANCH  10  18
ENDBRANCH   1  11
BRANCH   7  21
ATOM     21  S   UNL     1       7.517   6.600  18.724  0.00  0.00    +0.000 S 
BRANCH  21  22
ATOM     22  C   UNL     1       8.054   7.785  17.449  0.00  0.00    +0.000 C 
BRANCH  22  23
ATOM     23  C   UNL     1       8.208   9.169  18.039  0.00  0.00    +0.000 C 
ATOM     24  O   UNL     1       7.506  10.089  17.618  0.00  0.00    +0.000 OA
ATOM     25  N   UNL     1       9.189   9.272  19.017  0.00  0.00    +0.000 N 
ATOM     26  H   UNL     1       9.870   8.515  19.070  0.00  0.00    +0.000 HD
BRANCH  25  27
ATOM     27  C   UNL     1       9.520  10.476  19.675  0.00  0.00    +0.000 A 
ATOM     28  C   UNL     1       9.073  10.758  20.969  0.00  0.00    +0.000 A 
ATOM     29  C   UNL     1       9.276  12.012  21.541  0.00  0.00    +0.000 A 
ATOM     30  C   UNL     1       9.964  12.983  20.829  0.00  0.00    +0.000 A 
ATOM     31 BR   UNL     1      10.162  14.707  21.576  0.00  0.00    +0.000 Br
ATOM     32  C   UNL     1      10.488  12.696  19.569  0.00  0.00    +0.000 A 
ATOM     33  C   UNL     1      10.279  11.435  18.995  0.00  0.00    +0.000 A 
ENDBRANCH  25  27
ENDBRANCH  22  23
ENDBRANCH  21  22
ENDBRANCH   7  21
TORSDOF 6
ENDMDL
MODEL 9
REMARK VINA RESULT:      -7.8      0.930      1.531
REMARK  Name = 
REMARK  7 active torsions:
REMARK  status: ('A' for Active; 'I' for Inactive)
REMARK    1  A    between atoms: C_1  and  C_2
REMARK    2  A    between atoms: C_5  and  N_6
REMARK    3  A    between atoms: C_7  and  C_9
REMARK    4  A    between atoms: C_15  and  S_16
REMARK    5  A    between atoms: S_16  and  C_17
REMARK    6  A    between atoms: C_17  and  C_18
REMARK    7  A    between atoms: N_20  and  C_21
REMARK                            x       y       z     vdW  Elec       q    Type
REMARK                         _______ _______ _______ _____ _____    ______ ____
ROOT
ATOM      1  C   UNL     1       1.486   8.742  19.622  0.00  0.00    +0.000 A 
ATOM      2  C   UNL     1       0.981   8.055  20.803  0.00  0.00    +0.000 A 
ATOM      3  C   UNL     1       0.429   8.748  21.824  0.00  0.00    +0.000 A 
ATOM      4  C   UNL     1       0.342  10.166  21.760  0.00  0.00    +0.000 A 
ATOM      5  N   UNL     1      -0.083  11.073  22.611  0.00  0.00    +0.000 NA
ATOM      6  N   UNL     1       0.094  12.313  22.051  0.00  0.00    +0.000 NA
ATOM      7  C   UNL     1       0.638  12.143  20.864  0.00  0.00    +0.000 A 
ATOM      8  N   UNL     1       0.832  10.798  20.621  0.00  0.00    +0.000 N 
ATOM      9  C   UNL     1       1.401  10.091  19.564  0.00  0.00    +0.000 A 
ENDROOT
BRANCH   1  11
ATOM     10  N   UNL     1       3.028   6.999  18.833  0.00  0.00    +0.000 N 
ATOM     11  C   UNL     1       2.244   8.089  18.510  0.00  0.00    +0.000 C 
ATOM     12  O   UNL     1       2.071   8.528  17.384  0.00  0.00    +0.000 OA
ATOM     13  H   UNL     1       2.990   6.628  19.770  0.00  0.00    +0.000 HD
BRANCH  10  18
ATOM     14  C   UNL     1       5.972   3.954  14.946  0.00  0.00    +0.000 C 
ATOM     15  C   UNL     1       5.215   4.752  15.963  0.00  0.00    +0.000 A 
ATOM     16  C   UNL     1       5.569   6.073  16.234  0.00  0.00    +0.000 A 
ATOM     17  C   UNL     1       4.862   6.809  17.187  0.00  0.00    +0.000 A 
ATOM     18  C   UNL     1       3.782   6.256  17.883  0.00  0.00    +0.000 A 
ATOM     19  C   UNL     1       3.438   4.924  17.626  0.00  0.00    +0.000 A 
ATOM     20  C   UNL     1       4.145   4.185  16.665  0.00  0.00    +0.000 A 
ENDBRANCH  10  18
ENDBRANCH   1  11
BRANCH   7  21
ATOM     21  S   UNL     1       1.048  13.402  19.750  0.00  0.00    +0.000 S 
BRANCH  21  22
ATOM     22  C   UNL     1      -0.519  13.711  18.876  0.00  0.00    +0.000 C 
BRANCH  22  23
ATOM     23  C   UNL     1      -1.621  14.038  19.857  0.00  0.00    +0.000 C 
ATOM     24  O   UNL     1      -1.617  15.125  20.434  0.00  0.00    +0.000 OA
ATOM     25  N   UNL     1      -2.552  13.022  20.037  0.00  0.00    +0.000 N 
ATOM     26  H   UNL     1      -2.288  12.091  19.715  0.00  0.00    +0.000 HD
BRANCH  25  27
ATOM     27  C   UNL     1      -3.643  13.103  20.930  0.00  0.00    +0.000 A 
ATOM     28  C   UNL     1      -3.475  12.997  22.313  0.00  0.00    +0.000 A 
ATOM     29  C   UNL     1      -4.575  12.920  23.166  0.00  0.00    +0.000 A 
ATOM     30  C   UNL     1      -5.855  12.986  22.635  0.00  0.00    +0.000 A 
ATOM     31 BR   UNL     1      -7.340  12.796  23.786  0.00  0.00    +0.000 Br
ATOM     32  C   UNL     1      -6.043  13.172  21.265  0.00  0.00    +0.000 A 
ATOM     33  C   UNL     1      -4.935  13.246  20.411  0.00  0.00    +0.000 A 
ENDBRANCH  25  27
ENDBRANCH  22  23
ENDBRANCH  21  22
ENDBRANCH   7  21
TORSDOF 6
ENDMDL
