MODEL 1
REMARK VINA RESULT:      -7.4      0.000      0.000
REMARK  Name = 
REMARK  7 active torsions:
REMARK  status: ('A' for Active; 'I' for Inactive)
REMARK    1  A    between atoms: C_2  and  C_3
REMARK    2  A    between atoms: C_3  and  C_4
REMARK    3  A    between atoms: C_4  and  N_5
REMARK    4  A    between atoms: N_11  and  N_12
REMARK    5  A    between atoms: N_12  and  C_13
REMARK    6  A    between atoms: C_13  and  N_15
REMARK    7  A    between atoms: C_16  and  C_18
REMARK                            x       y       z     vdW  Elec       q    Type
REMARK                         _______ _______ _______ _____ _____    ______ ____
ROOT
ATOM      1  N   UNL     1       7.612   6.954  16.912  0.00  0.00    +0.000 N 
ATOM      2  H   UNL     1       7.283   7.832  16.501  0.00  0.00    +0.000 HD
ENDROOT
BRANCH   1   5
ATOM      3  O   UNL     1       6.484   4.167  15.035  0.00  0.00    +0.000 OA
ATOM      4  C   UNL     1       6.459   5.074  15.867  0.00  0.00    +0.000 C 
ATOM      5  N   UNL     1       7.602   5.800  16.132  0.00  0.00    +0.000 N 
ATOM      6  H   UNL     1       8.438   5.586  15.592  0.00  0.00    +0.000 HD
BRANCH   4   7
ATOM      7  C   UNL     1       5.187   5.479  16.591  0.00  0.00    +0.000 C 
BRANCH   7   8
ATOM      8  C   UNL     1       4.152   4.351  16.625  0.00  0.00    +0.000 C 
BRANCH   8   9
ATOM      9  N   UNL     1       3.180   4.510  17.729  0.00  0.00    +0.000 NA
ATOM     10  C   UNL     1       3.859   4.590  19.044  0.00  0.00    +0.000 C 
ATOM     11  C   UNL     1       4.377   3.238  19.570  0.00  0.00    +0.000 C 
ATOM     12  O   UNL     1       3.337   2.252  19.611  0.00  0.00    +0.000 OA
ATOM     13  C   UNL     1       2.740   2.094  18.318  0.00  0.00    +0.000 C 
ATOM     14  C   UNL     1       2.174   3.428  17.808  0.00  0.00    +0.000 C 
ENDBRANCH   8   9
ENDBRANCH   7   8
ENDBRANCH   4   7
ENDBRANCH   1   5
BRANCH   1  15
ATOM     15  C   UNL     1       7.931   6.973  18.251  0.00  0.00    +0.000 C 
ATOM     16  S   UNL     1       7.702   5.711  19.321  0.00  0.00    +0.000 S 
BRANCH  15  17
ATOM     17  N   UNL     1       8.521   8.143  18.699  0.00  0.00    +0.000 N 
ATOM     18  C   UNL     1       8.261   9.420  18.219  0.00  0.00    +0.000 C 
ATOM     19  O   UNL     1       7.344   9.658  17.433  0.00  0.00    +0.000 OA
ATOM     20  H   UNL     1       9.205   8.014  19.432  0.00  0.00    +0.000 HD
BRANCH  18  21
ATOM     21  C   UNL     1       9.109  10.546  18.690  0.00  0.00    +0.000 A 
ATOM     22  C   UNL     1       9.872  10.506  19.861  0.00  0.00    +0.000 A 
ATOM     23  C   UNL     1      10.727  11.573  20.173  0.00  0.00    +0.000 A 
ATOM     24  C   UNL     1      10.819  12.672  19.315  0.00  0.00    +0.000 A 
ATOM     25 BR   UNL     1      12.009  14.085  19.713  0.00  0.00    +0.000 Br
ATOM     26  C   UNL     1      10.059  12.726  18.153  0.00  0.00    +0.000 A 
ATOM     27  C   UNL     1       9.208  11.662  17.839  0.00  0.00    +0.000 A 
ENDBRANCH  18  21
ENDBRANCH  15  17
ENDBRANCH   1  15
TORSDOF 7
ENDMDL
MODEL 2
REMARK VINA RESULT:      -7.3      0.910      1.079
REMARK  Name = 
REMARK  7 active torsions:
REMARK  status: ('A' for Active; 'I' for Inactive)
REMARK    1  A    between atoms: C_2  and  C_3
REMARK    2  A    between atoms: C_3  and  C_4
REMARK    3  A    between atoms: C_4  and  N_5
REMARK    4  A    between atoms: N_11  and  N_12
REMARK    5  A    between atoms: N_12  and  C_13
REMARK    6  A    between atoms: C_13  and  N_15
REMARK    7  A    between atoms: C_16  and  C_18
REMARK                            x       y       z     vdW  Elec       q    Type
REMARK                         _______ _______ _______ _____ _____    ______ ____
ROOT
ATOM      1  N   UNL     1       7.061   6.726  17.516  0.00  0.00    +0.000 N 
ATOM      2  H   UNL     1       6.065   6.910  17.661  0.00  0.00    +0.000 HD
ENDROOT
BRANCH   1   5
ATOM      3  O   UNL     1       7.444   5.129  14.375  0.00  0.00    +0.000 OA
ATOM      4  C   UNL     1       7.158   5.264  15.564  0.00  0.00    +0.000 C 
ATOM      5  N   UNL     1       7.510   6.418  16.233  0.00  0.00    +0.000 N 
ATOM      6  H   UNL     1       7.968   7.155  15.702  0.00  0.00    +0.000 HD
BRANCH   4   7
ATOM      7  C   UNL     1       6.367   4.220  16.334  0.00  0.00    +0.000 C 
BRANCH   7   8
ATOM      8  C   UNL     1       4.872   4.549  16.392  0.00  0.00    +0.000 C 
BRANCH   8   9
ATOM      9  N   UNL     1       4.440   4.980  17.739  0.00  0.00    +0.000 NA
ATOM     10  C   UNL     1       4.705   3.933  18.755  0.00  0.00    +0.000 C 
ATOM     11  C   UNL     1       3.719   2.750  18.715  0.00  0.00    +0.000 C 
ATOM     12  O   UNL     1       2.358   3.192  18.804  0.00  0.00    +0.000 OA
ATOM     13  C   UNL     1       2.062   4.130  17.763  0.00  0.00    +0.000 C 
ATOM     14  C   UNL     1       3.008   5.339  17.828  0.00  0.00    +0.000 C 
ENDBRANCH   8   9
ENDBRANCH   7   8
ENDBRANCH   4   7
ENDBRANCH   1   5
BRANCH   1  15
ATOM     15  C   UNL     1       7.858   6.689  18.637  0.00  0.00    +0.000 C 
ATOM     16  S   UNL     1       8.150   5.339  19.576  0.00  0.00    +0.000 S 
BRANCH  15  17
ATOM     17  N   UNL     1       8.478   7.885  18.958  0.00  0.00    +0.000 N 
ATOM     18  C   UNL     1       8.337   9.084  18.272  0.00  0.00    +0.000 C 
ATOM     19  O   UNL     1       7.506   9.242  17.378  0.00  0.00    +0.000 OA
ATOM     20  H   UNL     1       9.089   7.838  19.762  0.00  0.00    +0.000 HD
BRANCH  18  21
ATOM     21  C   UNL     1       9.209  10.228  18.646  0.00  0.00    +0.000 A 
ATOM     22  C   UNL     1       9.525  10.563  19.966  0.00  0.00    +0.000 A 
ATOM     23  C   UNL     1      10.442  11.593  20.223  0.00  0.00    +0.000 A 
ATOM     24  C   UNL     1      11.040  12.280  19.165  0.00  0.00    +0.000 A 
ATOM     25 BR   UNL     1      12.312  13.633  19.514  0.00  0.00    +0.000 Br
ATOM     26  C   UNL     1      10.727  11.961  17.849  0.00  0.00    +0.000 A 
ATOM     27  C   UNL     1       9.815  10.933  17.590  0.00  0.00    +0.000 A 
ENDBRANCH  18  21
ENDBRANCH  15  17
ENDBRANCH   1  15
TORSDOF 7
ENDMDL
MODEL 3
REMARK VINA RESULT:      -7.3      4.920      7.148
REMARK  Name = 
REMARK  7 active torsions:
REMARK  status: ('A' for Active; 'I' for Inactive)
REMARK    1  A    between atoms: C_2  and  C_3
REMARK    2  A    between atoms: C_3  and  C_4
REMARK    3  A    between atoms: C_4  and  N_5
REMARK    4  A    between atoms: N_11  and  N_12
REMARK    5  A    between atoms: N_12  and  C_13
REMARK    6  A    between atoms: C_13  and  N_15
REMARK    7  A    between atoms: C_16  and  C_18
REMARK                            x       y       z     vdW  Elec       q    Type
REMARK                         _______ _______ _______ _____ _____    ______ ____
ROOT
ATOM      1  N   UNL     1       1.084   2.496  19.131  0.00  0.00    +0.000 N 
ATOM      2  H   UNL     1       0.159   2.485  18.694  0.00  0.00    +0.000 HD
ENDROOT
BRANCH   1   5
ATOM      3  O   UNL     1       3.974   1.007  17.718  0.00  0.00    +0.000 OA
ATOM      4  C   UNL     1       3.080   1.836  17.892  0.00  0.00    +0.000 C 
ATOM      5  N   UNL     1       2.027   1.550  18.736  0.00  0.00    +0.000 N 
ATOM      6  H   UNL     1       2.043   0.660  19.231  0.00  0.00    +0.000 HD
BRANCH   4   7
ATOM      7  C   UNL     1       3.111   3.212  17.252  0.00  0.00    +0.000 C 
BRANCH   7   8
ATOM      8  C   UNL     1       4.493   3.869  17.350  0.00  0.00    +0.000 C 
BRANCH   8   9
ATOM      9  N   UNL     1       4.875   4.567  16.103  0.00  0.00    +0.000 NA
ATOM     10  C   UNL     1       6.174   4.078  15.583  0.00  0.00    +0.000 C 
ATOM     11  C   UNL     1       7.400   4.594  16.359  0.00  0.00    +0.000 C 
ATOM     12  O   UNL     1       7.410   6.025  16.443  0.00  0.00    +0.000 OA
ATOM     13  C   UNL     1       6.198   6.504  17.039  0.00  0.00    +0.000 C 
ATOM     14  C   UNL     1       4.972   6.037  16.240  0.00  0.00    +0.000 C 
ENDBRANCH   8   9
ENDBRANCH   7   8
ENDBRANCH   4   7
ENDBRANCH   1   5
BRANCH   1  15
ATOM     15  C   UNL     1       1.276   3.387  20.163  0.00  0.00    +0.000 C 
ATOM     16  S   UNL     1       1.579   2.978  21.753  0.00  0.00    +0.000 S 
BRANCH  15  17
ATOM     17  N   UNL     1       1.241   4.723  19.801  0.00  0.00    +0.000 N 
ATOM     18  C   UNL     1       2.299   5.618  19.887  0.00  0.00    +0.000 C 
ATOM     19  O   UNL     1       3.446   5.262  20.158  0.00  0.00    +0.000 OA
ATOM     20  H   UNL     1       0.344   5.041  19.460  0.00  0.00    +0.000 HD
BRANCH  18  21
ATOM     21  C   UNL     1       2.041   7.057  19.621  0.00  0.00    +0.000 A 
ATOM     22  C   UNL     1       2.287   7.674  18.390  0.00  0.00    +0.000 A 
ATOM     23  C   UNL     1       1.914   9.012  18.195  0.00  0.00    +0.000 A 
ATOM     24  C   UNL     1       1.296   9.726  19.224  0.00  0.00    +0.000 A 
ATOM     25 BR   UNL     1       0.750  11.512  18.941  0.00  0.00    +0.000 Br
ATOM     26  C   UNL     1       1.056   9.125  20.454  0.00  0.00    +0.000 A 
ATOM     27  C   UNL     1       1.424   7.790  20.651  0.00  0.00    +0.000 A 
ENDBRANCH  18  21
ENDBRANCH  15  17
ENDBRANCH   1  15
TORSDOF 7
ENDMDL
MODEL 4
REMARK VINA RESULT:      -7.1      1.524      1.914
REMARK  Name = 
REMARK  7 active torsions:
REMARK  status: ('A' for Active; 'I' for Inactive)
REMARK    1  A    between atoms: C_2  and  C_3
REMARK    2  A    between atoms: C_3  and  C_4
REMARK    3  A    between atoms: C_4  and  N_5
REMARK    4  A    between atoms: N_11  and  N_12
REMARK    5  A    between atoms: N_12  and  C_13
REMARK    6  A    between atoms: C_13  and  N_15
REMARK    7  A    between atoms: C_16  and  C_18
REMARK                            x       y       z     vdW  Elec       q    Type
REMARK                         _______ _______ _______ _____ _____    ______ ____
ROOT
ATOM      1  N   UNL     1       7.370   6.155  16.601  0.00  0.00    +0.000 N 
ATOM      2  H   UNL     1       8.078   5.858  17.278  0.00  0.00    +0.000 HD
ENDROOT
BRANCH   1   5
ATOM      3  O   UNL     1       6.499   3.972  13.948  0.00  0.00    +0.000 OA
ATOM      4  C   UNL     1       6.638   4.373  15.103  0.00  0.00    +0.000 C 
ATOM      5  N   UNL     1       7.332   5.539  15.352  0.00  0.00    +0.000 N 
ATOM      6  H   UNL     1       7.681   6.064  14.553  0.00  0.00    +0.000 HD
BRANCH   4   7
ATOM      7  C   UNL     1       6.016   3.660  16.292  0.00  0.00    +0.000 C 
BRANCH   7   8
ATOM      8  C   UNL     1       4.506   3.901  16.390  0.00  0.00    +0.000 C 
BRANCH   8   9
ATOM      9  N   UNL     1       3.866   3.055  17.421  0.00  0.00    +0.000 NA
ATOM     10  C   UNL     1       2.398   3.263  17.460  0.00  0.00    +0.000 C 
ATOM     11  C   UNL     1       1.964   4.577  18.135  0.00  0.00    +0.000 C 
ATOM     12  O   UNL     1       2.515   4.705  19.452  0.00  0.00    +0.000 OA
ATOM     13  C   UNL     1       3.944   4.606  19.413  0.00  0.00    +0.000 C 
ATOM     14  C   UNL     1       4.386   3.274  18.789  0.00  0.00    +0.000 C 
ENDBRANCH   8   9
ENDBRANCH   7   8
ENDBRANCH   4   7
ENDBRANCH   1   5
BRANCH   1  15
ATOM     15  C   UNL     1       6.581   7.227  16.952  0.00  0.00    +0.000 C 
ATOM     16  S   UNL     1       4.916   7.209  17.068  0.00  0.00    +0.000 S 
BRANCH  15  17
ATOM     17  N   UNL     1       7.270   8.388  17.261  0.00  0.00    +0.000 N 
ATOM     18  C   UNL     1       8.220   8.529  18.263  0.00  0.00    +0.000 C 
ATOM     19  O   UNL     1       8.666   7.569  18.892  0.00  0.00    +0.000 OA
ATOM     20  H   UNL     1       7.022   9.186  16.691  0.00  0.00    +0.000 HD
BRANCH  18  21
ATOM     21  C   UNL     1       8.736   9.888  18.574  0.00  0.00    +0.000 A 
ATOM     22  C   UNL     1       9.543  10.176  19.679  0.00  0.00    +0.000 A 
ATOM     23  C   UNL     1      10.073  11.465  19.836  0.00  0.00    +0.000 A 
ATOM     24  C   UNL     1       9.800  12.457  18.892  0.00  0.00    +0.000 A 
ATOM     25 BR   UNL     1      10.557  14.178  19.081  0.00  0.00    +0.000 Br
ATOM     26  C   UNL     1       8.992  12.182  17.795  0.00  0.00    +0.000 A 
ATOM     27  C   UNL     1       8.464  10.898  17.634  0.00  0.00    +0.000 A 
ENDBRANCH  18  21
ENDBRANCH  15  17
ENDBRANCH   1  15
TORSDOF 7
ENDMDL
MODEL 5
REMARK VINA RESULT:      -7.1      1.060      1.799
REMARK  Name = 
REMARK  7 active torsions:
REMARK  status: ('A' for Active; 'I' for Inactive)
REMARK    1  A    between atoms: C_2  and  C_3
REMARK    2  A    between atoms: C_3  and  C_4
REMARK    3  A    between atoms: C_4  and  N_5
REMARK    4  A    between atoms: N_11  and  N_12
REMARK    5  A    between atoms: N_12  and  C_13
REMARK    6  A    between atoms: C_13  and  N_15
REMARK    7  A    between atoms: C_16  and  C_18
REMARK                            x       y       z     vdW  Elec       q    Type
REMARK                         _______ _______ _______ _____ _____    ______ ____
ROOT
ATOM      1  N   UNL     1       7.064   6.794  17.453  0.00  0.00    +0.000 N 
ATOM      2  H   UNL     1       6.091   7.093  17.565  0.00  0.00    +0.000 HD
ENDROOT
BRANCH   1   5
ATOM      3  O   UNL     1       7.378   4.843  14.511  0.00  0.00    +0.000 OA
ATOM      4  C   UNL     1       7.113   5.117  15.681  0.00  0.00    +0.000 C 
ATOM      5  N   UNL     1       7.489   6.336  16.208  0.00  0.00    +0.000 N 
ATOM      6  H   UNL     1       7.948   7.001  15.589  0.00  0.00    +0.000 HD
BRANCH   4   7
ATOM      7  C   UNL     1       6.322   4.180  16.577  0.00  0.00    +0.000 C 
BRANCH   7   8
ATOM      8  C   UNL     1       4.810   4.387  16.446  0.00  0.00    +0.000 C 
BRANCH   8   9
ATOM      9  N   UNL     1       4.048   3.650  17.478  0.00  0.00    +0.000 NA
ATOM     10  C   UNL     1       2.616   4.035  17.474  0.00  0.00    +0.000 C 
ATOM     11  C   UNL     1       2.330   5.408  18.110  0.00  0.00    +0.000 C 
ATOM     12  O   UNL     1       2.862   5.499  19.438  0.00  0.00    +0.000 OA
ATOM     13  C   UNL     1       4.269   5.227  19.438  0.00  0.00    +0.000 C 
ATOM     14  C   UNL     1       4.559   3.837  18.853  0.00  0.00    +0.000 C 
ENDBRANCH   8   9
ENDBRANCH   7   8
ENDBRANCH   4   7
ENDBRANCH   1   5
BRANCH   1  15
ATOM     15  C   UNL     1       7.843   6.768  18.588  0.00  0.00    +0.000 C 
ATOM     16  S   UNL     1       8.107   5.430  19.552  0.00  0.00    +0.000 S 
BRANCH  15  17
ATOM     17  N   UNL     1       8.469   7.963  18.899  0.00  0.00    +0.000 N 
ATOM     18  C   UNL     1       8.366   9.147  18.181  0.00  0.00    +0.000 C 
ATOM     19  O   UNL     1       7.565   9.294  17.258  0.00  0.00    +0.000 OA
ATOM     20  H   UNL     1       9.054   7.928  19.723  0.00  0.00    +0.000 HD
BRANCH  18  21
ATOM     21  C   UNL     1       9.242  10.288  18.555  0.00  0.00    +0.000 A 
ATOM     22  C   UNL     1       9.831  11.151  17.625  0.00  0.00    +0.000 A 
ATOM     23  C   UNL     1      10.554  12.266  18.070  0.00  0.00    +0.000 A 
ATOM     24  C   UNL     1      10.686  12.518  19.438  0.00  0.00    +0.000 A 
ATOM     25 BR   UNL     1      11.620  14.049  20.033  0.00  0.00    +0.000 Br
ATOM     26  C   UNL     1      10.112  11.662  20.371  0.00  0.00    +0.000 A 
ATOM     27  C   UNL     1       9.388  10.551  19.929  0.00  0.00    +0.000 A 
ENDBRANCH  18  21
ENDBRANCH  15  17
ENDBRANCH   1  15
TORSDOF 7
ENDMDL
MODEL 6
REMARK VINA RESULT:      -7.1      0.825      1.389
REMARK  Name = 
REMARK  7 active torsions:
REMARK  status: ('A' for Active; 'I' for Inactive)
REMARK    1  A    between atoms: C_2  and  C_3
REMARK    2  A    between atoms: C_3  and  C_4
REMARK    3  A    between atoms: C_4  and  N_5
REMARK    4  A    between atoms: N_11  and  N_12
REMARK    5  A    between atoms: N_12  and  C_13
REMARK    6  A    between atoms: C_13  and  N_15
REMARK    7  A    between atoms: C_16  and  C_18
REMARK                            x       y       z     vdW  Elec       q    Type
REMARK                         _______ _______ _______ _____ _____    ______ ____
ROOT
ATOM      1  N   UNL     1       7.048   6.710  17.457  0.00  0.00    +0.000 N 
ATOM      2  H   UNL     1       6.047   6.860  17.606  0.00  0.00    +0.000 HD
ENDROOT
BRANCH   1   5
ATOM      3  O   UNL     1       7.433   5.028  14.360  0.00  0.00    +0.000 OA
ATOM      4  C   UNL     1       7.149   5.195  15.546  0.00  0.00    +0.000 C 
ATOM      5  N   UNL     1       7.496   6.369  16.182  0.00  0.00    +0.000 N 
ATOM      6  H   UNL     1       7.949   7.093  15.629  0.00  0.00    +0.000 HD
BRANCH   4   7
ATOM      7  C   UNL     1       6.366   4.169  16.347  0.00  0.00    +0.000 C 
BRANCH   7   8
ATOM      8  C   UNL     1       4.863   4.469  16.365  0.00  0.00    +0.000 C 
BRANCH   8   9
ATOM      9  N   UNL     1       4.406   4.980  17.676  0.00  0.00    +0.000 NA
ATOM     10  C   UNL     1       4.801   4.073  18.780  0.00  0.00    +0.000 C 
ATOM     11  C   UNL     1       3.953   2.791  18.879  0.00  0.00    +0.000 C 
ATOM     12  O   UNL     1       2.553   3.087  18.960  0.00  0.00    +0.000 OA
ATOM     13  C   UNL     1       2.138   3.881  17.842  0.00  0.00    +0.000 C 
ATOM     14  C   UNL     1       2.944   5.187  17.766  0.00  0.00    +0.000 C 
ENDBRANCH   8   9
ENDBRANCH   7   8
ENDBRANCH   4   7
ENDBRANCH   1   5
BRANCH   1  15
ATOM     15  C   UNL     1       7.857   6.749  18.569  0.00  0.00    +0.000 C 
ATOM     16  S   UNL     1       8.252   5.440  19.528  0.00  0.00    +0.000 S 
BRANCH  15  17
ATOM     17  N   UNL     1       8.395   7.991  18.862  0.00  0.00    +0.000 N 
ATOM     18  C   UNL     1       8.200   9.155  18.132  0.00  0.00    +0.000 C 
ATOM     19  O   UNL     1       7.383   9.231  17.214  0.00  0.00    +0.000 OA
ATOM     20  H   UNL     1       8.988   8.009  19.681  0.00  0.00    +0.000 HD
BRANCH  18  21
ATOM     21  C   UNL     1       8.991  10.363  18.485  0.00  0.00    +0.000 A 
ATOM     22  C   UNL     1       8.982  11.542  17.734  0.00  0.00    +0.000 A 
ATOM     23  C   UNL     1       9.675  12.669  18.199  0.00  0.00    +0.000 A 
ATOM     24  C   UNL     1      10.369  12.616  19.410  0.00  0.00    +0.000 A 
ATOM     25 BR   UNL     1      11.260  14.151  20.058  0.00  0.00    +0.000 Br
ATOM     26  C   UNL     1      10.391  11.446  20.160  0.00  0.00    +0.000 A 
ATOM     27  C   UNL     1       9.700  10.322  19.699  0.00  0.00    +0.000 A 
ENDBRANCH  18  21
ENDBRANCH  15  17
ENDBRANCH   1  15
TORSDOF 7
ENDMDL
MODEL 7
REMARK VINA RESULT:      -7.1      1.147      1.866
REMARK  Name = 
REMARK  7 active torsions:
REMARK  status: ('A' for Active; 'I' for Inactive)
REMARK    1  A    between atoms: C_2  and  C_3
REMARK    2  A    between atoms: C_3  and  C_4
REMARK    3  A    between atoms: C_4  and  N_5
REMARK    4  A    between atoms: N_11  and  N_12
REMARK    5  A    between atoms: N_12  and  C_13
REMARK    6  A    between atoms: C_13  and  N_15
REMARK    7  A    between atoms: C_16  and  C_18
REMARK                            x       y       z     vdW  Elec       q    Type
REMARK                         _______ _______ _______ _____ _____    ______ ____
ROOT
ATOM      1  N   UNL     1       7.582   6.802  17.147  0.00  0.00    +0.000 N 
ATOM      2  H   UNL     1       8.283   6.560  16.441  0.00  0.00    +0.000 HD
ENDROOT
BRANCH   1   5
ATOM      3  O   UNL     1       4.118   6.636  16.418  0.00  0.00    +0.000 OA
ATOM      4  C   UNL     1       5.266   6.242  16.623  0.00  0.00    +0.000 C 
ATOM      5  N   UNL     1       6.299   7.149  16.731  0.00  0.00    +0.000 N 
ATOM      6  H   UNL     1       6.070   8.139  16.676  0.00  0.00    +0.000 HD
BRANCH   4   7
ATOM      7  C   UNL     1       5.598   4.774  16.826  0.00  0.00    +0.000 C 
BRANCH   7   8
ATOM      8  C   UNL     1       4.346   3.890  16.839  0.00  0.00    +0.000 C 
BRANCH   8   9
ATOM      9  N   UNL     1       4.174   3.173  18.121  0.00  0.00    +0.000 NA
ATOM     10  C   UNL     1       2.984   2.290  18.094  0.00  0.00    +0.000 C 
ATOM     11  C   UNL     1       1.641   3.034  18.222  0.00  0.00    +0.000 C 
ATOM     12  O   UNL     1       1.608   3.870  19.386  0.00  0.00    +0.000 OA
ATOM     13  C   UNL     1       2.700   4.798  19.372  0.00  0.00    +0.000 C 
ATOM     14  C   UNL     1       4.046   4.062  19.297  0.00  0.00    +0.000 C 
ENDBRANCH   8   9
ENDBRANCH   7   8
ENDBRANCH   4   7
ENDBRANCH   1   5
BRANCH   1  15
ATOM     15  C   UNL     1       8.010   6.869  18.454  0.00  0.00    +0.000 C 
ATOM     16  S   UNL     1       7.807   5.675  19.603  0.00  0.00    +0.000 S 
BRANCH  15  17
ATOM     17  N   UNL     1       8.691   8.026  18.791  0.00  0.00    +0.000 N 
ATOM     18  C   UNL     1       8.423   9.299  18.306  0.00  0.00    +0.000 C 
ATOM     19  O   UNL     1       7.427   9.553  17.627  0.00  0.00    +0.000 OA
ATOM     20  H   UNL     1       9.453   7.890  19.441  0.00  0.00    +0.000 HD
BRANCH  18  21
ATOM     21  C   UNL     1       9.362  10.403  18.636  0.00  0.00    +0.000 A 
ATOM     22  C   UNL     1      10.011  11.183  17.674  0.00  0.00    +0.000 A 
ATOM     23  C   UNL     1      10.796  12.273  18.075  0.00  0.00    +0.000 A 
ATOM     24  C   UNL     1      10.927  12.583  19.430  0.00  0.00    +0.000 A 
ATOM     25 BR   UNL     1      11.945  14.083  19.964  0.00  0.00    +0.000 Br
ATOM     26  C   UNL     1      10.293  11.809  20.395  0.00  0.00    +0.000 A 
ATOM     27  C   UNL     1       9.508  10.723  19.998  0.00  0.00    +0.000 A 
ENDBRANCH  18  21
ENDBRANCH  15  17
ENDBRANCH   1  15
TORSDOF 7
ENDMDL
MODEL 8
REMARK VINA RESULT:      -7.1      4.904      6.897
REMARK  Name = 
REMARK  7 active torsions:
REMARK  status: ('A' for Active; 'I' for Inactive)
REMARK    1  A    between atoms: C_2  and  C_3
REMARK    2  A    between atoms: C_3  and  C_4
REMARK    3  A    between atoms: C_4  and  N_5
REMARK    4  A    between atoms: N_11  and  N_12
REMARK    5  A    between atoms: N_12  and  C_13
REMARK    6  A    between atoms: C_13  and  N_15
REMARK    7  A    between atoms: C_16  and  C_18
REMARK                            x       y       z     vdW  Elec       q    Type
REMARK                         _______ _______ _______ _____ _____    ______ ____
ROOT
ATOM      1  N   UNL     1       5.439   3.763  17.893  0.00  0.00    +0.000 N 
ATOM      2  H   UNL     1       5.172   3.222  17.066  0.00  0.00    +0.000 HD
ENDROOT
BRANCH   1   5
ATOM      3  O   UNL     1       7.859   6.315  17.456  0.00  0.00    +0.000 OA
ATOM      4  C   UNL     1       6.819   5.679  17.281  0.00  0.00    +0.000 C 
ATOM      5  N   UNL     1       6.649   4.451  17.887  0.00  0.00    +0.000 N 
ATOM      6  H   UNL     1       7.387   4.120  18.505  0.00  0.00    +0.000 HD
BRANCH   4   7
ATOM      7  C   UNL     1       5.664   6.221  16.457  0.00  0.00    +0.000 C 
BRANCH   7   8
ATOM      8  C   UNL     1       5.649   5.655  15.033  0.00  0.00    +0.000 C 
BRANCH   8   9
ATOM      9  N   UNL     1       6.657   4.591  14.838  0.00  0.00    +0.000 NA
ATOM     10  C   UNL     1       7.810   5.074  14.041  0.00  0.00    +0.000 C 
ATOM     11  C   UNL     1       7.524   5.209  12.534  0.00  0.00    +0.000 C 
ATOM     12  O   UNL     1       7.018   3.987  11.980  0.00  0.00    +0.000 OA
ATOM     13  C   UNL     1       5.842   3.563  12.680  0.00  0.00    +0.000 C 
ATOM     14  C   UNL     1       6.132   3.376  14.177  0.00  0.00    +0.000 C 
ENDBRANCH   8   9
ENDBRANCH   7   8
ENDBRANCH   4   7
ENDBRANCH   1   5
BRANCH   1  15
ATOM     15  C   UNL     1       4.616   3.666  18.992  0.00  0.00    +0.000 C 
ATOM     16  S   UNL     1       4.415   2.304  19.937  0.00  0.00    +0.000 S 
BRANCH  15  17
ATOM     17  N   UNL     1       3.943   4.830  19.327  0.00  0.00    +0.000 N 
ATOM     18  C   UNL     1       2.889   5.393  18.621  0.00  0.00    +0.000 C 
ATOM     19  O   UNL     1       2.334   4.814  17.687  0.00  0.00    +0.000 OA
ATOM     20  H   UNL     1       4.288   5.288  20.160  0.00  0.00    +0.000 HD
BRANCH  18  21
ATOM     21  C   UNL     1       2.397   6.737  19.022  0.00  0.00    +0.000 A 
ATOM     22  C   UNL     1       2.265   7.810  18.135  0.00  0.00    +0.000 A 
ATOM     23  C   UNL     1       1.690   9.011  18.575  0.00  0.00    +0.000 A 
ATOM     24  C   UNL     1       1.249   9.135  19.894  0.00  0.00    +0.000 A 
ATOM     25 BR   UNL     1       0.430  10.738  20.471  0.00  0.00    +0.000 Br
ATOM     26  C   UNL     1       1.383   8.078  20.786  0.00  0.00    +0.000 A 
ATOM     27  C   UNL     1       1.953   6.879  20.349  0.00  0.00    +0.000 A 
ENDBRANCH  18  21
ENDBRANCH  15  17
ENDBRANCH   1  15
TORSDOF 7
ENDMDL
MODEL 9
REMARK VINA RESULT:      -7.0      1.413      1.739
REMARK  Name = 
REMARK  7 active torsions:
REMARK  status: ('A' for Active; 'I' for Inactive)
REMARK    1  A    between atoms: C_2  and  C_3
REMARK    2  A    between atoms: C_3  and  C_4
REMARK    3  A    between atoms: C_4  and  N_5
REMARK    4  A    between atoms: N_11  and  N_12
REMARK    5  A    between atoms: N_12  and  C_13
REMARK    6  A    between atoms: C_13  and  N_15
REMARK    7  A    between atoms: C_16  and  C_18
REMARK                            x       y       z     vdW  Elec       q    Type
REMARK                         _______ _______ _______ _____ _____    ______ ____
ROOT
ATOM      1  N   UNL     1       7.436   6.209  16.655  0.00  0.00    +0.000 N 
ATOM      2  H   UNL     1       8.185   5.969  17.309  0.00  0.00    +0.000 HD
ENDROOT
BRANCH   1   5
ATOM      3  O   UNL     1       6.385   3.861  14.217  0.00  0.00    +0.000 OA
ATOM      4  C   UNL     1       6.579   4.347  15.331  0.00  0.00    +0.000 C 
ATOM      5  N   UNL     1       7.329   5.497  15.462  0.00  0.00    +0.000 N 
ATOM      6  H   UNL     1       7.672   5.941  14.613  0.00  0.00    +0.000 HD
BRANCH   4   7
ATOM      7  C   UNL     1       5.970   3.759  16.592  0.00  0.00    +0.000 C 
BRANCH   7   8
ATOM      8  C   UNL     1       4.444   3.655  16.508  0.00  0.00    +0.000 C 
BRANCH   8   9
ATOM      9  N   UNL     1       3.774   4.191  17.713  0.00  0.00    +0.000 NA
ATOM     10  C   UNL     1       4.400   3.679  18.955  0.00  0.00    +0.000 C 
ATOM     11  C   UNL     1       4.038   2.220  19.289  0.00  0.00    +0.000 C 
ATOM     12  O   UNL     1       2.618   2.023  19.334  0.00  0.00    +0.000 OA
ATOM     13  C   UNL     1       2.014   2.422  18.097  0.00  0.00    +0.000 C 
ATOM     14  C   UNL     1       2.328   3.892  17.782  0.00  0.00    +0.000 C 
ENDBRANCH   8   9
ENDBRANCH   7   8
ENDBRANCH   4   7
ENDBRANCH   1   5
BRANCH   1  15
ATOM     15  C   UNL     1       6.660   7.302  16.969  0.00  0.00    +0.000 C 
ATOM     16  S   UNL     1       4.994   7.309  17.076  0.00  0.00    +0.000 S 
BRANCH  15  17
ATOM     17  N   UNL     1       7.363   8.463  17.244  0.00  0.00    +0.000 N 
ATOM     18  C   UNL     1       8.283   8.633  18.269  0.00  0.00    +0.000 C 
ATOM     19  O   UNL     1       8.688   7.696  18.959  0.00  0.00    +0.000 OA
ATOM     20  H   UNL     1       7.151   9.237  16.629  0.00  0.00    +0.000 HD
BRANCH  18  21
ATOM     21  C   UNL     1       8.817   9.995  18.533  0.00  0.00    +0.000 A 
ATOM     22  C   UNL     1       8.601  11.089  17.689  0.00  0.00    +0.000 A 
ATOM     23  C   UNL     1       9.051  12.361  18.069  0.00  0.00    +0.000 A 
ATOM     24  C   UNL     1       9.710  12.538  19.287  0.00  0.00    +0.000 A 
ATOM     25 BR   UNL     1      10.270  14.263  19.818  0.00  0.00    +0.000 Br
ATOM     26  C   UNL     1       9.937  11.456  20.129  0.00  0.00    +0.000 A 
ATOM     27  C   UNL     1       9.488  10.187  19.754  0.00  0.00    +0.000 A 
ENDBRANCH  18  21
ENDBRANCH  15  17
ENDBRANCH   1  15
TORSDOF 7
ENDMDL
