MODEL 1
REMARK VINA RESULT:      -7.6      0.000      0.000
REMARK  Name = 
REMARK  5 active torsions:
REMARK  status: ('A' for Active; 'I' for Inactive)
REMARK    1  A    between atoms: C_1  and  C_2
REMARK    2  A    between atoms: C_4  and  C_5
REMARK    3  A    between atoms: N_11  and  C_12
REMARK    4  A    between atoms: C_12  and  C_13
REMARK    5  A    between atoms: N_15  and  C_16
REMARK                            x       y       z     vdW  Elec       q    Type
REMARK                         _______ _______ _______ _____ _____    ______ ____
ROOT
ATOM      1  C   UNL     1       8.261   5.318  19.476  0.00  0.00    +0.000 C 
ATOM      2  C   UNL     1       7.521   5.482  18.210  0.00  0.00    +0.000 A 
ATOM      3  N   UNL     1       7.823   4.792  17.067  0.00  0.00    +0.000 NA
ATOM      4  C   UNL     1       6.938   5.218  16.178  0.00  0.00    +0.000 A 
ATOM      5  N   UNL     1       6.082   6.080  16.832  0.00  0.00    +0.000 N 
ATOM      6  N   UNL     1       6.490   6.320  18.096  0.00  0.00    +0.000 NA
ENDROOT
BRANCH   4   7
ATOM      7  C   UNL     1       6.875   4.806  14.768  0.00  0.00    +0.000 A 
ATOM      8  C   UNL     1       7.713   5.417  13.823  0.00  0.00    +0.000 A 
ATOM      9  C   UNL     1       7.667   5.041  12.471  0.00  0.00    +0.000 A 
ATOM     10  C   UNL     1       6.786   4.051  12.048  0.00  0.00    +0.000 A 
ATOM     11  C   UNL     1       5.931   3.455  12.966  0.00  0.00    +0.000 A 
ATOM     12  C   UNL     1       5.963   3.848  14.307  0.00  0.00    +0.000 A 
ENDBRANCH   4   7
BRANCH   5  13
ATOM     13  C   UNL     1       4.814   6.632  16.406  0.00  0.00    +0.000 C 
BRANCH  13  14
ATOM     14  C   UNL     1       3.700   6.464  17.412  0.00  0.00    +0.000 C 
ATOM     15  O   UNL     1       2.952   7.409  17.663  0.00  0.00    +0.000 OA
ATOM     16  N   UNL     1       3.570   5.240  18.037  0.00  0.00    +0.000 N 
ATOM     17  H   UNL     1       4.029   4.428  17.627  0.00  0.00    +0.000 HD
BRANCH  16  18
ATOM     18  C   UNL     1       2.536   5.040  19.026  0.00  0.00    +0.000 C 
ATOM     19  C   UNL     1       1.537   3.956  18.639  0.00  0.00    +0.000 C 
ATOM     20  C   UNL     1       0.782   3.711  19.938  0.00  0.00    +0.000 C 
ATOM     21  C   UNL     1       1.781   4.011  21.060  0.00  0.00    +0.000 C 
ATOM     22  C   UNL     1       3.041   4.544  20.377  0.00  0.00    +0.000 C 
ENDBRANCH  16  18
ENDBRANCH  13  14
ENDBRANCH   5  13
TORSDOF 4
ENDMDL
MODEL 2
REMARK VINA RESULT:      -7.5      0.077      1.050
REMARK  Name = 
REMARK  5 active torsions:
REMARK  status: ('A' for Active; 'I' for Inactive)
REMARK    1  A    between atoms: C_1  and  C_2
REMARK    2  A    between atoms: C_4  and  C_5
REMARK    3  A    between atoms: N_11  and  C_12
REMARK    4  A    between atoms: C_12  and  C_13
REMARK    5  A    between atoms: N_15  and  C_16
REMARK                            x       y       z     vdW  Elec       q    Type
REMARK                         _______ _______ _______ _____ _____    ______ ____
ROOT
ATOM      1  C   UNL     1       8.301   5.212  19.429  0.00  0.00    +0.000 C 
ATOM      2  C   UNL     1       7.553   5.405  18.172  0.00  0.00    +0.000 A 
ATOM      3  N   UNL     1       7.835   4.727  17.017  0.00  0.00    +0.000 NA
ATOM      4  C   UNL     1       6.950   5.179  16.141  0.00  0.00    +0.000 A 
ATOM      5  N   UNL     1       6.112   6.044  16.815  0.00  0.00    +0.000 N 
ATOM      6  N   UNL     1       6.534   6.259  18.079  0.00  0.00    +0.000 NA
ENDROOT
BRANCH   4   7
ATOM      7  C   UNL     1       6.869   4.788  14.726  0.00  0.00    +0.000 A 
ATOM      8  C   UNL     1       5.984   3.773  14.331  0.00  0.00    +0.000 A 
ATOM      9  C   UNL     1       5.893   3.381  12.986  0.00  0.00    +0.000 A 
ATOM     10  C   UNL     1       6.683   3.999  12.021  0.00  0.00    +0.000 A 
ATOM     11  C   UNL     1       7.583   4.986  12.399  0.00  0.00    +0.000 A 
ATOM     12  C   UNL     1       7.688   5.357  13.743  0.00  0.00    +0.000 A 
ENDBRANCH   4   7
BRANCH   5  13
ATOM     13  C   UNL     1       4.849   6.620  16.407  0.00  0.00    +0.000 C 
BRANCH  13  14
ATOM     14  C   UNL     1       3.739   6.450  17.418  0.00  0.00    +0.000 C 
ATOM     15  O   UNL     1       2.991   7.393  17.673  0.00  0.00    +0.000 OA
ATOM     16  N   UNL     1       3.613   5.224  18.041  0.00  0.00    +0.000 N 
ATOM     17  H   UNL     1       4.071   4.414  17.628  0.00  0.00    +0.000 HD
BRANCH  16  18
ATOM     18  C   UNL     1       2.584   5.021  19.034  0.00  0.00    +0.000 C 
ATOM     19  C   UNL     1       1.546   3.984  18.619  0.00  0.00    +0.000 C 
ATOM     20  C   UNL     1       0.797   3.716  19.916  0.00  0.00    +0.000 C 
ATOM     21  C   UNL     1       1.816   3.942  21.038  0.00  0.00    +0.000 C 
ATOM     22  C   UNL     1       3.086   4.460  20.360  0.00  0.00    +0.000 C 
ENDBRANCH  16  18
ENDBRANCH  13  14
ENDBRANCH   5  13
TORSDOF 4
ENDMDL
MODEL 3
REMARK VINA RESULT:      -7.1      1.734      2.247
REMARK  Name = 
REMARK  5 active torsions:
REMARK  status: ('A' for Active; 'I' for Inactive)
REMARK    1  A    between atoms: C_1  and  C_2
REMARK    2  A    between atoms: C_4  and  C_5
REMARK    3  A    between atoms: N_11  and  C_12
REMARK    4  A    between atoms: C_12  and  C_13
REMARK    5  A    between atoms: N_15  and  C_16
REMARK                            x       y       z     vdW  Elec       q    Type
REMARK                         _______ _______ _______ _____ _____    ______ ____
ROOT
ATOM      1  C   UNL     1       7.680   5.964  19.206  0.00  0.00    +0.000 C 
ATOM      2  C   UNL     1       6.969   5.516  17.994  0.00  0.00    +0.000 A 
ATOM      3  N   UNL     1       7.577   5.365  16.777  0.00  0.00    +0.000 NA
ATOM      4  C   UNL     1       6.610   4.952  15.971  0.00  0.00    +0.000 A 
ATOM      5  N   UNL     1       5.477   4.783  16.742  0.00  0.00    +0.000 N 
ATOM      6  N   UNL     1       5.669   5.216  18.006  0.00  0.00    +0.000 NA
ENDROOT
BRANCH   4   7
ATOM      7  C   UNL     1       6.749   4.690  14.530  0.00  0.00    +0.000 A 
ATOM      8  C   UNL     1       5.955   3.709  13.918  0.00  0.00    +0.000 A 
ATOM      9  C   UNL     1       6.074   3.439  12.546  0.00  0.00    +0.000 A 
ATOM     10  C   UNL     1       6.985   4.148  11.769  0.00  0.00    +0.000 A 
ATOM     11  C   UNL     1       7.799   5.104  12.365  0.00  0.00    +0.000 A 
ATOM     12  C   UNL     1       7.694   5.352  13.736  0.00  0.00    +0.000 A 
ENDBRANCH   4   7
BRANCH   5  13
ATOM     13  C   UNL     1       4.226   4.130  16.424  0.00  0.00    +0.000 C 
BRANCH  13  14
ATOM     14  C   UNL     1       3.686   3.260  17.535  0.00  0.00    +0.000 C 
ATOM     15  O   UNL     1       3.944   2.057  17.553  0.00  0.00    +0.000 OA
ATOM     16  N   UNL     1       2.895   3.856  18.497  0.00  0.00    +0.000 N 
ATOM     17  H   UNL     1       2.916   4.869  18.593  0.00  0.00    +0.000 HD
BRANCH  16  18
ATOM     18  C   UNL     1       2.334   3.060  19.565  0.00  0.00    +0.000 C 
ATOM     19  C   UNL     1       3.298   2.847  20.726  0.00  0.00    +0.000 C 
ATOM     20  C   UNL     1       2.397   2.293  21.819  0.00  0.00    +0.000 C 
ATOM     21  C   UNL     1       1.014   2.904  21.566  0.00  0.00    +0.000 C 
ATOM     22  C   UNL     1       1.131   3.690  20.258  0.00  0.00    +0.000 C 
ENDBRANCH  16  18
ENDBRANCH  13  14
ENDBRANCH   5  13
TORSDOF 4
ENDMDL
MODEL 4
REMARK VINA RESULT:      -7.0      1.871      4.141
REMARK  Name = 
REMARK  5 active torsions:
REMARK  status: ('A' for Active; 'I' for Inactive)
REMARK    1  A    between atoms: C_1  and  C_2
REMARK    2  A    between atoms: C_4  and  C_5
REMARK    3  A    between atoms: N_11  and  C_12
REMARK    4  A    between atoms: C_12  and  C_13
REMARK    5  A    between atoms: N_15  and  C_16
REMARK                            x       y       z     vdW  Elec       q    Type
REMARK                         _______ _______ _______ _____ _____    ______ ____
ROOT
ATOM      1  C   UNL     1       6.956   3.912  12.311  0.00  0.00    +0.000 C 
ATOM      2  C   UNL     1       6.596   4.380  13.663  0.00  0.00    +0.000 A 
ATOM      3  N   UNL     1       7.483   4.988  14.510  0.00  0.00    +0.000 NA
ATOM      4  C   UNL     1       6.775   5.251  15.599  0.00  0.00    +0.000 A 
ATOM      5  N   UNL     1       5.472   4.876  15.342  0.00  0.00    +0.000 N 
ATOM      6  N   UNL     1       5.363   4.248  14.152  0.00  0.00    +0.000 NA
ENDROOT
BRANCH   4   7
ATOM      7  C   UNL     1       7.295   5.866  16.830  0.00  0.00    +0.000 A 
ATOM      8  C   UNL     1       7.567   5.065  17.950  0.00  0.00    +0.000 A 
ATOM      9  C   UNL     1       8.060   5.631  19.136  0.00  0.00    +0.000 A 
ATOM     10  C   UNL     1       8.289   7.001  19.216  0.00  0.00    +0.000 A 
ATOM     11  C   UNL     1       7.999   7.811  18.126  0.00  0.00    +0.000 A 
ATOM     12  C   UNL     1       7.486   7.248  16.955  0.00  0.00    +0.000 A 
ENDBRANCH   4   7
BRANCH   5  13
ATOM     13  C   UNL     1       4.261   5.160  16.080  0.00  0.00    +0.000 C 
BRANCH  13  14
ATOM     14  C   UNL     1       4.024   4.239  17.254  0.00  0.00    +0.000 C 
ATOM     15  O   UNL     1       4.501   3.105  17.250  0.00  0.00    +0.000 OA
ATOM     16  N   UNL     1       3.254   4.707  18.300  0.00  0.00    +0.000 N 
ATOM     17  H   UNL     1       3.098   5.710  18.385  0.00  0.00    +0.000 HD
BRANCH  16  18
ATOM     18  C   UNL     1       2.979   3.854  19.432  0.00  0.00    +0.000 C 
ATOM     19  C   UNL     1       2.611   4.628  20.692  0.00  0.00    +0.000 C 
ATOM     20  C   UNL     1       2.060   3.545  21.609  0.00  0.00    +0.000 C 
ATOM     21  C   UNL     1       1.444   2.492  20.681  0.00  0.00    +0.000 C 
ATOM     22  C   UNL     1       1.773   2.938  19.255  0.00  0.00    +0.000 C 
ENDBRANCH  16  18
ENDBRANCH  13  14
ENDBRANCH   5  13
TORSDOF 4
ENDMDL
MODEL 5
REMARK VINA RESULT:      -7.0      1.853      4.057
REMARK  Name = 
REMARK  5 active torsions:
REMARK  status: ('A' for Active; 'I' for Inactive)
REMARK    1  A    between atoms: C_1  and  C_2
REMARK    2  A    between atoms: C_4  and  C_5
REMARK    3  A    between atoms: N_11  and  C_12
REMARK    4  A    between atoms: C_12  and  C_13
REMARK    5  A    between atoms: N_15  and  C_16
REMARK                            x       y       z     vdW  Elec       q    Type
REMARK                         _______ _______ _______ _____ _____    ______ ____
ROOT
ATOM      1  C   UNL     1       6.821   3.899  12.382  0.00  0.00    +0.000 C 
ATOM      2  C   UNL     1       6.486   4.365  13.741  0.00  0.00    +0.000 A 
ATOM      3  N   UNL     1       7.393   4.950  14.582  0.00  0.00    +0.000 NA
ATOM      4  C   UNL     1       6.703   5.220  15.680  0.00  0.00    +0.000 A 
ATOM      5  N   UNL     1       5.390   4.872  15.436  0.00  0.00    +0.000 N 
ATOM      6  N   UNL     1       5.255   4.254  14.244  0.00  0.00    +0.000 NA
ENDROOT
BRANCH   4   7
ATOM      7  C   UNL     1       7.248   5.817  16.909  0.00  0.00    +0.000 A 
ATOM      8  C   UNL     1       7.513   7.193  16.960  0.00  0.00    +0.000 A 
ATOM      9  C   UNL     1       8.037   7.783  18.120  0.00  0.00    +0.000 A 
ATOM     10  C   UNL     1       8.300   7.006  19.244  0.00  0.00    +0.000 A 
ATOM     11  C   UNL     1       8.070   5.637  19.202  0.00  0.00    +0.000 A 
ATOM     12  C   UNL     1       7.570   5.050  18.036  0.00  0.00    +0.000 A 
ENDBRANCH   4   7
BRANCH   5  13
ATOM     13  C   UNL     1       4.193   5.174  16.190  0.00  0.00    +0.000 C 
BRANCH  13  14
ATOM     14  C   UNL     1       3.924   4.219  17.328  0.00  0.00    +0.000 C 
ATOM     15  O   UNL     1       4.324   3.057  17.262  0.00  0.00    +0.000 OA
ATOM     16  N   UNL     1       3.213   4.689  18.414  0.00  0.00    +0.000 N 
ATOM     17  H   UNL     1       3.125   5.695  18.546  0.00  0.00    +0.000 HD
BRANCH  16  18
ATOM     18  C   UNL     1       2.908   3.806  19.516  0.00  0.00    +0.000 C 
ATOM     19  C   UNL     1       2.669   4.543  20.828  0.00  0.00    +0.000 C 
ATOM     20  C   UNL     1       2.060   3.467  21.716  0.00  0.00    +0.000 C 
ATOM     21  C   UNL     1       1.309   2.525  20.769  0.00  0.00    +0.000 C 
ATOM     22  C   UNL     1       1.616   3.013  19.352  0.00  0.00    +0.000 C 
ENDBRANCH  16  18
ENDBRANCH  13  14
ENDBRANCH   5  13
TORSDOF 4
ENDMDL
MODEL 6
REMARK VINA RESULT:      -7.0      2.215      6.801
REMARK  Name = 
REMARK  5 active torsions:
REMARK  status: ('A' for Active; 'I' for Inactive)
REMARK    1  A    between atoms: C_1  and  C_2
REMARK    2  A    between atoms: C_4  and  C_5
REMARK    3  A    between atoms: N_11  and  C_12
REMARK    4  A    between atoms: C_12  and  C_13
REMARK    5  A    between atoms: N_15  and  C_16
REMARK                            x       y       z     vdW  Elec       q    Type
REMARK                         _______ _______ _______ _____ _____    ______ ____
ROOT
ATOM      1  C   UNL     1       3.128   1.437  18.548  0.00  0.00    +0.000 C 
ATOM      2  C   UNL     1       3.380   2.880  18.370  0.00  0.00    +0.000 A 
ATOM      3  N   UNL     1       2.565   3.855  18.879  0.00  0.00    +0.000 NA
ATOM      4  C   UNL     1       3.134   4.992  18.506  0.00  0.00    +0.000 A 
ATOM      5  N   UNL     1       4.312   4.670  17.865  0.00  0.00    +0.000 N 
ATOM      6  N   UNL     1       4.439   3.336  17.700  0.00  0.00    +0.000 NA
ENDROOT
BRANCH   4   7
ATOM      7  C   UNL     1       2.607   6.339  18.771  0.00  0.00    +0.000 A 
ATOM      8  C   UNL     1       2.535   7.279  17.732  0.00  0.00    +0.000 A 
ATOM      9  C   UNL     1       2.040   8.572  17.963  0.00  0.00    +0.000 A 
ATOM     10  C   UNL     1       1.610   8.940  19.234  0.00  0.00    +0.000 A 
ATOM     11  C   UNL     1       1.700   8.031  20.280  0.00  0.00    +0.000 A 
ATOM     12  C   UNL     1       2.215   6.753  20.051  0.00  0.00    +0.000 A 
ENDBRANCH   4   7
BRANCH   5  13
ATOM     13  C   UNL     1       5.422   5.515  17.480  0.00  0.00    +0.000 C 
BRANCH  13  14
ATOM     14  C   UNL     1       6.275   4.946  16.371  0.00  0.00    +0.000 C 
ATOM     15  O   UNL     1       7.479   4.768  16.553  0.00  0.00    +0.000 OA
ATOM     16  N   UNL     1       5.663   4.655  15.168  0.00  0.00    +0.000 N 
ATOM     17  H   UNL     1       4.648   4.573  15.139  0.00  0.00    +0.000 HD
BRANCH  16  18
ATOM     18  C   UNL     1       6.442   4.133  14.069  0.00  0.00    +0.000 C 
ATOM     19  C   UNL     1       5.593   3.462  12.996  0.00  0.00    +0.000 C 
ATOM     20  C   UNL     1       6.570   3.305  11.839  0.00  0.00    +0.000 C 
ATOM     21  C   UNL     1       7.555   4.472  11.968  0.00  0.00    +0.000 C 
ATOM     22  C   UNL     1       7.194   5.191  13.269  0.00  0.00    +0.000 C 
ENDBRANCH  16  18
ENDBRANCH  13  14
ENDBRANCH   5  13
TORSDOF 4
ENDMDL
MODEL 7
REMARK VINA RESULT:      -6.9      1.627      1.870
REMARK  Name = 
REMARK  5 active torsions:
REMARK  status: ('A' for Active; 'I' for Inactive)
REMARK    1  A    between atoms: C_1  and  C_2
REMARK    2  A    between atoms: C_4  and  C_5
REMARK    3  A    between atoms: N_11  and  C_12
REMARK    4  A    between atoms: C_12  and  C_13
REMARK    5  A    between atoms: N_15  and  C_16
REMARK                            x       y       z     vdW  Elec       q    Type
REMARK                         _______ _______ _______ _____ _____    ______ ____
ROOT
ATOM      1  C   UNL     1       7.914   7.483  18.308  0.00  0.00    +0.000 C 
ATOM      2  C   UNL     1       7.341   6.418  17.463  0.00  0.00    +0.000 A 
ATOM      3  N   UNL     1       7.562   6.324  16.116  0.00  0.00    +0.000 NA
ATOM      4  C   UNL     1       6.886   5.248  15.741  0.00  0.00    +0.000 A 
ATOM      5  N   UNL     1       6.355   4.680  16.882  0.00  0.00    +0.000 N 
ATOM      6  N   UNL     1       6.566   5.456  17.966  0.00  0.00    +0.000 NA
ENDROOT
BRANCH   4   7
ATOM      7  C   UNL     1       6.769   4.747  14.364  0.00  0.00    +0.000 A 
ATOM      8  C   UNL     1       7.670   5.186  13.381  0.00  0.00    +0.000 A 
ATOM      9  C   UNL     1       7.574   4.724  12.059  0.00  0.00    +0.000 A 
ATOM     10  C   UNL     1       6.581   3.817  11.704  0.00  0.00    +0.000 A 
ATOM     11  C   UNL     1       5.664   3.393  12.658  0.00  0.00    +0.000 A 
ATOM     12  C   UNL     1       5.748   3.874  13.968  0.00  0.00    +0.000 A 
ENDBRANCH   4   7
BRANCH   5  13
ATOM     13  C   UNL     1       5.746   3.382  17.076  0.00  0.00    +0.000 C 
BRANCH  13  14
ATOM     14  C   UNL     1       4.335   3.438  17.613  0.00  0.00    +0.000 C 
ATOM     15  O   UNL     1       3.406   3.740  16.865  0.00  0.00    +0.000 OA
ATOM     16  N   UNL     1       4.140   3.159  18.951  0.00  0.00    +0.000 N 
ATOM     17  H   UNL     1       4.874   2.675  19.464  0.00  0.00    +0.000 HD
BRANCH  16  18
ATOM     18  C   UNL     1       2.812   3.225  19.516  0.00  0.00    +0.000 C 
ATOM     19  C   UNL     1       2.757   2.783  20.973  0.00  0.00    +0.000 C 
ATOM     20  C   UNL     1       1.377   3.246  21.417  0.00  0.00    +0.000 C 
ATOM     21  C   UNL     1       1.067   4.489  20.576  0.00  0.00    +0.000 C 
ATOM     22  C   UNL     1       2.223   4.630  19.583  0.00  0.00    +0.000 C 
ENDBRANCH  16  18
ENDBRANCH  13  14
ENDBRANCH   5  13
TORSDOF 4
ENDMDL
MODEL 8
REMARK VINA RESULT:      -6.9      0.668      1.500
REMARK  Name = 
REMARK  5 active torsions:
REMARK  status: ('A' for Active; 'I' for Inactive)
REMARK    1  A    between atoms: C_1  and  C_2
REMARK    2  A    between atoms: C_4  and  C_5
REMARK    3  A    between atoms: N_11  and  C_12
REMARK    4  A    between atoms: C_12  and  C_13
REMARK    5  A    between atoms: N_15  and  C_16
REMARK                            x       y       z     vdW  Elec       q    Type
REMARK                         _______ _______ _______ _____ _____    ______ ____
ROOT
ATOM      1  C   UNL     1       8.382   5.235  19.485  0.00  0.00    +0.000 C 
ATOM      2  C   UNL     1       7.555   5.329  18.266  0.00  0.00    +0.000 A 
ATOM      3  N   UNL     1       7.911   4.768  17.070  0.00  0.00    +0.000 NA
ATOM      4  C   UNL     1       6.915   5.074  16.251  0.00  0.00    +0.000 A 
ATOM      5  N   UNL     1       5.957   5.728  16.996  0.00  0.00    +0.000 N 
ATOM      6  N   UNL     1       6.385   5.969  18.253  0.00  0.00    +0.000 NA
ENDROOT
BRANCH   4   7
ATOM      7  C   UNL     1       6.848   4.733  14.821  0.00  0.00    +0.000 A 
ATOM      8  C   UNL     1       5.942   3.758  14.377  0.00  0.00    +0.000 A 
ATOM      9  C   UNL     1       5.863   3.415  13.018  0.00  0.00    +0.000 A 
ATOM     10  C   UNL     1       6.686   4.042  12.088  0.00  0.00    +0.000 A 
ATOM     11  C   UNL     1       7.608   4.989  12.515  0.00  0.00    +0.000 A 
ATOM     12  C   UNL     1       7.700   5.312  13.872  0.00  0.00    +0.000 A 
ENDBRANCH   4   7
BRANCH   5  13
ATOM     13  C   UNL     1       4.588   6.061  16.664  0.00  0.00    +0.000 C 
BRANCH  13  14
ATOM     14  C   UNL     1       3.563   5.438  17.582  0.00  0.00    +0.000 C 
ATOM     15  O   UNL     1       2.508   6.028  17.814  0.00  0.00    +0.000 OA
ATOM     16  N   UNL     1       3.859   4.215  18.149  0.00  0.00    +0.000 N 
ATOM     17  H   UNL     1       4.605   3.653  17.743  0.00  0.00    +0.000 HD
BRANCH  16  18
ATOM     18  C   UNL     1       2.921   3.592  19.054  0.00  0.00    +0.000 C 
ATOM     19  C   UNL     1       2.501   4.500  20.203  0.00  0.00    +0.000 C 
ATOM     20  C   UNL     1       1.305   3.768  20.796  0.00  0.00    +0.000 C 
ATOM     21  C   UNL     1       0.662   3.013  19.628  0.00  0.00    +0.000 C 
ATOM     22  C   UNL     1       1.580   3.230  18.423  0.00  0.00    +0.000 C 
ENDBRANCH  16  18
ENDBRANCH  13  14
ENDBRANCH   5  13
TORSDOF 4
ENDMDL
MODEL 9
REMARK VINA RESULT:      -6.8      1.022      1.484
REMARK  Name = 
REMARK  5 active torsions:
REMARK  status: ('A' for Active; 'I' for Inactive)
REMARK    1  A    between atoms: C_1  and  C_2
REMARK    2  A    between atoms: C_4  and  C_5
REMARK    3  A    between atoms: N_11  and  C_12
REMARK    4  A    between atoms: C_12  and  C_13
REMARK    5  A    between atoms: N_15  and  C_16
REMARK                            x       y       z     vdW  Elec       q    Type
REMARK                         _______ _______ _______ _____ _____    ______ ____
ROOT
ATOM      1  C   UNL     1       8.011   6.531  19.010  0.00  0.00    +0.000 C 
ATOM      2  C   UNL     1       7.201   6.106  17.851  0.00  0.00    +0.000 A 
ATOM      3  N   UNL     1       7.743   5.647  16.682  0.00  0.00    +0.000 NA
ATOM      4  C   UNL     1       6.697   5.374  15.915  0.00  0.00    +0.000 A 
ATOM      5  N   UNL     1       5.565   5.593  16.674  0.00  0.00    +0.000 N 
ATOM      6  N   UNL     1       5.868   6.135  17.872  0.00  0.00    +0.000 NA
ENDROOT
BRANCH   4   7
ATOM      7  C   UNL     1       6.755   4.891  14.527  0.00  0.00    +0.000 A 
ATOM      8  C   UNL     1       5.892   3.868  14.107  0.00  0.00    +0.000 A 
ATOM      9  C   UNL     1       5.933   3.389  12.788  0.00  0.00    +0.000 A 
ATOM     10  C   UNL     1       6.834   3.927  11.875  0.00  0.00    +0.000 A 
ATOM     11  C   UNL     1       7.714   4.921  12.282  0.00  0.00    +0.000 A 
ATOM     12  C   UNL     1       7.687   5.379  13.602  0.00  0.00    +0.000 A 
ENDBRANCH   4   7
BRANCH   5  13
ATOM     13  C   UNL     1       4.189   5.226  16.417  0.00  0.00    +0.000 C 
BRANCH  13  14
ATOM     14  C   UNL     1       3.341   5.104  17.661  0.00  0.00    +0.000 C 
ATOM     15  O   UNL     1       2.514   5.975  17.929  0.00  0.00    +0.000 OA
ATOM     16  N   UNL     1       3.541   4.007  18.475  0.00  0.00    +0.000 N 
ATOM     17  H   UNL     1       4.035   3.200  18.100  0.00  0.00    +0.000 HD
BRANCH  16  18
ATOM     18  C   UNL     1       2.773   3.860  19.690  0.00  0.00    +0.000 C 
ATOM     19  C   UNL     1       1.366   3.326  19.449  0.00  0.00    +0.000 C 
ATOM     20  C   UNL     1       0.899   2.955  20.850  0.00  0.00    +0.000 C 
ATOM     21  C   UNL     1       2.165   2.563  21.618  0.00  0.00    +0.000 C 
ATOM     22  C   UNL     1       3.338   2.843  20.676  0.00  0.00    +0.000 C 
ENDBRANCH  16  18
ENDBRANCH  13  14
ENDBRANCH   5  13
TORSDOF 4
ENDMDL
