MODEL 1
REMARK VINA RESULT:      -7.2      0.000      0.000
REMARK  Name = 
REMARK  2 active torsions:
REMARK  status: ('A' for Active; 'I' for Inactive)
REMARK    1  A    between atoms: C_1  and  C_2
REMARK    2  A    between atoms: C_4  and  O_5
REMARK                            x       y       z     vdW  Elec       q    Type
REMARK                         _______ _______ _______ _____ _____    ______ ____
ROOT
ATOM      1  C   UNL     1       6.719   4.510  14.065  0.00  0.00    +0.000 C 
ATOM      2  C   UNL     1       5.821   4.737  15.238  0.00  0.00    +0.000 A 
ATOM      3  N   UNL     1       5.569   5.992  15.616  0.00  0.00    +0.000 NA
ATOM      4  C   UNL     1       4.751   6.131  16.675  0.00  0.00    +0.000 A 
ATOM      5  C   UNL     1       4.149   5.112  17.406  0.00  0.00    +0.000 A 
ATOM      6  C   UNL     1       4.492   3.860  16.912  0.00  0.00    +0.000 A 
ATOM      7  N   UNL     1       5.314   3.658  15.848  0.00  0.00    +0.000 NA
ATOM      8  C   UNL     1       3.972   2.593  17.515  0.00  0.00    +0.000 C 
ATOM      9  C   UNL     1       3.040   2.717  18.712  0.00  0.00    +0.000 C 
ATOM     10  C   UNL     1       2.714   4.102  19.212  0.00  0.00    +0.000 A 
ATOM     11  C   UNL     1       1.854   4.241  20.328  0.00  0.00    +0.000 A 
ATOM     12 CL   UNL     1       1.185   2.868  21.144  0.00  0.00    +0.000 Cl
ATOM     13  C   UNL     1       1.506   5.495  20.820  0.00  0.00    +0.000 A 
ATOM     14  C   UNL     1       2.012   6.629  20.207  0.00  0.00    +0.000 A 
ATOM     15  C   UNL     1       2.866   6.503  19.108  0.00  0.00    +0.000 A 
ATOM     16  C   UNL     1       3.244   5.252  18.576  0.00  0.00    +0.000 A 
ENDROOT
BRANCH   4  17
ATOM     17  O   UNL     1       4.577   7.447  16.951  0.00  0.00    +0.000 OA
ATOM     18  H   UNL     1       4.208   7.382  17.851  0.00  0.00    +0.000 HD
ENDBRANCH   4  17
TORSDOF 1
ENDMDL
MODEL 2
REMARK VINA RESULT:      -7.1      1.824      2.912
REMARK  Name = 
REMARK  2 active torsions:
REMARK  status: ('A' for Active; 'I' for Inactive)
REMARK    1  A    between atoms: C_1  and  C_2
REMARK    2  A    between atoms: C_4  and  O_5
REMARK                            x       y       z     vdW  Elec       q    Type
REMARK                         _______ _______ _______ _____ _____    ______ ____
ROOT
ATOM      1  C   UNL     1       6.869   4.750  14.022  0.00  0.00    +0.000 C 
ATOM      2  C   UNL     1       5.962   4.804  15.209  0.00  0.00    +0.000 A 
ATOM      3  N   UNL     1       5.665   3.664  15.838  0.00  0.00    +0.000 NA
ATOM      4  C   UNL     1       4.848   3.779  16.900  0.00  0.00    +0.000 A 
ATOM      5  C   UNL     1       4.289   4.949  17.403  0.00  0.00    +0.000 A 
ATOM      6  C   UNL     1       4.675   6.057  16.661  0.00  0.00    +0.000 A 
ATOM      7  N   UNL     1       5.496   6.003  15.579  0.00  0.00    +0.000 NA
ATOM      8  C   UNL     1       4.219   7.442  16.996  0.00  0.00    +0.000 C 
ATOM      9  C   UNL     1       3.297   7.605  18.197  0.00  0.00    +0.000 C 
ATOM     10  C   UNL     1       2.901   6.363  18.956  0.00  0.00    +0.000 A 
ATOM     11  C   UNL     1       2.039   6.491  20.072  0.00  0.00    +0.000 A 
ATOM     12 CL   UNL     1       1.414   8.026  20.575  0.00  0.00    +0.000 Cl
ATOM     13  C   UNL     1       1.656   5.381  20.819  0.00  0.00    +0.000 A 
ATOM     14  C   UNL     1       2.125   4.128  20.463  0.00  0.00    +0.000 A 
ATOM     15  C   UNL     1       2.972   3.991  19.360  0.00  0.00    +0.000 A 
ATOM     16  C   UNL     1       3.387   5.088  18.575  0.00  0.00    +0.000 A 
ENDROOT
BRANCH   4  17
ATOM     17  O   UNL     1       4.630   2.556  17.445  0.00  0.00    +0.000 OA
ATOM     18  H   UNL     1       4.015   2.186  16.786  0.00  0.00    +0.000 HD
ENDBRANCH   4  17
TORSDOF 1
ENDMDL
MODEL 3
REMARK VINA RESULT:      -7.0      3.166      5.138
REMARK  Name = 
REMARK  2 active torsions:
REMARK  status: ('A' for Active; 'I' for Inactive)
REMARK    1  A    between atoms: C_1  and  C_2
REMARK    2  A    between atoms: C_4  and  O_5
REMARK                            x       y       z     vdW  Elec       q    Type
REMARK                         _______ _______ _______ _____ _____    ______ ____
ROOT
ATOM      1  C   UNL     1       1.220   2.532  22.115  0.00  0.00    +0.000 C 
ATOM      2  C   UNL     1       1.929   3.239  21.005  0.00  0.00    +0.000 A 
ATOM      3  N   UNL     1       2.039   4.568  21.061  0.00  0.00    +0.000 NA
ATOM      4  C   UNL     1       2.690   5.145  20.036  0.00  0.00    +0.000 A 
ATOM      5  C   UNL     1       3.255   4.505  18.937  0.00  0.00    +0.000 A 
ATOM      6  C   UNL     1       3.072   3.131  19.000  0.00  0.00    +0.000 A 
ATOM      7  N   UNL     1       2.421   2.492  20.009  0.00  0.00    +0.000 NA
ATOM      8  C   UNL     1       3.590   2.206  17.944  0.00  0.00    +0.000 C 
ATOM      9  C   UNL     1       4.337   2.829  16.772  0.00  0.00    +0.000 C 
ATOM     10  C   UNL     1       4.493   4.329  16.753  0.00  0.00    +0.000 A 
ATOM     11  C   UNL     1       5.179   4.930  15.669  0.00  0.00    +0.000 A 
ATOM     12 CL   UNL     1       5.823   3.995  14.362  0.00  0.00    +0.000 Cl
ATOM     13  C   UNL     1       5.368   6.307  15.609  0.00  0.00    +0.000 A 
ATOM     14  C   UNL     1       4.874   7.105  16.627  0.00  0.00    +0.000 A 
ATOM     15  C   UNL     1       4.191   6.522  17.698  0.00  0.00    +0.000 A 
ATOM     16  C   UNL     1       3.978   5.131  17.801  0.00  0.00    +0.000 A 
ENDROOT
BRANCH   4  17
ATOM     17  O   UNL     1       2.733   6.488  20.218  0.00  0.00    +0.000 OA
ATOM     18  H   UNL     1       1.781   6.695  20.166  0.00  0.00    +0.000 HD
ENDBRANCH   4  17
TORSDOF 1
ENDMDL
MODEL 4
REMARK VINA RESULT:      -6.5      3.599      5.018
REMARK  Name = 
REMARK  2 active torsions:
REMARK  status: ('A' for Active; 'I' for Inactive)
REMARK    1  A    between atoms: C_1  and  C_2
REMARK    2  A    between atoms: C_4  and  O_5
REMARK                            x       y       z     vdW  Elec       q    Type
REMARK                         _______ _______ _______ _____ _____    ______ ____
ROOT
ATOM      1  C   UNL     1       4.721   3.962  17.659  0.00  0.00    +0.000 C 
ATOM      2  C   UNL     1       3.888   5.007  18.330  0.00  0.00    +0.000 A 
ATOM      3  N   UNL     1       3.439   4.770  19.564  0.00  0.00    +0.000 NA
ATOM      4  C   UNL     1       2.698   5.748  20.115  0.00  0.00    +0.000 A 
ATOM      5  C   UNL     1       2.359   6.967  19.536  0.00  0.00    +0.000 A 
ATOM      6  C   UNL     1       2.887   7.087  18.258  0.00  0.00    +0.000 A 
ATOM      7  N   UNL     1       3.640   6.132  17.649  0.00  0.00    +0.000 NA
ATOM      8  C   UNL     1       2.676   8.307  17.418  0.00  0.00    +0.000 C 
ATOM      9  C   UNL     1       1.847   9.436  18.015  0.00  0.00    +0.000 C 
ATOM     10  C   UNL     1       1.289   9.242  19.403  0.00  0.00    +0.000 A 
ATOM     11  C   UNL     1       0.509  10.276  19.976  0.00  0.00    +0.000 A 
ATOM     12 CL   UNL     1       0.164  11.742  19.122  0.00  0.00    +0.000 Cl
ATOM     13  C   UNL     1      -0.015  10.158  21.259  0.00  0.00    +0.000 A 
ATOM     14  C   UNL     1       0.229   9.007  21.989  0.00  0.00    +0.000 A 
ATOM     15  C   UNL     1       0.993   7.978  21.431  0.00  0.00    +0.000 A 
ATOM     16  C   UNL     1       1.545   8.055  20.134  0.00  0.00    +0.000 A 
ENDROOT
BRANCH   4  17
ATOM     17  O   UNL     1       2.310   5.383  21.362  0.00  0.00    +0.000 OA
ATOM     18  H   UNL     1       3.025   5.790  21.886  0.00  0.00    +0.000 HD
ENDBRANCH   4  17
TORSDOF 1
ENDMDL
MODEL 5
REMARK VINA RESULT:      -6.4      2.880      4.380
REMARK  Name = 
REMARK  2 active torsions:
REMARK  status: ('A' for Active; 'I' for Inactive)
REMARK    1  A    between atoms: C_1  and  C_2
REMARK    2  A    between atoms: C_4  and  O_5
REMARK                            x       y       z     vdW  Elec       q    Type
REMARK                         _______ _______ _______ _____ _____    ______ ____
ROOT
ATOM      1  C   UNL     1       2.138  10.440  17.852  0.00  0.00    +0.000 C 
ATOM      2  C   UNL     1       2.217   9.064  18.431  0.00  0.00    +0.000 A 
ATOM      3  N   UNL     1       1.723   8.856  19.653  0.00  0.00    +0.000 NA
ATOM      4  C   UNL     1       1.820   7.597  20.117  0.00  0.00    +0.000 A 
ATOM      5  C   UNL     1       2.375   6.504  19.460  0.00  0.00    +0.000 A 
ATOM      6  C   UNL     1       2.850   6.854  18.203  0.00  0.00    +0.000 A 
ATOM      7  N   UNL     1       2.781   8.108  17.682  0.00  0.00    +0.000 NA
ATOM      8  C   UNL     1       3.488   5.860  17.285  0.00  0.00    +0.000 C 
ATOM      9  C   UNL     1       3.608   4.425  17.779  0.00  0.00    +0.000 C 
ATOM     10  C   UNL     1       3.087   4.108  19.159  0.00  0.00    +0.000 A 
ATOM     11  C   UNL     1       3.193   2.781  19.641  0.00  0.00    +0.000 A 
ATOM     12 CL   UNL     1       3.922   1.522  18.702  0.00  0.00    +0.000 Cl
ATOM     13  C   UNL     1       2.712   2.429  20.898  0.00  0.00    +0.000 A 
ATOM     14  C   UNL     1       2.120   3.395  21.693  0.00  0.00    +0.000 A 
ATOM     15  C   UNL     1       2.014   4.709  21.228  0.00  0.00    +0.000 A 
ATOM     16  C   UNL     1       2.487   5.110  19.961  0.00  0.00    +0.000 A 
ENDROOT
BRANCH   4  17
ATOM     17  O   UNL     1       1.282   7.524  21.360  0.00  0.00    +0.000 OA
ATOM     18  H   UNL     1       0.898   6.628  21.323  0.00  0.00    +0.000 HD
ENDBRANCH   4  17
TORSDOF 1
ENDMDL
MODEL 6
REMARK VINA RESULT:      -6.4      1.894      3.020
REMARK  Name = 
REMARK  2 active torsions:
REMARK  status: ('A' for Active; 'I' for Inactive)
REMARK    1  A    between atoms: C_1  and  C_2
REMARK    2  A    between atoms: C_4  and  O_5
REMARK                            x       y       z     vdW  Elec       q    Type
REMARK                         _______ _______ _______ _____ _____    ______ ____
ROOT
ATOM      1  C   UNL     1       7.645   5.332  13.375  0.00  0.00    +0.000 C 
ATOM      2  C   UNL     1       6.693   5.007  14.481  0.00  0.00    +0.000 A 
ATOM      3  N   UNL     1       6.441   3.724  14.749  0.00  0.00    +0.000 NA
ATOM      4  C   UNL     1       5.580   3.495  15.757  0.00  0.00    +0.000 A 
ATOM      5  C   UNL     1       4.934   4.448  16.537  0.00  0.00    +0.000 A 
ATOM      6  C   UNL     1       5.281   5.737  16.157  0.00  0.00    +0.000 A 
ATOM      7  N   UNL     1       6.143   6.030  15.147  0.00  0.00    +0.000 NA
ATOM      8  C   UNL     1       4.731   6.949  16.842  0.00  0.00    +0.000 C 
ATOM      9  C   UNL     1       3.757   6.723  17.990  0.00  0.00    +0.000 C 
ATOM     10  C   UNL     1       3.408   5.300  18.349  0.00  0.00    +0.000 A 
ATOM     11  C   UNL     1       2.500   5.067  19.411  0.00  0.00    +0.000 A 
ATOM     12 CL   UNL     1       1.767   6.367  20.289  0.00  0.00    +0.000 Cl
ATOM     13  C   UNL     1       2.156   3.776  19.796  0.00  0.00    +0.000 A 
ATOM     14  C   UNL     1       2.712   2.697  19.129  0.00  0.00    +0.000 A 
ATOM     15  C   UNL     1       3.606   2.917  18.077  0.00  0.00    +0.000 A 
ATOM     16  C   UNL     1       3.983   4.209  17.653  0.00  0.00    +0.000 A 
ENDROOT
BRANCH   4  17
ATOM     17  O   UNL     1       5.416   2.160  15.926  0.00  0.00    +0.000 OA
ATOM     18  H   UNL     1       5.077   1.920  15.044  0.00  0.00    +0.000 HD
ENDBRANCH   4  17
TORSDOF 1
ENDMDL
MODEL 7
REMARK VINA RESULT:      -6.4      4.067      5.658
REMARK  Name = 
REMARK  2 active torsions:
REMARK  status: ('A' for Active; 'I' for Inactive)
REMARK    1  A    between atoms: C_1  and  C_2
REMARK    2  A    between atoms: C_4  and  O_5
REMARK                            x       y       z     vdW  Elec       q    Type
REMARK                         _______ _______ _______ _____ _____    ______ ____
ROOT
ATOM      1  C   UNL     1       4.215   5.288  17.157  0.00  0.00    +0.000 C 
ATOM      2  C   UNL     1       3.414   6.166  18.065  0.00  0.00    +0.000 A 
ATOM      3  N   UNL     1       3.107   5.715  19.283  0.00  0.00    +0.000 NA
ATOM      4  C   UNL     1       2.390   6.551  20.053  0.00  0.00    +0.000 A 
ATOM      5  C   UNL     1       1.941   7.824  19.713  0.00  0.00    +0.000 A 
ATOM      6  C   UNL     1       2.326   8.172  18.426  0.00  0.00    +0.000 A 
ATOM      7  N   UNL     1       3.050   7.368  17.601  0.00  0.00    +0.000 NA
ATOM      8  C   UNL     1       1.979   9.494  17.817  0.00  0.00    +0.000 C 
ATOM      9  C   UNL     1       1.171  10.466  18.666  0.00  0.00    +0.000 C 
ATOM     10  C   UNL     1       0.770  10.026  20.052  0.00  0.00    +0.000 A 
ATOM     11  C   UNL     1       0.014  10.912  20.857  0.00  0.00    +0.000 A 
ATOM     12 CL   UNL     1      -0.479  12.472  20.288  0.00  0.00    +0.000 Cl
ATOM     13  C   UNL     1      -0.367  10.566  22.150  0.00  0.00    +0.000 A 
ATOM     14  C   UNL     1      -0.001   9.331  22.658  0.00  0.00    +0.000 A 
ATOM     15  C   UNL     1       0.742   8.448  21.870  0.00  0.00    +0.000 A 
ATOM     16  C   UNL     1       1.150   8.758  20.555  0.00  0.00    +0.000 A 
ENDROOT
BRANCH   4  17
ATOM     17  O   UNL     1       2.150   5.975  21.256  0.00  0.00    +0.000 OA
ATOM     18  H   UNL     1       1.274   5.583  21.083  0.00  0.00    +0.000 HD
ENDBRANCH   4  17
TORSDOF 1
ENDMDL
MODEL 8
REMARK VINA RESULT:      -6.2      2.801      5.078
REMARK  Name = 
REMARK  2 active torsions:
REMARK  status: ('A' for Active; 'I' for Inactive)
REMARK    1  A    between atoms: C_1  and  C_2
REMARK    2  A    between atoms: C_4  and  O_5
REMARK                            x       y       z     vdW  Elec       q    Type
REMARK                         _______ _______ _______ _____ _____    ______ ____
ROOT
ATOM      1  C   UNL     1       0.313   9.915  20.965  0.00  0.00    +0.000 C 
ATOM      2  C   UNL     1       1.081   8.836  20.272  0.00  0.00    +0.000 A 
ATOM      3  N   UNL     1       1.643   9.109  19.093  0.00  0.00    +0.000 NA
ATOM      4  C   UNL     1       2.324   8.099  18.522  0.00  0.00    +0.000 A 
ATOM      5  C   UNL     1       2.500   6.816  19.030  0.00  0.00    +0.000 A 
ATOM      6  C   UNL     1       1.868   6.664  20.257  0.00  0.00    +0.000 A 
ATOM      7  N   UNL     1       1.165   7.647  20.882  0.00  0.00    +0.000 NA
ATOM      8  C   UNL     1       1.910   5.381  21.024  0.00  0.00    +0.000 C 
ATOM      9  C   UNL     1       2.677   4.219  20.407  0.00  0.00    +0.000 C 
ATOM     10  C   UNL     1       3.331   4.440  19.066  0.00  0.00    +0.000 A 
ATOM     11  C   UNL     1       4.046   3.372  18.470  0.00  0.00    +0.000 A 
ATOM     12 CL   UNL     1       4.170   1.820  19.228  0.00  0.00    +0.000 Cl
ATOM     13  C   UNL     1       4.683   3.526  17.244  0.00  0.00    +0.000 A 
ATOM     14  C   UNL     1       4.617   4.746  16.592  0.00  0.00    +0.000 A 
ATOM     15  C   UNL     1       3.911   5.805  17.169  0.00  0.00    +0.000 A 
ATOM     16  C   UNL     1       3.250   5.694  18.411  0.00  0.00    +0.000 A 
ENDROOT
BRANCH   4  17
ATOM     17  O   UNL     1       2.843   8.507  17.338  0.00  0.00    +0.000 OA
ATOM     18  H   UNL     1       2.630   7.732  16.785  0.00  0.00    +0.000 HD
ENDBRANCH   4  17
TORSDOF 1
ENDMDL
MODEL 9
REMARK VINA RESULT:      -6.2      4.713      6.404
REMARK  Name = 
REMARK  2 active torsions:
REMARK  status: ('A' for Active; 'I' for Inactive)
REMARK    1  A    between atoms: C_1  and  C_2
REMARK    2  A    between atoms: C_4  and  O_5
REMARK                            x       y       z     vdW  Elec       q    Type
REMARK                         _______ _______ _______ _____ _____    ______ ____
ROOT
ATOM      1  C   UNL     1       3.640   5.987  18.163  0.00  0.00    +0.000 C 
ATOM      2  C   UNL     1       2.814   7.161  18.580  0.00  0.00    +0.000 A 
ATOM      3  N   UNL     1       2.701   8.193  17.741  0.00  0.00    +0.000 NA
ATOM      4  C   UNL     1       1.942   9.216  18.172  0.00  0.00    +0.000 A 
ATOM      5  C   UNL     1       1.270   9.306  19.386  0.00  0.00    +0.000 A 
ATOM      6  C   UNL     1       1.468   8.173  20.163  0.00  0.00    +0.000 A 
ATOM      7  N   UNL     1       2.226   7.109  19.782  0.00  0.00    +0.000 NA
ATOM      8  C   UNL     1       0.849   8.011  21.515  0.00  0.00    +0.000 C 
ATOM      9  C   UNL     1      -0.021   9.150  22.028  0.00  0.00    +0.000 C 
ATOM     10  C   UNL     1      -0.189  10.362  21.146  0.00  0.00    +0.000 A 
ATOM     11  C   UNL     1      -0.989  11.436  21.606  0.00  0.00    +0.000 A 
ATOM     12 CL   UNL     1      -1.760  11.404  23.156  0.00  0.00    +0.000 Cl
ATOM     13  C   UNL     1      -1.193  12.569  20.826  0.00  0.00    +0.000 A 
ATOM     14  C   UNL     1      -0.601  12.650  19.577  0.00  0.00    +0.000 A 
ATOM     15  C   UNL     1       0.195  11.597  19.116  0.00  0.00    +0.000 A 
ATOM     16  C   UNL     1       0.428  10.429  19.872  0.00  0.00    +0.000 A 
ENDROOT
BRANCH   4  17
ATOM     17  O   UNL     1       1.909  10.191  17.230  0.00  0.00    +0.000 OA
ATOM     18  H   UNL     1       2.499  10.846  17.646  0.00  0.00    +0.000 HD
ENDBRANCH   4  17
TORSDOF 1
ENDMDL
