MODEL 1
REMARK VINA RESULT:      -7.0      0.000      0.000
REMARK  Name = 
REMARK  10 active torsions:
REMARK  status: ('A' for Active; 'I' for Inactive)
REMARK    1  A    between atoms: C_1  and  N_2
REMARK    2  A    between atoms: C_3  and  C_5
REMARK    3  A    between atoms: C_5  and  N_6
REMARK    4  A    between atoms: C_5  and  C_19
REMARK    5  A    between atoms: C_14  and  C_15
REMARK    6  A    between atoms: C_15  and  C_16
REMARK    7  A    between atoms: C_16  and  C_17
REMARK    8  A    between atoms: C_16  and  C_18
REMARK    9  A    between atoms: C_19  and  C_20
REMARK   10  A    between atoms: C_19  and  C_21
REMARK                            x       y       z     vdW  Elec       q    Type
REMARK                         _______ _______ _______ _____ _____    ______ ____
ROOT
ATOM      1  N   UNL     1       5.384   6.111  17.865  0.00  0.00    +0.000 N 
ATOM      2  C   UNL     1       4.177   6.729  17.979  0.00  0.00    +0.000 C 
ATOM      3  O   UNL     1       3.911   7.706  17.285  0.00  0.00    +0.000 OA
ATOM      4  N   UNL     1       3.366   6.285  19.024  0.00  0.00    +0.000 N 
ATOM      5  C   UNL     1       2.269   7.230  19.301  0.00  0.00    +0.000 C 
ATOM      6  C   UNL     1       1.700   7.060  20.704  0.00  0.00    +0.000 C 
ATOM      7  O   UNL     1       1.224   5.726  20.878  0.00  0.00    +0.000 OA
ATOM      8  C   UNL     1       2.296   4.792  20.713  0.00  0.00    +0.000 C 
ATOM      9  C   UNL     1       2.952   4.856  19.302  0.00  0.00    +0.000 C 
ATOM     10  H   UNL     1       5.588   5.307  18.426  0.00  0.00    +0.000 HD
ENDROOT
BRANCH   1  11
ATOM     11  C   UNL     1       6.374   6.509  16.864  0.00  0.00    +0.000 C 
BRANCH  11  14
ATOM     12  C   UNL     1       5.630   3.984  14.088  0.00  0.00    +0.000 C 
ATOM     13  N   UNL     1       5.624   5.117  14.979  0.00  0.00    +0.000 N 
ATOM     14  C   UNL     1       6.579   5.267  15.967  0.00  0.00    +0.000 C 
ATOM     15  O   UNL     1       7.465   4.442  16.168  0.00  0.00    +0.000 OA
ATOM     16  H   UNL     1       4.834   5.754  14.968  0.00  0.00    +0.000 HD
ENDBRANCH  11  14
BRANCH  11  17
ATOM     17  C   UNL     1       7.695   6.940  17.540  0.00  0.00    +0.000 C 
ATOM     18  C   UNL     1       7.779   8.463  17.693  0.00  0.00    +0.000 C 
ATOM     19  C   UNL     1       7.856   6.298  18.923  0.00  0.00    +0.000 C 
ENDBRANCH  11  17
ENDBRANCH   1  11
BRANCH   9  20
ATOM     20  C   UNL     1       4.011   3.721  19.214  0.00  0.00    +0.000 C 
BRANCH  20  21
ATOM     21  C   UNL     1       3.876   2.773  17.983  0.00  0.00    +0.000 C 
ATOM     22  C   UNL     1       3.608   1.327  18.411  0.00  0.00    +0.000 C 
ATOM     23  C   UNL     1       2.760   3.248  17.045  0.00  0.00    +0.000 C 
ENDBRANCH  20  21
ENDBRANCH   9  20
TORSDOF 5
ENDMDL
MODEL 2
REMARK VINA RESULT:      -6.8      1.035      1.037
REMARK  Name = 
REMARK  10 active torsions:
REMARK  status: ('A' for Active; 'I' for Inactive)
REMARK    1  A    between atoms: C_1  and  N_2
REMARK    2  A    between atoms: C_3  and  C_5
REMARK    3  A    between atoms: C_5  and  N_6
REMARK    4  A    between atoms: C_5  and  C_19
REMARK    5  A    between atoms: C_14  and  C_15
REMARK    6  A    between atoms: C_15  and  C_16
REMARK    7  A    between atoms: C_16  and  C_17
REMARK    8  A    between atoms: C_16  and  C_18
REMARK    9  A    between atoms: C_19  and  C_20
REMARK   10  A    between atoms: C_19  and  C_21
REMARK                            x       y       z     vdW  Elec       q    Type
REMARK                         _______ _______ _______ _____ _____    ______ ____
ROOT
ATOM      1  N   UNL     1       4.894   6.051  17.697  0.00  0.00    +0.000 N 
ATOM      2  C   UNL     1       3.824   6.872  17.878  0.00  0.00    +0.000 C 
ATOM      3  O   UNL     1       3.687   7.877  17.187  0.00  0.00    +0.000 OA
ATOM      4  N   UNL     1       3.019   6.581  18.980  0.00  0.00    +0.000 N 
ATOM      5  C   UNL     1       2.125   7.705  19.313  0.00  0.00    +0.000 C 
ATOM      6  C   UNL     1       1.628   7.644  20.751  0.00  0.00    +0.000 C 
ATOM      7  O   UNL     1       0.940   6.414  20.977  0.00  0.00    +0.000 OA
ATOM      8  C   UNL     1       1.819   5.306  20.758  0.00  0.00    +0.000 C 
ATOM      9  C   UNL     1       2.381   5.248  19.307  0.00  0.00    +0.000 C 
ATOM     10  H   UNL     1       4.992   5.225  18.256  0.00  0.00    +0.000 HD
ENDROOT
BRANCH   1  11
ATOM     11  C   UNL     1       5.870   6.265  16.627  0.00  0.00    +0.000 C 
BRANCH  11  14
ATOM     12  C   UNL     1       6.484   4.069  13.555  0.00  0.00    +0.000 C 
ATOM     13  N   UNL     1       6.521   5.105  14.558  0.00  0.00    +0.000 N 
ATOM     14  C   UNL     1       5.745   5.034  15.699  0.00  0.00    +0.000 C 
ATOM     15  O   UNL     1       4.963   4.116  15.919  0.00  0.00    +0.000 OA
ATOM     16  H   UNL     1       7.028   5.963  14.367  0.00  0.00    +0.000 HD
ENDBRANCH  11  14
BRANCH  11  17
ATOM     17  C   UNL     1       7.297   6.392  17.205  0.00  0.00    +0.000 C 
ATOM     18  C   UNL     1       7.641   7.848  17.542  0.00  0.00    +0.000 C 
ATOM     19  C   UNL     1       7.472   5.541  18.469  0.00  0.00    +0.000 C 
ENDBRANCH  11  17
ENDBRANCH   1  11
BRANCH   9  20
ATOM     20  C   UNL     1       3.218   3.945  19.169  0.00  0.00    +0.000 C 
BRANCH  20  21
ATOM     21  C   UNL     1       2.616   2.860  18.222  0.00  0.00    +0.000 C 
ATOM     22  C   UNL     1       3.510   1.619  18.148  0.00  0.00    +0.000 C 
ATOM     23  C   UNL     1       1.209   2.456  18.677  0.00  0.00    +0.000 C 
ENDBRANCH  20  21
ENDBRANCH   9  20
TORSDOF 5
ENDMDL
MODEL 3
REMARK VINA RESULT:      -6.8      2.044      3.946
REMARK  Name = 
REMARK  10 active torsions:
REMARK  status: ('A' for Active; 'I' for Inactive)
REMARK    1  A    between atoms: C_1  and  N_2
REMARK    2  A    between atoms: C_3  and  C_5
REMARK    3  A    between atoms: C_5  and  N_6
REMARK    4  A    between atoms: C_5  and  C_19
REMARK    5  A    between atoms: C_14  and  C_15
REMARK    6  A    between atoms: C_15  and  C_16
REMARK    7  A    between atoms: C_16  and  C_17
REMARK    8  A    between atoms: C_16  and  C_18
REMARK    9  A    between atoms: C_19  and  C_20
REMARK   10  A    between atoms: C_19  and  C_21
REMARK                            x       y       z     vdW  Elec       q    Type
REMARK                         _______ _______ _______ _____ _____    ______ ____
ROOT
ATOM      1  N   UNL     1       4.535   4.101  17.297  0.00  0.00    +0.000 N 
ATOM      2  C   UNL     1       3.939   3.027  17.882  0.00  0.00    +0.000 C 
ATOM      3  O   UNL     1       4.302   1.887  17.604  0.00  0.00    +0.000 OA
ATOM      4  N   UNL     1       2.817   3.307  18.662  0.00  0.00    +0.000 N 
ATOM      5  C   UNL     1       2.033   2.091  18.946  0.00  0.00    +0.000 C 
ATOM      6  C   UNL     1       0.593   2.407  19.327  0.00  0.00    +0.000 C 
ATOM      7  O   UNL     1       0.568   3.259  20.472  0.00  0.00    +0.000 OA
ATOM      8  C   UNL     1       1.237   4.492  20.187  0.00  0.00    +0.000 C 
ATOM      9  C   UNL     1       2.733   4.301  19.800  0.00  0.00    +0.000 C 
ATOM     10  H   UNL     1       4.243   5.028  17.539  0.00  0.00    +0.000 HD
ENDROOT
BRANCH   1  11
ATOM     11  C   UNL     1       5.681   3.965  16.396  0.00  0.00    +0.000 C 
BRANCH  11  14
ATOM     12  C   UNL     1       7.596   5.889  19.091  0.00  0.00    +0.000 C 
ATOM     13  N   UNL     1       6.578   5.283  18.268  0.00  0.00    +0.000 N 
ATOM     14  C   UNL     1       6.902   4.471  17.198  0.00  0.00    +0.000 C 
ATOM     15  O   UNL     1       8.058   4.239  16.862  0.00  0.00    +0.000 OA
ATOM     16  H   UNL     1       5.609   5.556  18.396  0.00  0.00    +0.000 HD
ENDBRANCH  11  14
BRANCH  11  17
ATOM     17  C   UNL     1       5.467   4.794  15.110  0.00  0.00    +0.000 C 
ATOM     18  C   UNL     1       5.361   6.292  15.415  0.00  0.00    +0.000 C 
ATOM     19  C   UNL     1       6.605   4.577  14.104  0.00  0.00    +0.000 C 
ENDBRANCH  11  17
ENDBRANCH   1  11
BRANCH   9  20
ATOM     20  C   UNL     1       3.369   5.710  19.634  0.00  0.00    +0.000 C 
BRANCH  20  21
ATOM     21  C   UNL     1       2.427   6.805  19.044  0.00  0.00    +0.000 C 
ATOM     22  C   UNL     1       1.983   7.804  20.117  0.00  0.00    +0.000 C 
ATOM     23  C   UNL     1       3.109   7.553  17.893  0.00  0.00    +0.000 C 
ENDBRANCH  20  21
ENDBRANCH   9  20
TORSDOF 5
ENDMDL
MODEL 4
REMARK VINA RESULT:      -6.7      0.679      1.062
REMARK  Name = 
REMARK  10 active torsions:
REMARK  status: ('A' for Active; 'I' for Inactive)
REMARK    1  A    between atoms: C_1  and  N_2
REMARK    2  A    between atoms: C_3  and  C_5
REMARK    3  A    between atoms: C_5  and  N_6
REMARK    4  A    between atoms: C_5  and  C_19
REMARK    5  A    between atoms: C_14  and  C_15
REMARK    6  A    between atoms: C_15  and  C_16
REMARK    7  A    between atoms: C_16  and  C_17
REMARK    8  A    between atoms: C_16  and  C_18
REMARK    9  A    between atoms: C_19  and  C_20
REMARK   10  A    between atoms: C_19  and  C_21
REMARK                            x       y       z     vdW  Elec       q    Type
REMARK                         _______ _______ _______ _____ _____    ______ ____
ROOT
ATOM      1  N   UNL     1       5.536   6.093  17.846  0.00  0.00    +0.000 N 
ATOM      2  C   UNL     1       4.293   6.642  17.908  0.00  0.00    +0.000 C 
ATOM      3  O   UNL     1       3.990   7.581  17.176  0.00  0.00    +0.000 OA
ATOM      4  N   UNL     1       3.479   6.182  18.944  0.00  0.00    +0.000 N 
ATOM      5  C   UNL     1       2.322   7.068  19.162  0.00  0.00    +0.000 C 
ATOM      6  C   UNL     1       1.723   6.906  20.553  0.00  0.00    +0.000 C 
ATOM      7  O   UNL     1       1.321   5.551  20.755  0.00  0.00    +0.000 OA
ATOM      8  C   UNL     1       2.450   4.678  20.648  0.00  0.00    +0.000 C 
ATOM      9  C   UNL     1       3.141   4.740  19.255  0.00  0.00    +0.000 C 
ATOM     10  H   UNL     1       5.771   5.319  18.436  0.00  0.00    +0.000 HD
ENDROOT
BRANCH   1  11
ATOM     11  C   UNL     1       6.530   6.519  16.859  0.00  0.00    +0.000 C 
BRANCH  11  14
ATOM     12  C   UNL     1       6.023   3.930  14.089  0.00  0.00    +0.000 C 
ATOM     13  N   UNL     1       5.933   5.077  14.958  0.00  0.00    +0.000 N 
ATOM     14  C   UNL     1       6.823   5.269  15.998  0.00  0.00    +0.000 C 
ATOM     15  O   UNL     1       7.716   4.474  16.266  0.00  0.00    +0.000 OA
ATOM     16  H   UNL     1       5.127   5.691  14.888  0.00  0.00    +0.000 HD
ENDBRANCH  11  14
BRANCH  11  17
ATOM     17  C   UNL     1       7.808   7.035  17.557  0.00  0.00    +0.000 C 
ATOM     18  C   UNL     1       7.800   8.562  17.692  0.00  0.00    +0.000 C 
ATOM     19  C   UNL     1       7.977   6.419  18.951  0.00  0.00    +0.000 C 
ENDBRANCH  11  17
ENDBRANCH   1  11
BRANCH   9  20
ATOM     20  C   UNL     1       4.267   3.667  19.230  0.00  0.00    +0.000 C 
BRANCH  20  21
ATOM     21  C   UNL     1       3.831   2.229  19.653  0.00  0.00    +0.000 C 
ATOM     22  C   UNL     1       3.607   1.328  18.435  0.00  0.00    +0.000 C 
ATOM     23  C   UNL     1       4.871   1.593  20.581  0.00  0.00    +0.000 C 
ENDBRANCH  20  21
ENDBRANCH   9  20
TORSDOF 5
ENDMDL
MODEL 5
REMARK VINA RESULT:      -6.7      1.865      4.062
REMARK  Name = 
REMARK  10 active torsions:
REMARK  status: ('A' for Active; 'I' for Inactive)
REMARK    1  A    between atoms: C_1  and  N_2
REMARK    2  A    between atoms: C_3  and  C_5
REMARK    3  A    between atoms: C_5  and  N_6
REMARK    4  A    between atoms: C_5  and  C_19
REMARK    5  A    between atoms: C_14  and  C_15
REMARK    6  A    between atoms: C_15  and  C_16
REMARK    7  A    between atoms: C_16  and  C_17
REMARK    8  A    between atoms: C_16  and  C_18
REMARK    9  A    between atoms: C_19  and  C_20
REMARK   10  A    between atoms: C_19  and  C_21
REMARK                            x       y       z     vdW  Elec       q    Type
REMARK                         _______ _______ _______ _____ _____    ______ ____
ROOT
ATOM      1  N   UNL     1       4.923   4.698  17.735  0.00  0.00    +0.000 N 
ATOM      2  C   UNL     1       4.756   4.056  18.923  0.00  0.00    +0.000 C 
ATOM      3  O   UNL     1       5.715   3.542  19.492  0.00  0.00    +0.000 OA
ATOM      4  N   UNL     1       3.435   3.889  19.341  0.00  0.00    +0.000 N 
ATOM      5  C   UNL     1       3.326   2.887  20.416  0.00  0.00    +0.000 C 
ATOM      6  C   UNL     1       1.919   2.315  20.534  0.00  0.00    +0.000 C 
ATOM      7  O   UNL     1       0.985   3.367  20.776  0.00  0.00    +0.000 OA
ATOM      8  C   UNL     1       0.999   4.303  19.694  0.00  0.00    +0.000 C 
ATOM      9  C   UNL     1       2.389   4.974  19.483  0.00  0.00    +0.000 C 
ATOM     10  H   UNL     1       4.138   5.126  17.284  0.00  0.00    +0.000 HD
ENDROOT
BRANCH   1  11
ATOM     11  C   UNL     1       6.241   4.891  17.130  0.00  0.00    +0.000 C 
BRANCH  11  14
ATOM     12  C   UNL     1       7.838   8.324  17.677  0.00  0.00    +0.000 C 
ATOM     13  N   UNL     1       7.545   6.912  17.643  0.00  0.00    +0.000 N 
ATOM     14  C   UNL     1       6.421   6.421  17.006  0.00  0.00    +0.000 C 
ATOM     15  O   UNL     1       5.595   7.144  16.461  0.00  0.00    +0.000 OA
ATOM     16  H   UNL     1       8.103   6.276  18.204  0.00  0.00    +0.000 HD
ENDBRANCH  11  14
BRANCH  11  17
ATOM     17  C   UNL     1       6.316   4.201  15.749  0.00  0.00    +0.000 C 
ATOM     18  C   UNL     1       4.949   4.175  15.057  0.00  0.00    +0.000 C 
ATOM     19  C   UNL     1       7.322   4.897  14.825  0.00  0.00    +0.000 C 
ENDBRANCH  11  17
ENDBRANCH   1  11
BRANCH   9  20
ATOM     20  C   UNL     1       2.239   6.045  18.367  0.00  0.00    +0.000 C 
BRANCH  20  21
ATOM     21  C   UNL     1       2.539   7.513  18.802  0.00  0.00    +0.000 C 
ATOM     22  C   UNL     1       2.094   8.519  17.737  0.00  0.00    +0.000 C 
ATOM     23  C   UNL     1       1.857   7.839  20.136  0.00  0.00    +0.000 C 
ENDBRANCH  20  21
ENDBRANCH   9  20
TORSDOF 5
ENDMDL
MODEL 6
REMARK VINA RESULT:      -6.6      1.971      4.050
REMARK  Name = 
REMARK  10 active torsions:
REMARK  status: ('A' for Active; 'I' for Inactive)
REMARK    1  A    between atoms: C_1  and  N_2
REMARK    2  A    between atoms: C_3  and  C_5
REMARK    3  A    between atoms: C_5  and  N_6
REMARK    4  A    between atoms: C_5  and  C_19
REMARK    5  A    between atoms: C_14  and  C_15
REMARK    6  A    between atoms: C_15  and  C_16
REMARK    7  A    between atoms: C_16  and  C_17
REMARK    8  A    between atoms: C_16  and  C_18
REMARK    9  A    between atoms: C_19  and  C_20
REMARK   10  A    between atoms: C_19  and  C_21
REMARK                            x       y       z     vdW  Elec       q    Type
REMARK                         _______ _______ _______ _____ _____    ______ ____
ROOT
ATOM      1  N   UNL     1       5.111   4.766  17.688  0.00  0.00    +0.000 N 
ATOM      2  C   UNL     1       4.868   4.086  18.841  0.00  0.00    +0.000 C 
ATOM      3  O   UNL     1       5.783   3.518  19.432  0.00  0.00    +0.000 OA
ATOM      4  N   UNL     1       3.525   3.950  19.192  0.00  0.00    +0.000 N 
ATOM      5  C   UNL     1       3.333   2.913  20.222  0.00  0.00    +0.000 C 
ATOM      6  C   UNL     1       1.904   2.387  20.254  0.00  0.00    +0.000 C 
ATOM      7  O   UNL     1       0.995   3.461  20.495  0.00  0.00    +0.000 OA
ATOM      8  C   UNL     1       1.091   4.436  19.452  0.00  0.00    +0.000 C 
ATOM      9  C   UNL     1       2.510   5.065  19.330  0.00  0.00    +0.000 C 
ATOM     10  H   UNL     1       4.363   5.238  17.219  0.00  0.00    +0.000 HD
ENDROOT
BRANCH   1  11
ATOM     11  C   UNL     1       6.462   4.935  17.150  0.00  0.00    +0.000 C 
BRANCH  11  14
ATOM     12  C   UNL     1       7.860   8.454  17.694  0.00  0.00    +0.000 C 
ATOM     13  N   UNL     1       7.254   7.264  17.151  0.00  0.00    +0.000 N 
ATOM     14  C   UNL     1       7.069   6.130  17.920  0.00  0.00    +0.000 C 
ATOM     15  O   UNL     1       7.430   6.051  19.089  0.00  0.00    +0.000 OA
ATOM     16  H   UNL     1       7.073   7.209  16.153  0.00  0.00    +0.000 HD
ENDBRANCH  11  14
BRANCH  11  17
ATOM     17  C   UNL     1       6.417   5.207  15.630  0.00  0.00    +0.000 C 
ATOM     18  C   UNL     1       6.438   3.904  14.822  0.00  0.00    +0.000 C 
ATOM     19  C   UNL     1       5.169   6.009  15.238  0.00  0.00    +0.000 C 
ENDBRANCH  11  17
ENDBRANCH   1  11
BRANCH   9  20
ATOM     20  C   UNL     1       2.448   6.182  18.250  0.00  0.00    +0.000 C 
BRANCH  20  21
ATOM     21  C   UNL     1       2.537   7.643  18.792  0.00  0.00    +0.000 C 
ATOM     22  C   UNL     1       1.902   8.643  17.822  0.00  0.00    +0.000 C 
ATOM     23  C   UNL     1       1.866   7.760  20.165  0.00  0.00    +0.000 C 
ENDBRANCH  20  21
ENDBRANCH   9  20
TORSDOF 5
ENDMDL
MODEL 7
REMARK VINA RESULT:      -6.3      0.935      1.194
REMARK  Name = 
REMARK  10 active torsions:
REMARK  status: ('A' for Active; 'I' for Inactive)
REMARK    1  A    between atoms: C_1  and  N_2
REMARK    2  A    between atoms: C_3  and  C_5
REMARK    3  A    between atoms: C_5  and  N_6
REMARK    4  A    between atoms: C_5  and  C_19
REMARK    5  A    between atoms: C_14  and  C_15
REMARK    6  A    between atoms: C_15  and  C_16
REMARK    7  A    between atoms: C_16  and  C_17
REMARK    8  A    between atoms: C_16  and  C_18
REMARK    9  A    between atoms: C_19  and  C_20
REMARK   10  A    between atoms: C_19  and  C_21
REMARK                            x       y       z     vdW  Elec       q    Type
REMARK                         _______ _______ _______ _____ _____    ______ ____
ROOT
ATOM      1  N   UNL     1       4.970   5.622  17.402  0.00  0.00    +0.000 N 
ATOM      2  C   UNL     1       4.025   6.502  17.834  0.00  0.00    +0.000 C 
ATOM      3  O   UNL     1       4.101   7.691  17.537  0.00  0.00    +0.000 OA
ATOM      4  N   UNL     1       3.096   5.993  18.742  0.00  0.00    +0.000 N 
ATOM      5  C   UNL     1       2.358   7.071  19.426  0.00  0.00    +0.000 C 
ATOM      6  C   UNL     1       1.739   6.606  20.738  0.00  0.00    +0.000 C 
ATOM      7  O   UNL     1       0.856   5.511  20.498  0.00  0.00    +0.000 OA
ATOM      8  C   UNL     1       1.572   4.412  19.926  0.00  0.00    +0.000 C 
ATOM      9  C   UNL     1       2.239   4.759  18.563  0.00  0.00    +0.000 C 
ATOM     10  H   UNL     1       4.894   4.652  17.637  0.00  0.00    +0.000 HD
ENDROOT
BRANCH   1  11
ATOM     11  C   UNL     1       6.053   6.020  16.501  0.00  0.00    +0.000 C 
BRANCH  11  14
ATOM     12  C   UNL     1       6.900   4.261  13.211  0.00  0.00    +0.000 C 
ATOM     13  N   UNL     1       6.735   5.216  14.279  0.00  0.00    +0.000 N 
ATOM     14  C   UNL     1       6.215   4.849  15.505  0.00  0.00    +0.000 C 
ATOM     15  O   UNL     1       5.836   3.709  15.755  0.00  0.00    +0.000 OA
ATOM     16  H   UNL     1       6.883   6.203  14.090  0.00  0.00    +0.000 HD
ENDBRANCH  11  14
BRANCH  11  17
ATOM     17  C   UNL     1       7.357   6.272  17.291  0.00  0.00    +0.000 C 
ATOM     18  C   UNL     1       7.583   7.767  17.543  0.00  0.00    +0.000 C 
ATOM     19  C   UNL     1       7.351   5.541  18.640  0.00  0.00    +0.000 C 
ENDBRANCH  11  17
ENDBRANCH   1  11
BRANCH   9  20
ATOM     20  C   UNL     1       2.876   3.459  17.996  0.00  0.00    +0.000 C 
BRANCH  20  21
ATOM     21  C   UNL     1       3.430   2.465  19.063  0.00  0.00    +0.000 C 
ATOM     22  C   UNL     1       3.693   1.081  18.460  0.00  0.00    +0.000 C 
ATOM     23  C   UNL     1       4.717   3.004  19.698  0.00  0.00    +0.000 C 
ENDBRANCH  20  21
ENDBRANCH   9  20
TORSDOF 5
ENDMDL
MODEL 8
REMARK VINA RESULT:      -6.2      1.971      4.025
REMARK  Name = 
REMARK  10 active torsions:
REMARK  status: ('A' for Active; 'I' for Inactive)
REMARK    1  A    between atoms: C_1  and  N_2
REMARK    2  A    between atoms: C_3  and  C_5
REMARK    3  A    between atoms: C_5  and  N_6
REMARK    4  A    between atoms: C_5  and  C_19
REMARK    5  A    between atoms: C_14  and  C_15
REMARK    6  A    between atoms: C_15  and  C_16
REMARK    7  A    between atoms: C_16  and  C_17
REMARK    8  A    between atoms: C_16  and  C_18
REMARK    9  A    between atoms: C_19  and  C_20
REMARK   10  A    between atoms: C_19  and  C_21
REMARK                            x       y       z     vdW  Elec       q    Type
REMARK                         _______ _______ _______ _____ _____    ______ ____
ROOT
ATOM      1  N   UNL     1       5.060   5.021  17.868  0.00  0.00    +0.000 N 
ATOM      2  C   UNL     1       4.797   4.174  18.900  0.00  0.00    +0.000 C 
ATOM      3  O   UNL     1       5.625   3.335  19.243  0.00  0.00    +0.000 OA
ATOM      4  N   UNL     1       3.497   4.223  19.407  0.00  0.00    +0.000 N 
ATOM      5  C   UNL     1       3.196   3.049  20.246  0.00  0.00    +0.000 C 
ATOM      6  C   UNL     1       1.699   2.805  20.383  0.00  0.00    +0.000 C 
ATOM      7  O   UNL     1       1.067   3.956  20.942  0.00  0.00    +0.000 OA
ATOM      8  C   UNL     1       1.260   5.090  20.091  0.00  0.00    +0.000 C 
ATOM      9  C   UNL     1       2.760   5.454  19.887  0.00  0.00    +0.000 C 
ATOM     10  H   UNL     1       4.385   5.712  17.604  0.00  0.00    +0.000 HD
ENDROOT
BRANCH   1  11
ATOM     11  C   UNL     1       6.354   5.042  17.185  0.00  0.00    +0.000 C 
BRANCH  11  14
ATOM     12  C   UNL     1       7.815   8.545  17.665  0.00  0.00    +0.000 C 
ATOM     13  N   UNL     1       7.081   7.391  17.206  0.00  0.00    +0.000 N 
ATOM     14  C   UNL     1       7.161   6.176  17.859  0.00  0.00    +0.000 C 
ATOM     15  O   UNL     1       7.874   5.991  18.839  0.00  0.00    +0.000 OA
ATOM     16  H   UNL     1       6.595   7.434  16.316  0.00  0.00    +0.000 HD
ENDBRANCH  11  14
BRANCH  11  17
ATOM     17  C   UNL     1       6.172   5.300  15.673  0.00  0.00    +0.000 C 
ATOM     18  C   UNL     1       7.391   4.832  14.870  0.00  0.00    +0.000 C 
ATOM     19  C   UNL     1       4.923   4.596  15.127  0.00  0.00    +0.000 C 
ENDBRANCH  11  17
ENDBRANCH   1  11
BRANCH   9  20
ATOM     20  C   UNL     1       2.827   6.763  19.050  0.00  0.00    +0.000 C 
BRANCH  20  21
ATOM     21  C   UNL     1       1.654   7.766  19.280  0.00  0.00    +0.000 C 
ATOM     22  C   UNL     1       1.656   8.317  20.709  0.00  0.00    +0.000 C 
ATOM     23  C   UNL     1       1.721   8.925  18.280  0.00  0.00    +0.000 C 
ENDBRANCH  20  21
ENDBRANCH   9  20
TORSDOF 5
ENDMDL
MODEL 9
REMARK VINA RESULT:      -6.2      1.655      2.583
REMARK  Name = 
REMARK  10 active torsions:
REMARK  status: ('A' for Active; 'I' for Inactive)
REMARK    1  A    between atoms: C_1  and  N_2
REMARK    2  A    between atoms: C_3  and  C_5
REMARK    3  A    between atoms: C_5  and  N_6
REMARK    4  A    between atoms: C_5  and  C_19
REMARK    5  A    between atoms: C_14  and  C_15
REMARK    6  A    between atoms: C_15  and  C_16
REMARK    7  A    between atoms: C_16  and  C_17
REMARK    8  A    between atoms: C_16  and  C_18
REMARK    9  A    between atoms: C_19  and  C_20
REMARK   10  A    between atoms: C_19  and  C_21
REMARK                            x       y       z     vdW  Elec       q    Type
REMARK                         _______ _______ _______ _____ _____    ______ ____
ROOT
ATOM      1  N   UNL     1       4.420   6.203  18.177  0.00  0.00    +0.000 N 
ATOM      2  C   UNL     1       3.447   7.100  17.861  0.00  0.00    +0.000 C 
ATOM      3  O   UNL     1       3.408   7.609  16.744  0.00  0.00    +0.000 OA
ATOM      4  N   UNL     1       2.631   7.505  18.919  0.00  0.00    +0.000 N 
ATOM      5  C   UNL     1       1.868   8.720  18.583  0.00  0.00    +0.000 C 
ATOM      6  C   UNL     1       1.388   9.463  19.823  0.00  0.00    +0.000 C 
ATOM      7  O   UNL     1       0.575   8.604  20.622  0.00  0.00    +0.000 OA
ATOM      8  C   UNL     1       1.326   7.463  21.045  0.00  0.00    +0.000 C 
ATOM      9  C   UNL     1       1.859   6.605  19.860  0.00  0.00    +0.000 C 
ATOM     10  H   UNL     1       4.436   5.782  19.085  0.00  0.00    +0.000 HD
ENDROOT
BRANCH   1  11
ATOM     11  C   UNL     1       5.397   5.733  17.194  0.00  0.00    +0.000 C 
BRANCH  11  14
ATOM     12  C   UNL     1       3.728   2.335  17.746  0.00  0.00    +0.000 C 
ATOM     13  N   UNL     1       4.137   3.716  17.822  0.00  0.00    +0.000 N 
ATOM     14  C   UNL     1       5.030   4.257  16.916  0.00  0.00    +0.000 C 
ATOM     15  O   UNL     1       5.550   3.602  16.020  0.00  0.00    +0.000 OA
ATOM     16  H   UNL     1       3.866   4.271  18.627  0.00  0.00    +0.000 HD
ENDBRANCH  11  14
BRANCH  11  17
ATOM     17  C   UNL     1       6.835   5.862  17.746  0.00  0.00    +0.000 C 
ATOM     18  C   UNL     1       7.409   7.262  17.502  0.00  0.00    +0.000 C 
ATOM     19  C   UNL     1       6.890   5.563  19.250  0.00  0.00    +0.000 C 
ENDBRANCH  11  17
ENDBRANCH   1  11
BRANCH   9  20
ATOM     20  C   UNL     1       2.548   5.344  20.452  0.00  0.00    +0.000 C 
BRANCH  20  21
ATOM     21  C   UNL     1       1.586   4.190  20.873  0.00  0.00    +0.000 C 
ATOM     22  C   UNL     1       0.837   3.613  19.668  0.00  0.00    +0.000 C 
ATOM     23  C   UNL     1       2.352   3.071  21.588  0.00  0.00    +0.000 C 
ENDBRANCH  20  21
ENDBRANCH   9  20
TORSDOF 5
ENDMDL
