MODEL 1
REMARK VINA RESULT:      -7.2      0.000      0.000
REMARK  Name = 
REMARK  5 active torsions:
REMARK  status: ('A' for Active; 'I' for Inactive)
REMARK    1  A    between atoms: C_1  and  O_2
REMARK    2  A    between atoms: O_2  and  C_3
REMARK    3  A    between atoms: C_7  and  N_8
REMARK    4  A    between atoms: C_9  and  C_11
REMARK    5  A    between atoms: C_16  and  C_17
REMARK                            x       y       z     vdW  Elec       q    Type
REMARK                         _______ _______ _______ _____ _____    ______ ____
ROOT
ATOM      1  N   UNL     1       2.424   6.586  19.515  0.00  0.00    +0.000 N 
ATOM      2  C   UNL     1       2.079   7.857  19.087  0.00  0.00    +0.000 C 
ATOM      3  O   UNL     1       2.298   8.314  17.966  0.00  0.00    +0.000 OA
ATOM      4  H   UNL     1       2.050   6.245  20.389  0.00  0.00    +0.000 HD
ENDROOT
BRANCH   2   5
ATOM      5  C   UNL     1       1.401   8.763  20.059  0.00  0.00    +0.000 A 
ATOM      6  C   UNL     1       1.244   8.255  21.357  0.00  0.00    +0.000 A 
ATOM      7  C   UNL     1       0.625   9.000  22.359  0.00  0.00    +0.000 A 
ATOM      8  C   UNL     1       0.152  10.289  22.066  0.00  0.00    +0.000 A 
ATOM      9  N   UNL     1      -0.485  11.122  22.963  0.00  0.00    +0.000 NA
ATOM     10  C   UNL     1      -0.799  12.256  22.379  0.00  0.00    +0.000 A 
ATOM     11  C   UNL     1      -1.513  13.364  23.068  0.00  0.00    +0.000 C 
ATOM     12  S   UNL     1      -0.336  12.394  20.731  0.00  0.00    +0.000 S 
ATOM     13  C   UNL     1       0.325  10.797  20.776  0.00  0.00    +0.000 A 
ATOM     14  C   UNL     1       0.951  10.055  19.749  0.00  0.00    +0.000 A 
ENDBRANCH   2   5
BRANCH   1  19
ATOM     15  C   UNL     1       5.467   4.745  18.432  0.00  0.00    +0.000 A 
ATOM     16  C   UNL     1       4.955   3.936  17.415  0.00  0.00    +0.000 A 
ATOM     17  C   UNL     1       3.610   4.009  17.071  0.00  0.00    +0.000 A 
ATOM     18  C   UNL     1       2.766   4.882  17.757  0.00  0.00    +0.000 A 
ATOM     19  C   UNL     1       3.253   5.688  18.792  0.00  0.00    +0.000 A 
ATOM     20  C   UNL     1       4.619   5.631  19.108  0.00  0.00    +0.000 A 
BRANCH  15  22
ATOM     21  C   UNL     1       7.504   5.639  19.278  0.00  0.00    +0.000 C 
ATOM     22  O   UNL     1       6.806   4.571  18.657  0.00  0.00    +0.000 OA
ENDBRANCH  15  22
ENDBRANCH   1  19
TORSDOF 3
ENDMDL
MODEL 2
REMARK VINA RESULT:      -7.1      1.957      2.390
REMARK  Name = 
REMARK  5 active torsions:
REMARK  status: ('A' for Active; 'I' for Inactive)
REMARK    1  A    between atoms: C_1  and  O_2
REMARK    2  A    between atoms: O_2  and  C_3
REMARK    3  A    between atoms: C_7  and  N_8
REMARK    4  A    between atoms: C_9  and  C_11
REMARK    5  A    between atoms: C_16  and  C_17
REMARK                            x       y       z     vdW  Elec       q    Type
REMARK                         _______ _______ _______ _____ _____    ______ ____
ROOT
ATOM      1  N   UNL     1       3.216   7.160  18.176  0.00  0.00    +0.000 N 
ATOM      2  C   UNL     1       2.549   6.994  19.379  0.00  0.00    +0.000 C 
ATOM      3  O   UNL     1       2.578   5.980  20.075  0.00  0.00    +0.000 OA
ATOM      4  H   UNL     1       3.270   8.082  17.769  0.00  0.00    +0.000 HD
ENDROOT
BRANCH   2   5
ATOM      5  C   UNL     1       1.709   8.123  19.874  0.00  0.00    +0.000 A 
ATOM      6  C   UNL     1       1.425   9.127  18.937  0.00  0.00    +0.000 A 
ATOM      7  C   UNL     1       0.651  10.237  19.272  0.00  0.00    +0.000 A 
ATOM      8  C   UNL     1       0.142  10.352  20.575  0.00  0.00    +0.000 A 
ATOM      9  N   UNL     1      -0.627  11.403  21.036  0.00  0.00    +0.000 NA
ATOM     10  C   UNL     1      -0.945  11.209  22.295  0.00  0.00    +0.000 A 
ATOM     11  C   UNL     1      -1.753  12.168  23.094  0.00  0.00    +0.000 C 
ATOM     12  S   UNL     1      -0.357   9.753  22.993  0.00  0.00    +0.000 S 
ATOM     13  C   UNL     1       0.413   9.342  21.501  0.00  0.00    +0.000 A 
ATOM     14  C   UNL     1       1.195   8.210  21.177  0.00  0.00    +0.000 A 
ENDBRANCH   2   5
BRANCH   1  19
ATOM     15  C   UNL     1       5.689   5.443  15.994  0.00  0.00    +0.000 A 
ATOM     16  C   UNL     1       5.239   4.122  16.051  0.00  0.00    +0.000 A 
ATOM     17  C   UNL     1       4.109   3.797  16.792  0.00  0.00    +0.000 A 
ATOM     18  C   UNL     1       3.433   4.793  17.496  0.00  0.00    +0.000 A 
ATOM     19  C   UNL     1       3.876   6.120  17.470  0.00  0.00    +0.000 A 
ATOM     20  C   UNL     1       4.998   6.443  16.691  0.00  0.00    +0.000 A 
BRANCH  15  22
ATOM     21  C   UNL     1       6.966   4.751  14.109  0.00  0.00    +0.000 C 
ATOM     22  O   UNL     1       6.806   5.616  15.222  0.00  0.00    +0.000 OA
ENDBRANCH  15  22
ENDBRANCH   1  19
TORSDOF 3
ENDMDL
MODEL 3
REMARK VINA RESULT:      -7.1      1.266      1.378
REMARK  Name = 
REMARK  5 active torsions:
REMARK  status: ('A' for Active; 'I' for Inactive)
REMARK    1  A    between atoms: C_1  and  O_2
REMARK    2  A    between atoms: O_2  and  C_3
REMARK    3  A    between atoms: C_7  and  N_8
REMARK    4  A    between atoms: C_9  and  C_11
REMARK    5  A    between atoms: C_16  and  C_17
REMARK                            x       y       z     vdW  Elec       q    Type
REMARK                         _______ _______ _______ _____ _____    ______ ____
ROOT
ATOM      1  N   UNL     1       2.459   6.726  18.848  0.00  0.00    +0.000 N 
ATOM      2  C   UNL     1       2.097   8.028  18.541  0.00  0.00    +0.000 C 
ATOM      3  O   UNL     1       2.265   8.574  17.451  0.00  0.00    +0.000 OA
ATOM      4  H   UNL     1       2.125   6.316  19.709  0.00  0.00    +0.000 HD
ENDROOT
BRANCH   2   5
ATOM      5  C   UNL     1       1.470   8.852  19.614  0.00  0.00    +0.000 A 
ATOM      6  C   UNL     1       1.429   8.264  20.887  0.00  0.00    +0.000 A 
ATOM      7  C   UNL     1       0.868   8.928  21.977  0.00  0.00    +0.000 A 
ATOM      8  C   UNL     1       0.336  10.215  21.798  0.00  0.00    +0.000 A 
ATOM      9  N   UNL     1      -0.256  10.973  22.790  0.00  0.00    +0.000 NA
ATOM     10  C   UNL     1      -0.647  12.127  22.301  0.00  0.00    +0.000 A 
ATOM     11  C   UNL     1      -1.338  13.167  23.108  0.00  0.00    +0.000 C 
ATOM     12  S   UNL     1      -0.317  12.376  20.634  0.00  0.00    +0.000 S 
ATOM     13  C   UNL     1       0.393  10.803  20.533  0.00  0.00    +0.000 A 
ATOM     14  C   UNL     1       0.959  10.144  19.418  0.00  0.00    +0.000 A 
ENDBRANCH   2   5
BRANCH   1  19
ATOM     15  C   UNL     1       5.213   5.633  16.602  0.00  0.00    +0.000 A 
ATOM     16  C   UNL     1       4.866   4.302  16.365  0.00  0.00    +0.000 A 
ATOM     17  C   UNL     1       3.714   3.766  16.929  0.00  0.00    +0.000 A 
ATOM     18  C   UNL     1       2.911   4.559  17.749  0.00  0.00    +0.000 A 
ATOM     19  C   UNL     1       3.249   5.890  18.016  0.00  0.00    +0.000 A 
ATOM     20  C   UNL     1       4.396   6.431  17.415  0.00  0.00    +0.000 A 
BRANCH  15  22
ATOM     21  C   UNL     1       6.961   5.106  15.077  0.00  0.00    +0.000 C 
ATOM     22  O   UNL     1       6.367   6.025  15.979  0.00  0.00    +0.000 OA
ENDBRANCH  15  22
ENDBRANCH   1  19
TORSDOF 3
ENDMDL
MODEL 4
REMARK VINA RESULT:      -7.0      2.390      3.312
REMARK  Name = 
REMARK  5 active torsions:
REMARK  status: ('A' for Active; 'I' for Inactive)
REMARK    1  A    between atoms: C_1  and  O_2
REMARK    2  A    between atoms: O_2  and  C_3
REMARK    3  A    between atoms: C_7  and  N_8
REMARK    4  A    between atoms: C_9  and  C_11
REMARK    5  A    between atoms: C_16  and  C_17
REMARK                            x       y       z     vdW  Elec       q    Type
REMARK                         _______ _______ _______ _____ _____    ______ ____
ROOT
ATOM      1  N   UNL     1       4.518   6.916  17.961  0.00  0.00    +0.000 N 
ATOM      2  C   UNL     1       3.208   6.586  18.266  0.00  0.00    +0.000 C 
ATOM      3  O   UNL     1       2.702   5.473  18.123  0.00  0.00    +0.000 OA
ATOM      4  H   UNL     1       4.885   7.803  18.274  0.00  0.00    +0.000 HD
ENDROOT
BRANCH   2   5
ATOM      5  C   UNL     1       2.320   7.662  18.794  0.00  0.00    +0.000 A 
ATOM      6  C   UNL     1       1.875   8.601  17.852  0.00  0.00    +0.000 A 
ATOM      7  C   UNL     1       1.041   9.657  18.215  0.00  0.00    +0.000 A 
ATOM      8  C   UNL     1       0.635   9.783  19.553  0.00  0.00    +0.000 A 
ATOM      9  N   UNL     1      -0.178  10.787  20.044  0.00  0.00    +0.000 NA
ATOM     10  C   UNL     1      -0.372  10.619  21.332  0.00  0.00    +0.000 A 
ATOM     11  C   UNL     1      -1.188  11.541  22.165  0.00  0.00    +0.000 C 
ATOM     12  S   UNL     1       0.393   9.246  22.024  0.00  0.00    +0.000 S 
ATOM     13  C   UNL     1       1.067   8.838  20.485  0.00  0.00    +0.000 A 
ATOM     14  C   UNL     1       1.911   7.760  20.133  0.00  0.00    +0.000 A 
ENDBRANCH   2   5
BRANCH   1  19
ATOM     15  C   UNL     1       6.172   5.155  15.135  0.00  0.00    +0.000 A 
ATOM     16  C   UNL     1       7.167   4.436  15.800  0.00  0.00    +0.000 A 
ATOM     17  C   UNL     1       7.283   4.514  17.183  0.00  0.00    +0.000 A 
ATOM     18  C   UNL     1       6.412   5.328  17.906  0.00  0.00    +0.000 A 
ATOM     19  C   UNL     1       5.420   6.073  17.259  0.00  0.00    +0.000 A 
ATOM     20  C   UNL     1       5.289   5.961  15.866  0.00  0.00    +0.000 A 
BRANCH  15  22
ATOM     21  C   UNL     1       6.140   3.643  13.298  0.00  0.00    +0.000 C 
ATOM     22  O   UNL     1       6.173   4.977  13.778  0.00  0.00    +0.000 OA
ENDBRANCH  15  22
ENDBRANCH   1  19
TORSDOF 3
ENDMDL
MODEL 5
REMARK VINA RESULT:      -6.9      1.471      1.810
REMARK  Name = 
REMARK  5 active torsions:
REMARK  status: ('A' for Active; 'I' for Inactive)
REMARK    1  A    between atoms: C_1  and  O_2
REMARK    2  A    between atoms: O_2  and  C_3
REMARK    3  A    between atoms: C_7  and  N_8
REMARK    4  A    between atoms: C_9  and  C_11
REMARK    5  A    between atoms: C_16  and  C_17
REMARK                            x       y       z     vdW  Elec       q    Type
REMARK                         _______ _______ _______ _____ _____    ______ ____
ROOT
ATOM      1  N   UNL     1       2.766   7.055  18.610  0.00  0.00    +0.000 N 
ATOM      2  C   UNL     1       2.145   7.073  19.847  0.00  0.00    +0.000 C 
ATOM      3  O   UNL     1       2.148   6.147  20.658  0.00  0.00    +0.000 OA
ATOM      4  H   UNL     1       2.853   7.919  18.093  0.00  0.00    +0.000 HD
ENDROOT
BRANCH   2   5
ATOM      5  C   UNL     1       1.391   8.300  20.235  0.00  0.00    +0.000 A 
ATOM      6  C   UNL     1       1.283   9.286  19.243  0.00  0.00    +0.000 A 
ATOM      7  C   UNL     1       0.605  10.482  19.478  0.00  0.00    +0.000 A 
ATOM      8  C   UNL     1       0.015  10.703  20.732  0.00  0.00    +0.000 A 
ATOM      9  N   UNL     1      -0.672  11.845  21.094  0.00  0.00    +0.000 NA
ATOM     10  C   UNL     1      -1.101  11.739  22.331  0.00  0.00    +0.000 A 
ATOM     11  C   UNL     1      -1.863  12.808  23.029  0.00  0.00    +0.000 C 
ATOM     12  S   UNL     1      -0.720  10.263  23.123  0.00  0.00    +0.000 S 
ATOM     13  C   UNL     1       0.112   9.712  21.712  0.00  0.00    +0.000 A 
ATOM     14  C   UNL     1       0.794   8.494  21.490  0.00  0.00    +0.000 A 
ENDBRANCH   2   5
BRANCH   1  19
ATOM     15  C   UNL     1       5.292   4.813  17.054  0.00  0.00    +0.000 A 
ATOM     16  C   UNL     1       4.535   3.663  16.822  0.00  0.00    +0.000 A 
ATOM     17  C   UNL     1       3.187   3.629  17.159  0.00  0.00    +0.000 A 
ATOM     18  C   UNL     1       2.593   4.745  17.748  0.00  0.00    +0.000 A 
ATOM     19  C   UNL     1       3.335   5.902  18.008  0.00  0.00    +0.000 A 
ATOM     20  C   UNL     1       4.687   5.937  17.633  0.00  0.00    +0.000 A 
BRANCH  15  22
ATOM     21  C   UNL     1       7.578   4.642  17.693  0.00  0.00    +0.000 C 
ATOM     22  O   UNL     1       6.600   4.705  16.667  0.00  0.00    +0.000 OA
ENDBRANCH  15  22
ENDBRANCH   1  19
TORSDOF 3
ENDMDL
MODEL 6
REMARK VINA RESULT:      -6.9      1.366      1.883
REMARK  Name = 
REMARK  5 active torsions:
REMARK  status: ('A' for Active; 'I' for Inactive)
REMARK    1  A    between atoms: C_1  and  O_2
REMARK    2  A    between atoms: O_2  and  C_3
REMARK    3  A    between atoms: C_7  and  N_8
REMARK    4  A    between atoms: C_9  and  C_11
REMARK    5  A    between atoms: C_16  and  C_17
REMARK                            x       y       z     vdW  Elec       q    Type
REMARK                         _______ _______ _______ _____ _____    ______ ____
ROOT
ATOM      1  N   UNL     1       2.452   7.140  19.098  0.00  0.00    +0.000 N 
ATOM      2  C   UNL     1       1.846   8.334  18.745  0.00  0.00    +0.000 C 
ATOM      3  O   UNL     1       1.794   8.795  17.605  0.00  0.00    +0.000 OA
ATOM      4  H   UNL     1       2.293   6.765  20.023  0.00  0.00    +0.000 HD
ENDROOT
BRANCH   2   5
ATOM      5  C   UNL     1       1.217   9.147  19.826  0.00  0.00    +0.000 A 
ATOM      6  C   UNL     1       1.219   8.567  21.103  0.00  0.00    +0.000 A 
ATOM      7  C   UNL     1       0.662   9.222  22.199  0.00  0.00    +0.000 A 
ATOM      8  C   UNL     1       0.088  10.491  22.024  0.00  0.00    +0.000 A 
ATOM      9  N   UNL     1      -0.505  11.238  23.023  0.00  0.00    +0.000 NA
ATOM     10  C   UNL     1      -0.941  12.377  22.535  0.00  0.00    +0.000 A 
ATOM     11  C   UNL     1      -1.645  13.402  23.349  0.00  0.00    +0.000 C 
ATOM     12  S   UNL     1      -0.652  12.623  20.860  0.00  0.00    +0.000 S 
ATOM     13  C   UNL     1       0.101  11.072  20.754  0.00  0.00    +0.000 A 
ATOM     14  C   UNL     1       0.664  10.422  19.632  0.00  0.00    +0.000 A 
ENDBRANCH   2   5
BRANCH   1  19
ATOM     15  C   UNL     1       3.960   4.163  17.459  0.00  0.00    +0.000 A 
ATOM     16  C   UNL     1       4.848   4.760  16.562  0.00  0.00    +0.000 A 
ATOM     17  C   UNL     1       4.967   6.144  16.509  0.00  0.00    +0.000 A 
ATOM     18  C   UNL     1       4.181   6.939  17.344  0.00  0.00    +0.000 A 
ATOM     19  C   UNL     1       3.271   6.364  18.236  0.00  0.00    +0.000 A 
ATOM     20  C   UNL     1       3.184   4.965  18.306  0.00  0.00    +0.000 A 
BRANCH  15  22
ATOM     21  C   UNL     1       2.764   2.135  17.809  0.00  0.00    +0.000 C 
ATOM     22  O   UNL     1       3.954   2.795  17.406  0.00  0.00    +0.000 OA
ENDBRANCH  15  22
ENDBRANCH   1  19
TORSDOF 3
ENDMDL
MODEL 7
REMARK VINA RESULT:      -6.9      1.079      1.568
REMARK  Name = 
REMARK  5 active torsions:
REMARK  status: ('A' for Active; 'I' for Inactive)
REMARK    1  A    between atoms: C_1  and  O_2
REMARK    2  A    between atoms: O_2  and  C_3
REMARK    3  A    between atoms: C_7  and  N_8
REMARK    4  A    between atoms: C_9  and  C_11
REMARK    5  A    between atoms: C_16  and  C_17
REMARK                            x       y       z     vdW  Elec       q    Type
REMARK                         _______ _______ _______ _____ _____    ______ ____
ROOT
ATOM      1  N   UNL     1       2.251   6.638  19.046  0.00  0.00    +0.000 N 
ATOM      2  C   UNL     1       2.217   7.929  18.546  0.00  0.00    +0.000 C 
ATOM      3  O   UNL     1       2.827   8.324  17.553  0.00  0.00    +0.000 OA
ATOM      4  H   UNL     1       1.585   6.370  19.757  0.00  0.00    +0.000 HD
ENDROOT
BRANCH   2   5
ATOM      5  C   UNL     1       1.391   8.939  19.270  0.00  0.00    +0.000 A 
ATOM      6  C   UNL     1       0.978  10.044  18.511  0.00  0.00    +0.000 A 
ATOM      7  C   UNL     1       0.203  11.060  19.069  0.00  0.00    +0.000 A 
ATOM      8  C   UNL     1      -0.176  10.974  20.417  0.00  0.00    +0.000 A 
ATOM      9  N   UNL     1      -0.931  11.915  21.090  0.00  0.00    +0.000 NA
ATOM     10  C   UNL     1      -1.113  11.539  22.335  0.00  0.00    +0.000 A 
ATOM     11  C   UNL     1      -1.871  12.342  23.331  0.00  0.00    +0.000 C 
ATOM     12  S   UNL     1      -0.406  10.034  22.765  0.00  0.00    +0.000 S 
ATOM     13  C   UNL     1       0.223   9.864  21.165  0.00  0.00    +0.000 A 
ATOM     14  C   UNL     1       1.008   8.825  20.615  0.00  0.00    +0.000 A 
ENDBRANCH   2   5
BRANCH   1  19
ATOM     15  C   UNL     1       5.369   4.645  18.688  0.00  0.00    +0.000 A 
ATOM     16  C   UNL     1       4.965   3.656  17.790  0.00  0.00    +0.000 A 
ATOM     17  C   UNL     1       3.669   3.653  17.285  0.00  0.00    +0.000 A 
ATOM     18  C   UNL     1       2.766   4.635  17.692  0.00  0.00    +0.000 A 
ATOM     19  C   UNL     1       3.143   5.625  18.606  0.00  0.00    +0.000 A 
ATOM     20  C   UNL     1       4.463   5.638  19.083  0.00  0.00    +0.000 A 
BRANCH  15  22
ATOM     21  C   UNL     1       7.422   5.722  19.228  0.00  0.00    +0.000 C 
ATOM     22  O   UNL     1       6.670   4.526  19.096  0.00  0.00    +0.000 OA
ENDBRANCH  15  22
ENDBRANCH   1  19
TORSDOF 3
ENDMDL
MODEL 8
REMARK VINA RESULT:      -6.8      5.739      7.646
REMARK  Name = 
REMARK  5 active torsions:
REMARK  status: ('A' for Active; 'I' for Inactive)
REMARK    1  A    between atoms: C_1  and  O_2
REMARK    2  A    between atoms: O_2  and  C_3
REMARK    3  A    between atoms: C_7  and  N_8
REMARK    4  A    between atoms: C_9  and  C_11
REMARK    5  A    between atoms: C_16  and  C_17
REMARK                            x       y       z     vdW  Elec       q    Type
REMARK                         _______ _______ _______ _____ _____    ______ ____
ROOT
ATOM      1  N   UNL     1       7.164   7.936  17.120  0.00  0.00    +0.000 N 
ATOM      2  C   UNL     1       8.077   8.167  18.135  0.00  0.00    +0.000 C 
ATOM      3  O   UNL     1       8.538   7.309  18.886  0.00  0.00    +0.000 OA
ATOM      4  H   UNL     1       6.979   8.669  16.450  0.00  0.00    +0.000 HD
ENDROOT
BRANCH   2   5
ATOM      5  C   UNL     1       8.533   9.570  18.360  0.00  0.00    +0.000 A 
ATOM      6  C   UNL     1       8.018  10.526  17.472  0.00  0.00    +0.000 A 
ATOM      7  C   UNL     1       8.367  11.872  17.573  0.00  0.00    +0.000 A 
ATOM      8  C   UNL     1       9.249  12.281  18.585  0.00  0.00    +0.000 A 
ATOM      9  N   UNL     1       9.680  13.578  18.785  0.00  0.00    +0.000 NA
ATOM     10  C   UNL     1      10.496  13.627  19.813  0.00  0.00    +0.000 A 
ATOM     11  C   UNL     1      11.150  14.877  20.281  0.00  0.00    +0.000 C 
ATOM     12  S   UNL     1      10.780  12.130  20.606  0.00  0.00    +0.000 S 
ATOM     13  C   UNL     1       9.747  11.328  19.476  0.00  0.00    +0.000 A 
ATOM     14  C   UNL     1       9.403   9.960  19.389  0.00  0.00    +0.000 A 
ENDBRANCH   2   5
BRANCH   1  19
ATOM     15  C   UNL     1       4.434   5.412  17.170  0.00  0.00    +0.000 A 
ATOM     16  C   UNL     1       5.050   4.325  16.545  0.00  0.00    +0.000 A 
ATOM     17  C   UNL     1       6.371   4.414  16.123  0.00  0.00    +0.000 A 
ATOM     18  C   UNL     1       7.079   5.602  16.310  0.00  0.00    +0.000 A 
ATOM     19  C   UNL     1       6.477   6.710  16.916  0.00  0.00    +0.000 A 
ATOM     20  C   UNL     1       5.154   6.598  17.369  0.00  0.00    +0.000 A 
BRANCH  15  22
ATOM     21  C   UNL     1       2.891   4.885  18.904  0.00  0.00    +0.000 C 
ATOM     22  O   UNL     1       3.137   5.179  17.537  0.00  0.00    +0.000 OA
ENDBRANCH  15  22
ENDBRANCH   1  19
TORSDOF 3
ENDMDL
MODEL 9
REMARK VINA RESULT:      -6.8      3.392      8.175
REMARK  Name = 
REMARK  5 active torsions:
REMARK  status: ('A' for Active; 'I' for Inactive)
REMARK    1  A    between atoms: C_1  and  O_2
REMARK    2  A    between atoms: O_2  and  C_3
REMARK    3  A    between atoms: C_7  and  N_8
REMARK    4  A    between atoms: C_9  and  C_11
REMARK    5  A    between atoms: C_16  and  C_17
REMARK                            x       y       z     vdW  Elec       q    Type
REMARK                         _______ _______ _______ _____ _____    ______ ____
ROOT
ATOM      1  N   UNL     1       0.831   9.262  19.193  0.00  0.00    +0.000 N 
ATOM      2  C   UNL     1       1.850   8.962  18.305  0.00  0.00    +0.000 C 
ATOM      3  O   UNL     1       2.233   9.689  17.389  0.00  0.00    +0.000 OA
ATOM      4  H   UNL     1       0.706   8.682  20.011  0.00  0.00    +0.000 HD
ENDROOT
BRANCH   2   5
ATOM      5  C   UNL     1       2.535   7.644  18.445  0.00  0.00    +0.000 A 
ATOM      6  C   UNL     1       3.568   7.395  17.530  0.00  0.00    +0.000 A 
ATOM      7  C   UNL     1       4.288   6.201  17.553  0.00  0.00    +0.000 A 
ATOM      8  C   UNL     1       3.974   5.228  18.514  0.00  0.00    +0.000 A 
ATOM      9  N   UNL     1       4.601   4.003  18.637  0.00  0.00    +0.000 NA
ATOM     10  C   UNL     1       4.078   3.327  19.633  0.00  0.00    +0.000 A 
ATOM     11  C   UNL     1       4.519   1.960  20.018  0.00  0.00    +0.000 C 
ATOM     12  S   UNL     1       2.819   4.124  20.489  0.00  0.00    +0.000 S 
ATOM     13  C   UNL     1       2.955   5.486  19.434  0.00  0.00    +0.000 A 
ATOM     14  C   UNL     1       2.217   6.692  19.426  0.00  0.00    +0.000 A 
ENDBRANCH   2   5
BRANCH   1  19
ATOM     15  C   UNL     1      -1.964  11.372  17.942  0.00  0.00    +0.000 A 
ATOM     16  C   UNL     1      -1.842  12.503  18.753  0.00  0.00    +0.000 A 
ATOM     17  C   UNL     1      -0.828  12.581  19.700  0.00  0.00    +0.000 A 
ATOM     18  C   UNL     1       0.061  11.517  19.852  0.00  0.00    +0.000 A 
ATOM     19  C   UNL     1      -0.053  10.366  19.064  0.00  0.00    +0.000 A 
ATOM     20  C   UNL     1      -1.059  10.312  18.088  0.00  0.00    +0.000 A 
BRANCH  15  22
ATOM     21  C   UNL     1      -2.800  10.850  15.776  0.00  0.00    +0.000 C 
ATOM     22  O   UNL     1      -3.002  11.437  17.052  0.00  0.00    +0.000 OA
ENDBRANCH  15  22
ENDBRANCH   1  19
TORSDOF 3
ENDMDL
