MODEL 1
REMARK VINA RESULT:      -8.2      0.000      0.000
REMARK  Name = 
REMARK  11 active torsions:
REMARK  status: ('A' for Active; 'I' for Inactive)
REMARK    1  A    between atoms: C_1  and  C_2
REMARK    2  A    between atoms: C_5  and  C_6
REMARK    3  A    between atoms: C_6  and  N_7
REMARK    4  A    between atoms: C_8  and  C_10
REMARK    5  A    between atoms: C_10  and  N_11
REMARK    6  A    between atoms: C_12  and  C_14
REMARK    7  A    between atoms: C_24  and  O_26
REMARK    8  A    between atoms: O_26  and  C_27
REMARK    9  A    between atoms: C_27  and  C_28
REMARK   10  A    between atoms: C_27  and  C_29
REMARK   11  A    between atoms: C_27  and  C_30
REMARK                            x       y       z     vdW  Elec       q    Type
REMARK                         _______ _______ _______ _____ _____    ______ ____
ROOT
ATOM      1  N   UNL     1       6.455   5.289  19.439  0.00  0.00    +0.000 N 
ATOM      2  C   UNL     1       5.530   4.753  18.530  0.00  0.00    +0.000 C 
ATOM      3  O   UNL     1       5.932   4.184  17.513  0.00  0.00    +0.000 OA
ATOM      4  H   UNL     1       6.066   5.802  20.220  0.00  0.00    +0.000 HD
ENDROOT
BRANCH   2   5
ATOM      5  C   UNL     1       4.036   5.296  18.649  0.00  0.00    +0.000 C 
ATOM      6  C   UNL     1       3.451   5.172  20.115  0.00  0.00    +0.000 C 
ATOM      7  C   UNL     1       2.282   4.156  19.953  0.00  0.00    +0.000 A 
ATOM      8  C   UNL     1       2.486   2.903  20.530  0.00  0.00    +0.000 A 
ATOM      9  C   UNL     1       2.460   1.803  19.683  0.00  0.00    +0.000 A 
ATOM     10  C   UNL     1       2.070   1.951  18.348  0.00  0.00    +0.000 A 
ATOM     11  C   UNL     1       1.554   3.167  17.883  0.00  0.00    +0.000 A 
ATOM     12  C   UNL     1       1.611   4.298  18.705  0.00  0.00    +0.000 A 
ATOM     13  C   UNL     1       1.633   5.697  18.094  0.00  0.00    +0.000 C 
ATOM     14  N   UNL     1       3.042   6.115  17.868  0.00  0.00    +0.000 N 
ATOM     15  C   UNL     1       3.283   7.458  17.601  0.00  0.00    +0.000 C 
ATOM     16  O   UNL     1       4.413   7.935  17.592  0.00  0.00    +0.000 OA
BRANCH  15  17
ATOM     17  O   UNL     1       2.136   8.168  17.361  0.00  0.00    +0.000 OA
BRANCH  17  18
ATOM     18  C   UNL     1       1.617   9.208  18.256  0.00  0.00    +0.000 C 
ATOM     19  C   UNL     1       2.346  10.535  18.015  0.00  0.00    +0.000 C 
ATOM     20  C   UNL     1       0.133   9.404  17.883  0.00  0.00    +0.000 C 
ATOM     21  C   UNL     1       1.668   8.808  19.737  0.00  0.00    +0.000 C 
ENDBRANCH  17  18
ENDBRANCH  15  17
ENDBRANCH   2   5
BRANCH   1  22
ATOM     22  C   UNL     1       7.762   5.804  18.956  0.00  0.00    +0.000 C 
BRANCH  22  24
ATOM     23  N   UNL     1       8.178   8.207  18.541  0.00  0.00    +0.000 N 
ATOM     24  C   UNL     1       7.819   7.002  17.988  0.00  0.00    +0.000 C 
ATOM     25  O   UNL     1       7.653   6.853  16.776  0.00  0.00    +0.000 OA
ATOM     26  H   UNL     1       8.451   8.216  19.517  0.00  0.00    +0.000 HD
BRANCH  23  27
ATOM     27  C   UNL     1       8.339   9.416  17.756  0.00  0.00    +0.000 C 
BRANCH  27  32
ATOM     28  C   UNL     1      11.746  13.460  20.252  0.00  0.00    +0.000 C 
ATOM     29  C   UNL     1      10.872  12.428  19.603  0.00  0.00    +0.000 A 
ATOM     30  C   UNL     1      10.812  12.302  18.211  0.00  0.00    +0.000 A 
ATOM     31  C   UNL     1      10.014  11.307  17.619  0.00  0.00    +0.000 A 
ATOM     32  C   UNL     1       9.246  10.437  18.404  0.00  0.00    +0.000 A 
ATOM     33  C   UNL     1       9.312  10.567  19.800  0.00  0.00    +0.000 A 
ATOM     34  C   UNL     1      10.122  11.545  20.390  0.00  0.00    +0.000 A 
ENDBRANCH  27  32
ENDBRANCH  23  27
ENDBRANCH  22  24
ENDBRANCH   1  22
TORSDOF 7
ENDMDL
MODEL 2
REMARK VINA RESULT:      -8.1      3.641      6.350
REMARK  Name = 
REMARK  11 active torsions:
REMARK  status: ('A' for Active; 'I' for Inactive)
REMARK    1  A    between atoms: C_1  and  C_2
REMARK    2  A    between atoms: C_5  and  C_6
REMARK    3  A    between atoms: C_6  and  N_7
REMARK    4  A    between atoms: C_8  and  C_10
REMARK    5  A    between atoms: C_10  and  N_11
REMARK    6  A    between atoms: C_12  and  C_14
REMARK    7  A    between atoms: C_24  and  O_26
REMARK    8  A    between atoms: O_26  and  C_27
REMARK    9  A    between atoms: C_27  and  C_28
REMARK   10  A    between atoms: C_27  and  C_29
REMARK   11  A    between atoms: C_27  and  C_30
REMARK                            x       y       z     vdW  Elec       q    Type
REMARK                         _______ _______ _______ _____ _____    ______ ____
ROOT
ATOM      1  N   UNL     1       1.889   6.817  20.888  0.00  0.00    +0.000 N 
ATOM      2  C   UNL     1       2.387   7.107  19.608  0.00  0.00    +0.000 C 
ATOM      3  O   UNL     1       2.170   8.211  19.104  0.00  0.00    +0.000 OA
ATOM      4  H   UNL     1       2.042   5.873  21.221  0.00  0.00    +0.000 HD
ENDROOT
BRANCH   2   5
ATOM      5  C   UNL     1       2.814   5.852  18.722  0.00  0.00    +0.000 C 
ATOM      6  C   UNL     1       1.573   5.034  18.175  0.00  0.00    +0.000 C 
ATOM      7  C   UNL     1       1.715   3.651  18.875  0.00  0.00    +0.000 A 
ATOM      8  C   UNL     1       0.761   3.367  19.853  0.00  0.00    +0.000 A 
ATOM      9  C   UNL     1       1.222   3.139  21.142  0.00  0.00    +0.000 A 
ATOM     10  C   UNL     1       2.594   3.028  21.390  0.00  0.00    +0.000 A 
ATOM     11  C   UNL     1       3.513   2.990  20.333  0.00  0.00    +0.000 A 
ATOM     12  C   UNL     1       3.076   3.261  19.032  0.00  0.00    +0.000 A 
ATOM     13  C   UNL     1       4.047   3.807  17.989  0.00  0.00    +0.000 C 
ATOM     14  N   UNL     1       4.025   5.293  18.024  0.00  0.00    +0.000 N 
ATOM     15  C   UNL     1       4.608   5.974  16.960  0.00  0.00    +0.000 C 
ATOM     16  O   UNL     1       4.474   7.182  16.799  0.00  0.00    +0.000 OA
BRANCH  15  17
ATOM     17  O   UNL     1       5.328   5.152  16.132  0.00  0.00    +0.000 OA
BRANCH  17  18
ATOM     18  C   UNL     1       6.793   5.162  16.045  0.00  0.00    +0.000 C 
ATOM     19  C   UNL     1       7.250   4.765  14.637  0.00  0.00    +0.000 C 
ATOM     20  C   UNL     1       7.235   6.618  16.299  0.00  0.00    +0.000 C 
ATOM     21  C   UNL     1       7.465   4.287  17.114  0.00  0.00    +0.000 C 
ENDBRANCH  17  18
ENDBRANCH  15  17
ENDBRANCH   2   5
BRANCH   1  22
ATOM     22  C   UNL     1       0.622   7.436  21.353  0.00  0.00    +0.000 C 
BRANCH  22  24
ATOM     23  N   UNL     1      -0.069   9.739  20.771  0.00  0.00    +0.000 N 
ATOM     24  C   UNL     1       0.567   8.940  21.689  0.00  0.00    +0.000 C 
ATOM     25  O   UNL     1       0.978   9.369  22.769  0.00  0.00    +0.000 OA
ATOM     26  H   UNL     1      -0.518   9.289  19.983  0.00  0.00    +0.000 HD
BRANCH  23  27
ATOM     27  C   UNL     1      -0.261  11.163  20.969  0.00  0.00    +0.000 C 
BRANCH  27  32
ATOM     28  C   UNL     1       3.799  14.385  18.262  0.00  0.00    +0.000 C 
ATOM     29  C   UNL     1       2.760  13.563  18.965  0.00  0.00    +0.000 A 
ATOM     30  C   UNL     1       2.263  13.941  20.218  0.00  0.00    +0.000 A 
ATOM     31  C   UNL     1       1.265  13.177  20.848  0.00  0.00    +0.000 A 
ATOM     32  C   UNL     1       0.763  12.014  20.251  0.00  0.00    +0.000 A 
ATOM     33  C   UNL     1       1.263  11.641  18.995  0.00  0.00    +0.000 A 
ATOM     34  C   UNL     1       2.244  12.412  18.358  0.00  0.00    +0.000 A 
ENDBRANCH  27  32
ENDBRANCH  23  27
ENDBRANCH  22  24
ENDBRANCH   1  22
TORSDOF 7
ENDMDL
MODEL 3
REMARK VINA RESULT:      -8.1      0.683      1.021
REMARK  Name = 
REMARK  11 active torsions:
REMARK  status: ('A' for Active; 'I' for Inactive)
REMARK    1  A    between atoms: C_1  and  C_2
REMARK    2  A    between atoms: C_5  and  C_6
REMARK    3  A    between atoms: C_6  and  N_7
REMARK    4  A    between atoms: C_8  and  C_10
REMARK    5  A    between atoms: C_10  and  N_11
REMARK    6  A    between atoms: C_12  and  C_14
REMARK    7  A    between atoms: C_24  and  O_26
REMARK    8  A    between atoms: O_26  and  C_27
REMARK    9  A    between atoms: C_27  and  C_28
REMARK   10  A    between atoms: C_27  and  C_29
REMARK   11  A    between atoms: C_27  and  C_30
REMARK                            x       y       z     vdW  Elec       q    Type
REMARK                         _______ _______ _______ _____ _____    ______ ____
ROOT
ATOM      1  N   UNL     1       6.187   5.769  19.445  0.00  0.00    +0.000 N 
ATOM      2  C   UNL     1       5.205   4.791  19.221  0.00  0.00    +0.000 C 
ATOM      3  O   UNL     1       5.534   3.682  18.796  0.00  0.00    +0.000 OA
ATOM      4  H   UNL     1       5.850   6.680  19.731  0.00  0.00    +0.000 HD
ENDROOT
BRANCH   2   5
ATOM      5  C   UNL     1       3.704   5.318  19.110  0.00  0.00    +0.000 C 
ATOM      6  C   UNL     1       2.920   5.236  20.483  0.00  0.00    +0.000 C 
ATOM      7  C   UNL     1       1.794   4.200  20.196  0.00  0.00    +0.000 A 
ATOM      8  C   UNL     1       1.927   2.969  20.840  0.00  0.00    +0.000 A 
ATOM      9  C   UNL     1       2.030   1.841  20.038  0.00  0.00    +0.000 A 
ATOM     10  C   UNL     1       1.830   1.938  18.657  0.00  0.00    +0.000 A 
ATOM     11  C   UNL     1       1.373   3.131  18.081  0.00  0.00    +0.000 A 
ATOM     12  C   UNL     1       1.304   4.290  18.862  0.00  0.00    +0.000 A 
ATOM     13  C   UNL     1       1.400   5.667  18.210  0.00  0.00    +0.000 C 
ATOM     14  N   UNL     1       2.823   6.096  18.169  0.00  0.00    +0.000 N 
ATOM     15  C   UNL     1       3.088   7.432  17.891  0.00  0.00    +0.000 C 
ATOM     16  O   UNL     1       4.203   7.924  18.023  0.00  0.00    +0.000 OA
BRANCH  15  17
ATOM     17  O   UNL     1       1.979   8.118  17.467  0.00  0.00    +0.000 OA
BRANCH  17  18
ATOM     18  C   UNL     1       1.411   9.270  18.177  0.00  0.00    +0.000 C 
ATOM     19  C   UNL     1      -0.053   9.478  17.777  0.00  0.00    +0.000 C 
ATOM     20  C   UNL     1       1.452   8.919  19.679  0.00  0.00    +0.000 C 
ATOM     21  C   UNL     1       2.227  10.556  17.985  0.00  0.00    +0.000 C 
ENDBRANCH  17  18
ENDBRANCH  15  17
ENDBRANCH   2   5
BRANCH   1  22
ATOM     22  C   UNL     1       7.413   5.800  18.608  0.00  0.00    +0.000 C 
BRANCH  22  24
ATOM     23  N   UNL     1       8.021   8.174  18.267  0.00  0.00    +0.000 N 
ATOM     24  C   UNL     1       7.681   6.988  17.663  0.00  0.00    +0.000 C 
ATOM     25  O   UNL     1       7.690   6.842  16.439  0.00  0.00    +0.000 OA
ATOM     26  H   UNL     1       8.145   8.174  19.272  0.00  0.00    +0.000 HD
BRANCH  23  27
ATOM     27  C   UNL     1       8.366   9.367  17.517  0.00  0.00    +0.000 C 
BRANCH  27  32
ATOM     28  C   UNL     1      10.343  13.706  20.901  0.00  0.00    +0.000 C 
ATOM     29  C   UNL     1       9.831  12.600  20.028  0.00  0.00    +0.000 A 
ATOM     30  C   UNL     1       9.353  12.858  18.738  0.00  0.00    +0.000 A 
ATOM     31  C   UNL     1       8.907  11.805  17.920  0.00  0.00    +0.000 A 
ATOM     32  C   UNL     1       8.910  10.483  18.381  0.00  0.00    +0.000 A 
ATOM     33  C   UNL     1       9.393  10.230  19.674  0.00  0.00    +0.000 A 
ATOM     34  C   UNL     1       9.854  11.276  20.483  0.00  0.00    +0.000 A 
ENDBRANCH  27  32
ENDBRANCH  23  27
ENDBRANCH  22  24
ENDBRANCH   1  22
TORSDOF 7
ENDMDL
MODEL 4
REMARK VINA RESULT:      -8.1      3.659      6.389
REMARK  Name = 
REMARK  11 active torsions:
REMARK  status: ('A' for Active; 'I' for Inactive)
REMARK    1  A    between atoms: C_1  and  C_2
REMARK    2  A    between atoms: C_5  and  C_6
REMARK    3  A    between atoms: C_6  and  N_7
REMARK    4  A    between atoms: C_8  and  C_10
REMARK    5  A    between atoms: C_10  and  N_11
REMARK    6  A    between atoms: C_12  and  C_14
REMARK    7  A    between atoms: C_24  and  O_26
REMARK    8  A    between atoms: O_26  and  C_27
REMARK    9  A    between atoms: C_27  and  C_28
REMARK   10  A    between atoms: C_27  and  C_29
REMARK   11  A    between atoms: C_27  and  C_30
REMARK                            x       y       z     vdW  Elec       q    Type
REMARK                         _______ _______ _______ _____ _____    ______ ____
ROOT
ATOM      1  N   UNL     1       1.935   6.896  20.873  0.00  0.00    +0.000 N 
ATOM      2  C   UNL     1       2.368   7.162  19.566  0.00  0.00    +0.000 C 
ATOM      3  O   UNL     1       2.093   8.241  19.038  0.00  0.00    +0.000 OA
ATOM      4  H   UNL     1       2.133   5.968  21.228  0.00  0.00    +0.000 HD
ENDROOT
BRANCH   2   5
ATOM      5  C   UNL     1       2.800   5.894  18.699  0.00  0.00    +0.000 C 
ATOM      6  C   UNL     1       1.562   5.067  18.160  0.00  0.00    +0.000 C 
ATOM      7  C   UNL     1       1.703   3.694  18.881  0.00  0.00    +0.000 A 
ATOM      8  C   UNL     1       0.745   3.424  19.859  0.00  0.00    +0.000 A 
ATOM      9  C   UNL     1       1.202   3.216  21.154  0.00  0.00    +0.000 A 
ATOM     10  C   UNL     1       2.573   3.110  21.409  0.00  0.00    +0.000 A 
ATOM     11  C   UNL     1       3.496   3.057  20.356  0.00  0.00    +0.000 A 
ATOM     12  C   UNL     1       3.064   3.308  19.049  0.00  0.00    +0.000 A 
ATOM     13  C   UNL     1       4.039   3.840  18.002  0.00  0.00    +0.000 C 
ATOM     14  N   UNL     1       4.015   5.326  18.015  0.00  0.00    +0.000 N 
ATOM     15  C   UNL     1       4.602   5.992  16.944  0.00  0.00    +0.000 C 
ATOM     16  O   UNL     1       4.467   7.197  16.764  0.00  0.00    +0.000 OA
BRANCH  15  17
ATOM     17  O   UNL     1       5.326   5.158  16.131  0.00  0.00    +0.000 OA
BRANCH  17  18
ATOM     18  C   UNL     1       6.779   5.255  15.951  0.00  0.00    +0.000 C 
ATOM     19  C   UNL     1       7.278   6.646  16.353  0.00  0.00    +0.000 C 
ATOM     20  C   UNL     1       7.407   4.225  16.914  0.00  0.00    +0.000 C 
ATOM     21  C   UNL     1       7.234   4.889  14.531  0.00  0.00    +0.000 C 
ENDBRANCH  17  18
ENDBRANCH  15  17
ENDBRANCH   2   5
BRANCH   1  22
ATOM     22  C   UNL     1       0.668   7.487  21.374  0.00  0.00    +0.000 C 
BRANCH  22  24
ATOM     23  N   UNL     1      -0.019   9.803  20.840  0.00  0.00    +0.000 N 
ATOM     24  C   UNL     1       0.600   8.981  21.749  0.00  0.00    +0.000 C 
ATOM     25  O   UNL     1       0.987   9.382  22.849  0.00  0.00    +0.000 OA
ATOM     26  H   UNL     1      -0.450   9.373  20.031  0.00  0.00    +0.000 HD
BRANCH  23  27
ATOM     27  C   UNL     1      -0.220  11.221  21.073  0.00  0.00    +0.000 C 
BRANCH  27  32
ATOM     28  C   UNL     1       3.488  14.659  18.137  0.00  0.00    +0.000 C 
ATOM     29  C   UNL     1       2.535  13.772  18.882  0.00  0.00    +0.000 A 
ATOM     30  C   UNL     1       2.186  12.509  18.390  0.00  0.00    +0.000 A 
ATOM     31  C   UNL     1       1.318  11.676  19.117  0.00  0.00    +0.000 A 
ATOM     32  C   UNL     1       0.765  12.097  20.333  0.00  0.00    +0.000 A 
ATOM     33  C   UNL     1       1.120  13.363  20.822  0.00  0.00    +0.000 A 
ATOM     34  C   UNL     1       2.001  14.186  20.108  0.00  0.00    +0.000 A 
ENDBRANCH  27  32
ENDBRANCH  23  27
ENDBRANCH  22  24
ENDBRANCH   1  22
TORSDOF 7
ENDMDL
MODEL 5
REMARK VINA RESULT:      -8.1      0.611      1.267
REMARK  Name = 
REMARK  11 active torsions:
REMARK  status: ('A' for Active; 'I' for Inactive)
REMARK    1  A    between atoms: C_1  and  C_2
REMARK    2  A    between atoms: C_5  and  C_6
REMARK    3  A    between atoms: C_6  and  N_7
REMARK    4  A    between atoms: C_8  and  C_10
REMARK    5  A    between atoms: C_10  and  N_11
REMARK    6  A    between atoms: C_12  and  C_14
REMARK    7  A    between atoms: C_24  and  O_26
REMARK    8  A    between atoms: O_26  and  C_27
REMARK    9  A    between atoms: C_27  and  C_28
REMARK   10  A    between atoms: C_27  and  C_29
REMARK   11  A    between atoms: C_27  and  C_30
REMARK                            x       y       z     vdW  Elec       q    Type
REMARK                         _______ _______ _______ _____ _____    ______ ____
ROOT
ATOM      1  N   UNL     1       6.215   5.801  19.403  0.00  0.00    +0.000 N 
ATOM      2  C   UNL     1       5.243   4.810  19.199  0.00  0.00    +0.000 C 
ATOM      3  O   UNL     1       5.583   3.692  18.806  0.00  0.00    +0.000 OA
ATOM      4  H   UNL     1       5.869   6.717  19.662  0.00  0.00    +0.000 HD
ENDROOT
BRANCH   2   5
ATOM      5  C   UNL     1       3.739   5.321  19.064  0.00  0.00    +0.000 C 
ATOM      6  C   UNL     1       2.919   5.185  20.412  0.00  0.00    +0.000 C 
ATOM      7  C   UNL     1       1.815   4.144  20.060  0.00  0.00    +0.000 A 
ATOM      8  C   UNL     1       1.947   2.895  20.669  0.00  0.00    +0.000 A 
ATOM      9  C   UNL     1       2.086   1.795  19.833  0.00  0.00    +0.000 A 
ATOM     10  C   UNL     1       1.922   1.934  18.452  0.00  0.00    +0.000 A 
ATOM     11  C   UNL     1       1.466   3.139  17.901  0.00  0.00    +0.000 A 
ATOM     12  C   UNL     1       1.360   4.271  18.717  0.00  0.00    +0.000 A 
ATOM     13  C   UNL     1       1.455   5.669  18.113  0.00  0.00    +0.000 C 
ATOM     14  N   UNL     1       2.872   6.118  18.125  0.00  0.00    +0.000 N 
ATOM     15  C   UNL     1       3.127   7.466  17.897  0.00  0.00    +0.000 C 
ATOM     16  O   UNL     1       4.231   7.967  18.075  0.00  0.00    +0.000 OA
BRANCH  15  17
ATOM     17  O   UNL     1       2.020   8.151  17.465  0.00  0.00    +0.000 OA
BRANCH  17  18
ATOM     18  C   UNL     1       1.391   9.241  18.217  0.00  0.00    +0.000 C 
ATOM     19  C   UNL     1       1.439   8.954  19.721  0.00  0.00    +0.000 C 
ATOM     20  C   UNL     1       2.236  10.503  17.944  0.00  0.00    +0.000 C 
ATOM     21  C   UNL     1      -0.042   9.543  17.755  0.00  0.00    +0.000 C 
ENDBRANCH  17  18
ENDBRANCH  15  17
ENDBRANCH   2   5
BRANCH   1  22
ATOM     22  C   UNL     1       7.446   5.820  18.574  0.00  0.00    +0.000 C 
BRANCH  22  24
ATOM     23  N   UNL     1       7.980   8.212  18.236  0.00  0.00    +0.000 N 
ATOM     24  C   UNL     1       7.732   7.005  17.630  0.00  0.00    +0.000 C 
ATOM     25  O   UNL     1       7.834   6.842  16.412  0.00  0.00    +0.000 OA
ATOM     26  H   UNL     1       8.031   8.231  19.247  0.00  0.00    +0.000 HD
BRANCH  23  27
ATOM     27  C   UNL     1       8.328   9.408  17.492  0.00  0.00    +0.000 C 
BRANCH  27  32
ATOM     28  C   UNL     1      10.569  13.659  20.824  0.00  0.00    +0.000 C 
ATOM     29  C   UNL     1       9.998  12.562  19.975  0.00  0.00    +0.000 A 
ATOM     30  C   UNL     1       9.790  11.279  20.494  0.00  0.00    +0.000 A 
ATOM     31  C   UNL     1       9.222  10.271  19.696  0.00  0.00    +0.000 A 
ATOM     32  C   UNL     1       8.874  10.518  18.361  0.00  0.00    +0.000 A 
ATOM     33  C   UNL     1       9.083  11.807  17.847  0.00  0.00    +0.000 A 
ATOM     34  C   UNL     1       9.631  12.817  18.648  0.00  0.00    +0.000 A 
ENDBRANCH  27  32
ENDBRANCH  23  27
ENDBRANCH  22  24
ENDBRANCH   1  22
TORSDOF 7
ENDMDL
MODEL 6
REMARK VINA RESULT:      -8.0      3.684      8.124
REMARK  Name = 
REMARK  11 active torsions:
REMARK  status: ('A' for Active; 'I' for Inactive)
REMARK    1  A    between atoms: C_1  and  C_2
REMARK    2  A    between atoms: C_5  and  C_6
REMARK    3  A    between atoms: C_6  and  N_7
REMARK    4  A    between atoms: C_8  and  C_10
REMARK    5  A    between atoms: C_10  and  N_11
REMARK    6  A    between atoms: C_12  and  C_14
REMARK    7  A    between atoms: C_24  and  O_26
REMARK    8  A    between atoms: O_26  and  C_27
REMARK    9  A    between atoms: C_27  and  C_28
REMARK   10  A    between atoms: C_27  and  C_29
REMARK   11  A    between atoms: C_27  and  C_30
REMARK                            x       y       z     vdW  Elec       q    Type
REMARK                         _______ _______ _______ _____ _____    ______ ____
ROOT
ATOM      1  N   UNL     1       1.603   6.831  20.938  0.00  0.00    +0.000 N 
ATOM      2  C   UNL     1       2.290   7.134  19.753  0.00  0.00    +0.000 C 
ATOM      3  O   UNL     1       2.211   8.267  19.273  0.00  0.00    +0.000 OA
ATOM      4  H   UNL     1       1.652   5.868  21.247  0.00  0.00    +0.000 HD
ENDROOT
BRANCH   2   5
ATOM      5  C   UNL     1       2.760   5.887  18.877  0.00  0.00    +0.000 C 
ATOM      6  C   UNL     1       1.547   5.062  18.280  0.00  0.00    +0.000 C 
ATOM      7  C   UNL     1       1.674   3.676  18.979  0.00  0.00    +0.000 A 
ATOM      8  C   UNL     1       0.685   3.381  19.918  0.00  0.00    +0.000 A 
ATOM      9  C   UNL     1       1.099   3.150  21.223  0.00  0.00    +0.000 A 
ATOM     10  C   UNL     1       2.461   3.048  21.523  0.00  0.00    +0.000 A 
ATOM     11  C   UNL     1       3.420   3.022  20.501  0.00  0.00    +0.000 A 
ATOM     12  C   UNL     1       3.031   3.296  19.185  0.00  0.00    +0.000 A 
ATOM     13  C   UNL     1       4.037   3.855  18.183  0.00  0.00    +0.000 C 
ATOM     14  N   UNL     1       4.002   5.340  18.223  0.00  0.00    +0.000 N 
ATOM     15  C   UNL     1       4.619   6.031  17.186  0.00  0.00    +0.000 C 
ATOM     16  O   UNL     1       4.482   7.238  17.025  0.00  0.00    +0.000 OA
BRANCH  15  17
ATOM     17  O   UNL     1       5.377   5.218  16.383  0.00  0.00    +0.000 OA
BRANCH  17  18
ATOM     18  C   UNL     1       6.838   5.306  16.279  0.00  0.00    +0.000 C 
ATOM     19  C   UNL     1       7.505   4.358  17.280  0.00  0.00    +0.000 C 
ATOM     20  C   UNL     1       7.203   4.835  14.856  0.00  0.00    +0.000 C 
ATOM     21  C   UNL     1       7.366   6.740  16.435  0.00  0.00    +0.000 C 
ENDBRANCH  17  18
ENDBRANCH  15  17
ENDBRANCH   2   5
BRANCH   1  22
ATOM     22  C   UNL     1       0.323   7.514  21.254  0.00  0.00    +0.000 C 
BRANCH  22  24
ATOM     23  N   UNL     1       0.265   9.974  20.995  0.00  0.00    +0.000 N 
ATOM     24  C   UNL     1       0.325   8.924  21.878  0.00  0.00    +0.000 C 
ATOM     25  O   UNL     1       0.276   9.082  23.100  0.00  0.00    +0.000 OA
ATOM     26  H   UNL     1       0.150   9.758  20.012  0.00  0.00    +0.000 HD
BRANCH  23  27
ATOM     27  C   UNL     1       0.195  11.358  21.424  0.00  0.00    +0.000 C 
BRANCH  27  32
ATOM     28  C   UNL     1      -5.322  13.159  22.136  0.00  0.00    +0.000 C 
ATOM     29  C   UNL     1      -3.909  12.695  21.944  0.00  0.00    +0.000 A 
ATOM     30  C   UNL     1      -3.320  12.675  20.674  0.00  0.00    +0.000 A 
ATOM     31  C   UNL     1      -1.984  12.269  20.516  0.00  0.00    +0.000 A 
ATOM     32  C   UNL     1      -1.220  11.856  21.615  0.00  0.00    +0.000 A 
ATOM     33  C   UNL     1      -1.815  11.881  22.885  0.00  0.00    +0.000 A 
ATOM     34  C   UNL     1      -3.141  12.303  23.047  0.00  0.00    +0.000 A 
ENDBRANCH  27  32
ENDBRANCH  23  27
ENDBRANCH  22  24
ENDBRANCH   1  22
TORSDOF 7
ENDMDL
MODEL 7
REMARK VINA RESULT:      -8.0      4.232      8.082
REMARK  Name = 
REMARK  11 active torsions:
REMARK  status: ('A' for Active; 'I' for Inactive)
REMARK    1  A    between atoms: C_1  and  C_2
REMARK    2  A    between atoms: C_5  and  C_6
REMARK    3  A    between atoms: C_6  and  N_7
REMARK    4  A    between atoms: C_8  and  C_10
REMARK    5  A    between atoms: C_10  and  N_11
REMARK    6  A    between atoms: C_12  and  C_14
REMARK    7  A    between atoms: C_24  and  O_26
REMARK    8  A    between atoms: O_26  and  C_27
REMARK    9  A    between atoms: C_27  and  C_28
REMARK   10  A    between atoms: C_27  and  C_29
REMARK   11  A    between atoms: C_27  and  C_30
REMARK                            x       y       z     vdW  Elec       q    Type
REMARK                         _______ _______ _______ _____ _____    ______ ____
ROOT
ATOM      1  N   UNL     1       2.064   6.876  20.870  0.00  0.00    +0.000 N 
ATOM      2  C   UNL     1       2.524   7.076  19.560  0.00  0.00    +0.000 C 
ATOM      3  O   UNL     1       2.142   8.060  18.922  0.00  0.00    +0.000 OA
ATOM      4  H   UNL     1       2.358   6.018  21.320  0.00  0.00    +0.000 HD
ENDROOT
BRANCH   2   5
ATOM      5  C   UNL     1       3.150   5.801  18.835  0.00  0.00    +0.000 C 
ATOM      6  C   UNL     1       2.084   4.984  17.997  0.00  0.00    +0.000 C 
ATOM      7  C   UNL     1       2.021   3.613  18.733  0.00  0.00    +0.000 A 
ATOM      8  C   UNL     1       0.841   3.356  19.432  0.00  0.00    +0.000 A 
ATOM      9  C   UNL     1       0.948   3.148  20.800  0.00  0.00    +0.000 A 
ATOM     10  C   UNL     1       2.206   3.030  21.399  0.00  0.00    +0.000 A 
ATOM     11  C   UNL     1       3.368   2.964  20.619  0.00  0.00    +0.000 A 
ATOM     12  C   UNL     1       3.289   3.214  19.245  0.00  0.00    +0.000 A 
ATOM     13  C   UNL     1       4.505   3.732  18.483  0.00  0.00    +0.000 C 
ATOM     14  N   UNL     1       4.495   5.219  18.487  0.00  0.00    +0.000 N 
ATOM     15  C   UNL     1       5.343   5.874  17.602  0.00  0.00    +0.000 C 
ATOM     16  O   UNL     1       5.272   7.080  17.391  0.00  0.00    +0.000 OA
BRANCH  15  17
ATOM     17  O   UNL     1       6.244   5.031  17.003  0.00  0.00    +0.000 OA
BRANCH  17  18
ATOM     18  C   UNL     1       6.292   4.781  15.559  0.00  0.00    +0.000 C 
ATOM     19  C   UNL     1       5.918   3.326  15.253  0.00  0.00    +0.000 C 
ATOM     20  C   UNL     1       5.222   5.693  14.923  0.00  0.00    +0.000 C 
ATOM     21  C   UNL     1       7.642   5.151  14.929  0.00  0.00    +0.000 C 
ENDBRANCH  17  18
ENDBRANCH  15  17
ENDBRANCH   2   5
BRANCH   1  22
ATOM     22  C   UNL     1       0.711   7.344  21.265  0.00  0.00    +0.000 C 
BRANCH  22  24
ATOM     23  N   UNL     1       0.077   9.494  20.217  0.00  0.00    +0.000 N 
ATOM     24  C   UNL     1       0.411   8.852  21.384  0.00  0.00    +0.000 C 
ATOM     25  O   UNL     1       0.374   9.411  22.482  0.00  0.00    +0.000 OA
ATOM     26  H   UNL     1      -0.022   8.931  19.380  0.00  0.00    +0.000 HD
BRANCH  23  27
ATOM     27  C   UNL     1      -0.295  10.895  20.169  0.00  0.00    +0.000 C 
BRANCH  27  32
ATOM     28  C   UNL     1      -5.211  11.799  17.136  0.00  0.00    +0.000 C 
ATOM     29  C   UNL     1      -3.948  11.559  17.909  0.00  0.00    +0.000 A 
ATOM     30  C   UNL     1      -2.982  10.654  17.455  0.00  0.00    +0.000 A 
ATOM     31  C   UNL     1      -1.789  10.465  18.174  0.00  0.00    +0.000 A 
ATOM     32  C   UNL     1      -1.550  11.157  19.369  0.00  0.00    +0.000 A 
ATOM     33  C   UNL     1      -2.522  12.064  19.818  0.00  0.00    +0.000 A 
ATOM     34  C   UNL     1      -3.702  12.267  19.092  0.00  0.00    +0.000 A 
ENDBRANCH  27  32
ENDBRANCH  23  27
ENDBRANCH  22  24
ENDBRANCH   1  22
TORSDOF 7
ENDMDL
MODEL 8
REMARK VINA RESULT:      -7.9      3.455      8.321
REMARK  Name = 
REMARK  11 active torsions:
REMARK  status: ('A' for Active; 'I' for Inactive)
REMARK    1  A    between atoms: C_1  and  C_2
REMARK    2  A    between atoms: C_5  and  C_6
REMARK    3  A    between atoms: C_6  and  N_7
REMARK    4  A    between atoms: C_8  and  C_10
REMARK    5  A    between atoms: C_10  and  N_11
REMARK    6  A    between atoms: C_12  and  C_14
REMARK    7  A    between atoms: C_24  and  O_26
REMARK    8  A    between atoms: O_26  and  C_27
REMARK    9  A    between atoms: C_27  and  C_28
REMARK   10  A    between atoms: C_27  and  C_29
REMARK   11  A    between atoms: C_27  and  C_30
REMARK                            x       y       z     vdW  Elec       q    Type
REMARK                         _______ _______ _______ _____ _____    ______ ____
ROOT
ATOM      1  N   UNL     1       1.702   7.991  18.569  0.00  0.00    +0.000 N 
ATOM      2  C   UNL     1       1.845   6.821  19.331  0.00  0.00    +0.000 C 
ATOM      3  O   UNL     1       1.729   6.872  20.557  0.00  0.00    +0.000 OA
ATOM      4  H   UNL     1       1.874   7.899  17.575  0.00  0.00    +0.000 HD
ENDROOT
BRANCH   2   5
ATOM      5  C   UNL     1       2.577   5.602  18.610  0.00  0.00    +0.000 C 
ATOM      6  C   UNL     1       1.564   4.568  17.968  0.00  0.00    +0.000 C 
ATOM      7  C   UNL     1       1.808   3.266  18.787  0.00  0.00    +0.000 A 
ATOM      8  C   UNL     1       0.776   2.891  19.648  0.00  0.00    +0.000 A 
ATOM      9  C   UNL     1       1.075   2.812  21.001  0.00  0.00    +0.000 A 
ATOM     10  C   UNL     1       2.398   2.934  21.438  0.00  0.00    +0.000 A 
ATOM     11  C   UNL     1       3.455   2.982  20.520  0.00  0.00    +0.000 A 
ATOM     12  C   UNL     1       3.175   3.106  19.155  0.00  0.00    +0.000 A 
ATOM     13  C   UNL     1       4.194   3.739  18.212  0.00  0.00    +0.000 C 
ATOM     14  N   UNL     1       3.947   5.203  18.126  0.00  0.00    +0.000 N 
ATOM     15  C   UNL     1       4.569   5.906  17.101  0.00  0.00    +0.000 C 
ATOM     16  O   UNL     1       4.281   7.066  16.829  0.00  0.00    +0.000 OA
BRANCH  15  17
ATOM     17  O   UNL     1       5.515   5.163  16.444  0.00  0.00    +0.000 OA
BRANCH  17  18
ATOM     18  C   UNL     1       6.957   5.420  16.527  0.00  0.00    +0.000 C 
ATOM     19  C   UNL     1       7.617   4.464  17.526  0.00  0.00    +0.000 C 
ATOM     20  C   UNL     1       7.534   5.122  15.127  0.00  0.00    +0.000 C 
ATOM     21  C   UNL     1       7.289   6.883  16.856  0.00  0.00    +0.000 C 
ENDBRANCH  17  18
ENDBRANCH  15  17
ENDBRANCH   2   5
BRANCH   1  22
ATOM     22  C   UNL     1       2.090   9.305  19.141  0.00  0.00    +0.000 C 
BRANCH  22  24
ATOM     23  N   UNL     1       0.081  10.727  18.894  0.00  0.00    +0.000 N 
ATOM     24  C   UNL     1       1.425  10.602  18.639  0.00  0.00    +0.000 C 
ATOM     25  O   UNL     1       2.091  11.509  18.135  0.00  0.00    +0.000 OA
ATOM     26  H   UNL     1      -0.363  10.007  19.451  0.00  0.00    +0.000 HD
BRANCH  23  27
ATOM     27  C   UNL     1      -0.678  11.912  18.543  0.00  0.00    +0.000 C 
BRANCH  27  32
ATOM     28  C   UNL     1      -6.457  11.095  18.185  0.00  0.00    +0.000 C 
ATOM     29  C   UNL     1      -4.976  11.312  18.282  0.00  0.00    +0.000 A 
ATOM     30  C   UNL     1      -4.426  12.103  19.297  0.00  0.00    +0.000 A 
ATOM     31  C   UNL     1      -3.033  12.270  19.395  0.00  0.00    +0.000 A 
ATOM     32  C   UNL     1      -2.169  11.671  18.469  0.00  0.00    +0.000 A 
ATOM     33  C   UNL     1      -2.726  10.878  17.455  0.00  0.00    +0.000 A 
ATOM     34  C   UNL     1      -4.112  10.696  17.368  0.00  0.00    +0.000 A 
ENDBRANCH  27  32
ENDBRANCH  23  27
ENDBRANCH  22  24
ENDBRANCH   1  22
TORSDOF 7
ENDMDL
MODEL 9
REMARK VINA RESULT:      -7.9      3.580      8.271
REMARK  Name = 
REMARK  11 active torsions:
REMARK  status: ('A' for Active; 'I' for Inactive)
REMARK    1  A    between atoms: C_1  and  C_2
REMARK    2  A    between atoms: C_5  and  C_6
REMARK    3  A    between atoms: C_6  and  N_7
REMARK    4  A    between atoms: C_8  and  C_10
REMARK    5  A    between atoms: C_10  and  N_11
REMARK    6  A    between atoms: C_12  and  C_14
REMARK    7  A    between atoms: C_24  and  O_26
REMARK    8  A    between atoms: O_26  and  C_27
REMARK    9  A    between atoms: C_27  and  C_28
REMARK   10  A    between atoms: C_27  and  C_29
REMARK   11  A    between atoms: C_27  and  C_30
REMARK                            x       y       z     vdW  Elec       q    Type
REMARK                         _______ _______ _______ _____ _____    ______ ____
ROOT
ATOM      1  N   UNL     1       1.560   8.007  18.264  0.00  0.00    +0.000 N 
ATOM      2  C   UNL     1       1.967   6.978  19.127  0.00  0.00    +0.000 C 
ATOM      3  O   UNL     1       2.113   7.212  20.329  0.00  0.00    +0.000 OA
ATOM      4  H   UNL     1       1.521   7.772  17.279  0.00  0.00    +0.000 HD
ENDROOT
BRANCH   2   5
ATOM      5  C   UNL     1       2.634   5.706  18.436  0.00  0.00    +0.000 C 
ATOM      6  C   UNL     1       1.566   4.690  17.856  0.00  0.00    +0.000 C 
ATOM      7  C   UNL     1       1.781   3.410  18.717  0.00  0.00    +0.000 A 
ATOM      8  C   UNL     1       0.756   3.107  19.615  0.00  0.00    +0.000 A 
ATOM      9  C   UNL     1       1.086   3.066  20.963  0.00  0.00    +0.000 A 
ATOM     10  C   UNL     1       2.423   3.152  21.364  0.00  0.00    +0.000 A 
ATOM     11  C   UNL     1       3.458   3.125  20.420  0.00  0.00    +0.000 A 
ATOM     12  C   UNL     1       3.149   3.210  19.058  0.00  0.00    +0.000 A 
ATOM     13  C   UNL     1       4.168   3.769  18.069  0.00  0.00    +0.000 C 
ATOM     14  N   UNL     1       3.975   5.237  17.935  0.00  0.00    +0.000 N 
ATOM     15  C   UNL     1       4.598   5.877  16.870  0.00  0.00    +0.000 C 
ATOM     16  O   UNL     1       4.348   7.037  16.562  0.00  0.00    +0.000 OA
BRANCH  15  17
ATOM     17  O   UNL     1       5.499   5.074  16.219  0.00  0.00    +0.000 OA
BRANCH  17  18
ATOM     18  C   UNL     1       6.954   5.231  16.320  0.00  0.00    +0.000 C 
ATOM     19  C   UNL     1       7.620   4.948  14.970  0.00  0.00    +0.000 C 
ATOM     20  C   UNL     1       7.208   6.711  16.677  0.00  0.00    +0.000 C 
ATOM     21  C   UNL     1       7.575   4.379  17.436  0.00  0.00    +0.000 C 
ENDBRANCH  17  18
ENDBRANCH  15  17
ENDBRANCH   2   5
BRANCH   1  22
ATOM     22  C   UNL     1       1.942   9.413  18.547  0.00  0.00    +0.000 C 
BRANCH  22  24
ATOM     23  N   UNL     1       0.420  11.360  18.667  0.00  0.00    +0.000 N 
ATOM     24  C   UNL     1       1.004  10.328  19.359  0.00  0.00    +0.000 C 
ATOM     25  O   UNL     1       0.722  10.074  20.532  0.00  0.00    +0.000 OA
ATOM     26  H   UNL     1       0.581  11.409  17.667  0.00  0.00    +0.000 HD
BRANCH  23  27
ATOM     27  C   UNL     1      -0.535  12.270  19.270  0.00  0.00    +0.000 C 
BRANCH  27  32
ATOM     28  C   UNL     1      -6.109  11.014  18.029  0.00  0.00    +0.000 C 
ATOM     29  C   UNL     1      -4.682  11.344  18.352  0.00  0.00    +0.000 A 
ATOM     30  C   UNL     1      -4.360  12.217  19.398  0.00  0.00    +0.000 A 
ATOM     31  C   UNL     1      -3.016  12.490  19.709  0.00  0.00    +0.000 A 
ATOM     32  C   UNL     1      -1.974  11.917  18.970  0.00  0.00    +0.000 A 
ATOM     33  C   UNL     1      -2.303  11.041  17.924  0.00  0.00    +0.000 A 
ATOM     34  C   UNL     1      -3.641  10.754  17.625  0.00  0.00    +0.000 A 
ENDBRANCH  27  32
ENDBRANCH  23  27
ENDBRANCH  22  24
ENDBRANCH   1  22
TORSDOF 7
ENDMDL
