MODEL 1
REMARK VINA RESULT:      -9.0      0.000      0.000
REMARK  Name = 
REMARK  4 active torsions:
REMARK  status: ('A' for Active; 'I' for Inactive)
REMARK    1  A    between atoms: C_1  and  C_2
REMARK    2  A    between atoms: C_6  and  N_7
REMARK    3  A    between atoms: C_8  and  C_10
REMARK    4  A    between atoms: C_18  and  C_19
REMARK                            x       y       z     vdW  Elec       q    Type
REMARK                         _______ _______ _______ _____ _____    ______ ____
ROOT
ATOM      1  C   UNL     1       2.358   2.870  21.745  0.00  0.00    +0.000 C 
ATOM      2  C   UNL     1       2.947   3.032  20.394  0.00  0.00    +0.000 A 
ATOM      3  N   UNL     1       3.581   2.116  19.683  0.00  0.00    +0.000 NA
ATOM      4  N   UNL     1       3.969   2.687  18.488  0.00  0.00    +0.000 NA
ATOM      5  C   UNL     1       3.567   3.939  18.483  0.00  0.00    +0.000 A 
ATOM      6  C   UNL     1       3.682   5.009  17.532  0.00  0.00    +0.000 A 
ATOM      7  C   UNL     1       3.143   6.202  17.859  0.00  0.00    +0.000 A 
ATOM      8  C   UNL     1       2.456   6.455  19.116  0.00  0.00    +0.000 A 
ATOM      9  C   UNL     1       2.354   5.443  20.003  0.00  0.00    +0.000 A 
ATOM     10  N   UNL     1       2.907   4.209  19.678  0.00  0.00    +0.000 N 
ENDROOT
BRANCH   8  11
ATOM     11  C   UNL     1       1.904   7.769  19.460  0.00  0.00    +0.000 A 
ATOM     12  C   UNL     1       1.802   8.757  18.473  0.00  0.00    +0.000 A 
ATOM     13  C   UNL     1       1.319  10.024  18.801  0.00  0.00    +0.000 A 
ATOM     14  C   UNL     1       0.922  10.295  20.109  0.00  0.00    +0.000 A 
ATOM     15 CL   UNL     1       0.379  11.873  20.525  0.00  0.00    +0.000 Cl
ATOM     16  C   UNL     1       0.974   9.301  21.086  0.00  0.00    +0.000 A 
ATOM     17  C   UNL     1       1.461   8.034  20.761  0.00  0.00    +0.000 A 
ENDBRANCH   8  11
BRANCH   6  18
ATOM     18  N   UNL     1       4.348   4.751  16.343  0.00  0.00    +0.000 N 
ATOM     19  C   UNL     1       5.544   5.332  15.940  0.00  0.00    +0.000 C 
ATOM     20  O   UNL     1       6.191   6.155  16.583  0.00  0.00    +0.000 OA
ATOM     21  H   UNL     1       3.920   4.042  15.758  0.00  0.00    +0.000 HD
BRANCH  19  22
ATOM     22  C   UNL     1       6.123   4.920  14.636  0.00  0.00    +0.000 A 
ATOM     23  C   UNL     1       7.348   5.392  14.156  0.00  0.00    +0.000 A 
ATOM     24  C   UNL     1       7.849   4.898  12.945  0.00  0.00    +0.000 A 
ATOM     25  C   UNL     1       7.133   3.939  12.233  0.00  0.00    +0.000 A 
ATOM     26  F   UNL     1       7.626   3.466  11.081  0.00  0.00    +0.000 F 
ATOM     27  C   UNL     1       5.922   3.451  12.704  0.00  0.00    +0.000 A 
ATOM     28  C   UNL     1       5.418   3.943  13.907  0.00  0.00    +0.000 A 
ENDBRANCH  19  22
ENDBRANCH   6  18
TORSDOF 3
ENDMDL
MODEL 2
REMARK VINA RESULT:      -8.9      0.637      1.459
REMARK  Name = 
REMARK  4 active torsions:
REMARK  status: ('A' for Active; 'I' for Inactive)
REMARK    1  A    between atoms: C_1  and  C_2
REMARK    2  A    between atoms: C_6  and  N_7
REMARK    3  A    between atoms: C_8  and  C_10
REMARK    4  A    between atoms: C_18  and  C_19
REMARK                            x       y       z     vdW  Elec       q    Type
REMARK                         _______ _______ _______ _____ _____    ______ ____
ROOT
ATOM      1  C   UNL     1       1.861   2.825  21.920  0.00  0.00    +0.000 C 
ATOM      2  C   UNL     1       2.484   3.037  20.591  0.00  0.00    +0.000 A 
ATOM      3  N   UNL     1       3.076   2.132  19.832  0.00  0.00    +0.000 NA
ATOM      4  N   UNL     1       3.520   2.754  18.683  0.00  0.00    +0.000 NA
ATOM      5  C   UNL     1       3.193   4.026  18.754  0.00  0.00    +0.000 A 
ATOM      6  C   UNL     1       3.390   5.146  17.877  0.00  0.00    +0.000 A 
ATOM      7  C   UNL     1       2.916   6.346  18.274  0.00  0.00    +0.000 A 
ATOM      8  C   UNL     1       2.222   6.559  19.534  0.00  0.00    +0.000 A 
ATOM      9  C   UNL     1       2.044   5.500  20.350  0.00  0.00    +0.000 A 
ATOM     10  N   UNL     1       2.527   4.258  19.954  0.00  0.00    +0.000 N 
ENDROOT
BRANCH   8  11
ATOM     11  C   UNL     1       1.743   7.879  19.955  0.00  0.00    +0.000 A 
ATOM     12  C   UNL     1       1.492   8.126  21.310  0.00  0.00    +0.000 A 
ATOM     13  C   UNL     1       0.994   9.364  21.714  0.00  0.00    +0.000 A 
ATOM     14  C   UNL     1       0.765  10.359  20.765  0.00  0.00    +0.000 A 
ATOM     15 CL   UNL     1       0.099  11.867  21.256  0.00  0.00    +0.000 Cl
ATOM     16  C   UNL     1       1.059  10.138  19.420  0.00  0.00    +0.000 A 
ATOM     17  C   UNL     1       1.553   8.898  19.014  0.00  0.00    +0.000 A 
ENDBRANCH   8  11
BRANCH   6  18
ATOM     18  N   UNL     1       4.062   4.926  16.684  0.00  0.00    +0.000 N 
ATOM     19  C   UNL     1       5.440   4.826  16.535  0.00  0.00    +0.000 C 
ATOM     20  O   UNL     1       6.265   4.912  17.440  0.00  0.00    +0.000 OA
ATOM     21  H   UNL     1       3.465   4.789  15.876  0.00  0.00    +0.000 HD
BRANCH  19  22
ATOM     22  C   UNL     1       5.984   4.569  15.177  0.00  0.00    +0.000 A 
ATOM     23  C   UNL     1       5.342   3.763  14.232  0.00  0.00    +0.000 A 
ATOM     24  C   UNL     1       5.895   3.630  12.953  0.00  0.00    +0.000 A 
ATOM     25  C   UNL     1       7.071   4.302  12.627  0.00  0.00    +0.000 A 
ATOM     26  F   UNL     1       7.586   4.175  11.397  0.00  0.00    +0.000 F 
ATOM     27  C   UNL     1       7.713   5.115  13.551  0.00  0.00    +0.000 A 
ATOM     28  C   UNL     1       7.167   5.248  14.826  0.00  0.00    +0.000 A 
ENDBRANCH  19  22
ENDBRANCH   6  18
TORSDOF 3
ENDMDL
MODEL 3
REMARK VINA RESULT:      -8.4      5.237      7.103
REMARK  Name = 
REMARK  4 active torsions:
REMARK  status: ('A' for Active; 'I' for Inactive)
REMARK    1  A    between atoms: C_1  and  C_2
REMARK    2  A    between atoms: C_6  and  N_7
REMARK    3  A    between atoms: C_8  and  C_10
REMARK    4  A    between atoms: C_18  and  C_19
REMARK                            x       y       z     vdW  Elec       q    Type
REMARK                         _______ _______ _______ _____ _____    ______ ____
ROOT
ATOM      1  C   UNL     1       5.976   3.690  14.067  0.00  0.00    +0.000 C 
ATOM      2  C   UNL     1       6.664   4.728  14.872  0.00  0.00    +0.000 A 
ATOM      3  N   UNL     1       7.658   5.510  14.486  0.00  0.00    +0.000 NA
ATOM      4  N   UNL     1       8.002   6.325  15.545  0.00  0.00    +0.000 NA
ATOM      5  C   UNL     1       7.217   6.034  16.559  0.00  0.00    +0.000 A 
ATOM      6  C   UNL     1       7.108   6.537  17.899  0.00  0.00    +0.000 A 
ATOM      7  C   UNL     1       6.167   5.995  18.700  0.00  0.00    +0.000 A 
ATOM      8  C   UNL     1       5.264   4.936  18.275  0.00  0.00    +0.000 A 
ATOM      9  C   UNL     1       5.376   4.471  17.014  0.00  0.00    +0.000 A 
ATOM     10  N   UNL     1       6.342   5.020  16.179  0.00  0.00    +0.000 N 
ENDROOT
BRANCH   8  11
ATOM     11  C   UNL     1       4.269   4.344  19.174  0.00  0.00    +0.000 A 
ATOM     12  C   UNL     1       3.336   5.168  19.815  0.00  0.00    +0.000 A 
ATOM     13  C   UNL     1       2.414   4.619  20.705  0.00  0.00    +0.000 A 
ATOM     14  C   UNL     1       2.415   3.245  20.940  0.00  0.00    +0.000 A 
ATOM     15 CL   UNL     1       1.315   2.575  22.080  0.00  0.00    +0.000 Cl
ATOM     16  C   UNL     1       3.309   2.411  20.270  0.00  0.00    +0.000 A 
ATOM     17  C   UNL     1       4.235   2.960  19.381  0.00  0.00    +0.000 A 
ENDBRANCH   8  11
BRANCH   6  18
ATOM     18  N   UNL     1       7.983   7.540  18.289  0.00  0.00    +0.000 N 
ATOM     19  C   UNL     1       7.905   8.876  17.913  0.00  0.00    +0.000 C 
ATOM     20  O   UNL     1       7.045   9.365  17.185  0.00  0.00    +0.000 OA
ATOM     21  H   UNL     1       8.707   7.249  18.936  0.00  0.00    +0.000 HD
BRANCH  19  22
ATOM     22  C   UNL     1       8.923   9.818  18.444  0.00  0.00    +0.000 A 
ATOM     23  C   UNL     1       9.722  10.624  17.629  0.00  0.00    +0.000 A 
ATOM     24  C   UNL     1      10.610  11.532  18.218  0.00  0.00    +0.000 A 
ATOM     25  C   UNL     1      10.688  11.632  19.606  0.00  0.00    +0.000 A 
ATOM     26  F   UNL     1      11.534  12.511  20.159  0.00  0.00    +0.000 F 
ATOM     27  C   UNL     1       9.892  10.847  20.427  0.00  0.00    +0.000 A 
ATOM     28  C   UNL     1       9.009   9.940  19.844  0.00  0.00    +0.000 A 
ENDBRANCH  19  22
ENDBRANCH   6  18
TORSDOF 3
ENDMDL
MODEL 4
REMARK VINA RESULT:      -8.3      5.216      7.090
REMARK  Name = 
REMARK  4 active torsions:
REMARK  status: ('A' for Active; 'I' for Inactive)
REMARK    1  A    between atoms: C_1  and  C_2
REMARK    2  A    between atoms: C_6  and  N_7
REMARK    3  A    between atoms: C_8  and  C_10
REMARK    4  A    between atoms: C_18  and  C_19
REMARK                            x       y       z     vdW  Elec       q    Type
REMARK                         _______ _______ _______ _____ _____    ______ ____
ROOT
ATOM      1  C   UNL     1       5.969   3.671  14.163  0.00  0.00    +0.000 C 
ATOM      2  C   UNL     1       6.653   4.724  14.951  0.00  0.00    +0.000 A 
ATOM      3  N   UNL     1       7.628   5.519  14.545  0.00  0.00    +0.000 NA
ATOM      4  N   UNL     1       7.976   6.346  15.594  0.00  0.00    +0.000 NA
ATOM      5  C   UNL     1       7.211   6.049  16.622  0.00  0.00    +0.000 A 
ATOM      6  C   UNL     1       7.116   6.558  17.961  0.00  0.00    +0.000 A 
ATOM      7  C   UNL     1       6.196   6.006  18.780  0.00  0.00    +0.000 A 
ATOM      8  C   UNL     1       5.304   4.930  18.375  0.00  0.00    +0.000 A 
ATOM      9  C   UNL     1       5.403   4.459  17.115  0.00  0.00    +0.000 A 
ATOM     10  N   UNL     1       6.347   5.019  16.262  0.00  0.00    +0.000 N 
ENDROOT
BRANCH   8  11
ATOM     11  C   UNL     1       4.332   4.328  19.293  0.00  0.00    +0.000 A 
ATOM     12  C   UNL     1       4.437   2.970  19.620  0.00  0.00    +0.000 A 
ATOM     13  C   UNL     1       3.492   2.379  20.458  0.00  0.00    +0.000 A 
ATOM     14  C   UNL     1       2.454   3.148  20.981  0.00  0.00    +0.000 A 
ATOM     15 CL   UNL     1       1.257   2.406  21.968  0.00  0.00    +0.000 Cl
ATOM     16  C   UNL     1       2.371   4.511  20.698  0.00  0.00    +0.000 A 
ATOM     17  C   UNL     1       3.313   5.104  19.857  0.00  0.00    +0.000 A 
ENDBRANCH   8  11
BRANCH   6  18
ATOM     18  N   UNL     1       7.981   7.577  18.331  0.00  0.00    +0.000 N 
ATOM     19  C   UNL     1       7.884   8.906  17.937  0.00  0.00    +0.000 C 
ATOM     20  O   UNL     1       7.014   9.374  17.208  0.00  0.00    +0.000 OA
ATOM     21  H   UNL     1       8.712   7.304  18.978  0.00  0.00    +0.000 HD
BRANCH  19  22
ATOM     22  C   UNL     1       8.895   9.867  18.448  0.00  0.00    +0.000 A 
ATOM     23  C   UNL     1       9.249   9.964  19.797  0.00  0.00    +0.000 A 
ATOM     24  C   UNL     1      10.260  10.853  20.180  0.00  0.00    +0.000 A 
ATOM     25  C   UNL     1      10.910  11.628  19.221  0.00  0.00    +0.000 A 
ATOM     26  F   UNL     1      11.883  12.468  19.598  0.00  0.00    +0.000 F 
ATOM     27  C   UNL     1      10.578  11.532  17.877  0.00  0.00    +0.000 A 
ATOM     28  C   UNL     1       9.569  10.651  17.492  0.00  0.00    +0.000 A 
ENDBRANCH  19  22
ENDBRANCH   6  18
TORSDOF 3
ENDMDL
MODEL 5
REMARK VINA RESULT:      -7.9      4.349      8.030
REMARK  Name = 
REMARK  4 active torsions:
REMARK  status: ('A' for Active; 'I' for Inactive)
REMARK    1  A    between atoms: C_1  and  C_2
REMARK    2  A    between atoms: C_6  and  N_7
REMARK    3  A    between atoms: C_8  and  C_10
REMARK    4  A    between atoms: C_18  and  C_19
REMARK                            x       y       z     vdW  Elec       q    Type
REMARK                         _______ _______ _______ _____ _____    ______ ____
ROOT
ATOM      1  C   UNL     1       2.076   1.549  19.334  0.00  0.00    +0.000 C 
ATOM      2  C   UNL     1       1.874   2.985  19.643  0.00  0.00    +0.000 A 
ATOM      3  N   UNL     1       1.042   3.502  20.531  0.00  0.00    +0.000 NA
ATOM      4  N   UNL     1       1.168   4.876  20.492  0.00  0.00    +0.000 NA
ATOM      5  C   UNL     1       2.072   5.179  19.586  0.00  0.00    +0.000 A 
ATOM      6  C   UNL     1       2.612   6.421  19.108  0.00  0.00    +0.000 A 
ATOM      7  C   UNL     1       3.551   6.367  18.140  0.00  0.00    +0.000 A 
ATOM      8  C   UNL     1       4.038   5.124  17.563  0.00  0.00    +0.000 A 
ATOM      9  C   UNL     1       3.523   3.964  18.019  0.00  0.00    +0.000 A 
ATOM     10  N   UNL     1       2.555   4.005  19.016  0.00  0.00    +0.000 N 
ENDROOT
BRANCH   8  11
ATOM     11  C   UNL     1       5.038   5.094  16.491  0.00  0.00    +0.000 A 
ATOM     12  C   UNL     1       6.178   5.901  16.584  0.00  0.00    +0.000 A 
ATOM     13  C   UNL     1       7.113   5.912  15.549  0.00  0.00    +0.000 A 
ATOM     14  C   UNL     1       6.915   5.104  14.431  0.00  0.00    +0.000 A 
ATOM     15 CL   UNL     1       8.039   5.159  13.130  0.00  0.00    +0.000 Cl
ATOM     16  C   UNL     1       5.807   4.261  14.353  0.00  0.00    +0.000 A 
ATOM     17  C   UNL     1       4.869   4.252  15.386  0.00  0.00    +0.000 A 
ENDBRANCH   8  11
BRANCH   6  18
ATOM     18  N   UNL     1       2.128   7.595  19.665  0.00  0.00    +0.000 N 
ATOM     19  C   UNL     1       1.631   8.684  18.958  0.00  0.00    +0.000 C 
ATOM     20  O   UNL     1       1.541   8.761  17.736  0.00  0.00    +0.000 OA
ATOM     21  H   UNL     1       2.112   7.614  20.678  0.00  0.00    +0.000 HD
BRANCH  19  22
ATOM     22  C   UNL     1       1.137   9.856  19.725  0.00  0.00    +0.000 A 
ATOM     23  C   UNL     1       1.137  11.159  19.221  0.00  0.00    +0.000 A 
ATOM     24  C   UNL     1       0.590  12.194  19.989  0.00  0.00    +0.000 A 
ATOM     25  C   UNL     1       0.046  11.921  21.242  0.00  0.00    +0.000 A 
ATOM     26  F   UNL     1      -0.484  12.917  21.964  0.00  0.00    +0.000 F 
ATOM     27  C   UNL     1       0.027  10.630  21.750  0.00  0.00    +0.000 A 
ATOM     28  C   UNL     1       0.574   9.597  20.990  0.00  0.00    +0.000 A 
ENDBRANCH  19  22
ENDBRANCH   6  18
TORSDOF 3
ENDMDL
MODEL 6
REMARK VINA RESULT:      -7.8      4.871      7.369
REMARK  Name = 
REMARK  4 active torsions:
REMARK  status: ('A' for Active; 'I' for Inactive)
REMARK    1  A    between atoms: C_1  and  C_2
REMARK    2  A    between atoms: C_6  and  N_7
REMARK    3  A    between atoms: C_8  and  C_10
REMARK    4  A    between atoms: C_18  and  C_19
REMARK                            x       y       z     vdW  Elec       q    Type
REMARK                         _______ _______ _______ _____ _____    ______ ____
ROOT
ATOM      1  C   UNL     1       1.279  15.057  18.930  0.00  0.00    +0.000 C 
ATOM      2  C   UNL     1       1.612  13.640  18.643  0.00  0.00    +0.000 A 
ATOM      3  N   UNL     1       2.811  13.129  18.424  0.00  0.00    +0.000 NA
ATOM      4  N   UNL     1       2.668  11.776  18.194  0.00  0.00    +0.000 NA
ATOM      5  C   UNL     1       1.390  11.478  18.277  0.00  0.00    +0.000 A 
ATOM      6  C   UNL     1       0.650  10.257  18.130  0.00  0.00    +0.000 A 
ATOM      7  C   UNL     1      -0.691  10.312  18.281  0.00  0.00    +0.000 A 
ATOM      8  C   UNL     1      -1.415  11.537  18.583  0.00  0.00    +0.000 A 
ATOM      9  C   UNL     1      -0.709  12.678  18.718  0.00  0.00    +0.000 A 
ATOM     10  N   UNL     1       0.672  12.635  18.564  0.00  0.00    +0.000 N 
ENDROOT
BRANCH   8  11
ATOM     11  C   UNL     1      -2.874  11.575  18.713  0.00  0.00    +0.000 A 
ATOM     12  C   UNL     1      -3.462  12.388  19.691  0.00  0.00    +0.000 A 
ATOM     13  C   UNL     1      -4.847  12.397  19.851  0.00  0.00    +0.000 A 
ATOM     14  C   UNL     1      -5.644  11.608  19.023  0.00  0.00    +0.000 A 
ATOM     15 CL   UNL     1      -7.348  11.577  19.257  0.00  0.00    +0.000 Cl
ATOM     16  C   UNL     1      -5.070  10.834  18.015  0.00  0.00    +0.000 A 
ATOM     17  C   UNL     1      -3.683  10.820  17.856  0.00  0.00    +0.000 A 
ENDBRANCH   8  11
BRANCH   6  18
ATOM     18  N   UNL     1       1.356   9.101  17.833  0.00  0.00    +0.000 N 
ATOM     19  C   UNL     1       1.912   8.229  18.762  0.00  0.00    +0.000 C 
ATOM     20  O   UNL     1       1.852   8.351  19.982  0.00  0.00    +0.000 OA
ATOM     21  H   UNL     1       1.421   8.881  16.846  0.00  0.00    +0.000 HD
BRANCH  19  22
ATOM     22  C   UNL     1       2.622   7.025  18.260  0.00  0.00    +0.000 A 
ATOM     23  C   UNL     1       2.115   5.728  18.378  0.00  0.00    +0.000 A 
ATOM     24  C   UNL     1       2.822   4.659  17.816  0.00  0.00    +0.000 A 
ATOM     25  C   UNL     1       4.017   4.891  17.140  0.00  0.00    +0.000 A 
ATOM     26  F   UNL     1       4.681   3.861  16.597  0.00  0.00    +0.000 F 
ATOM     27  C   UNL     1       4.527   6.174  17.003  0.00  0.00    +0.000 A 
ATOM     28  C   UNL     1       3.828   7.241  17.564  0.00  0.00    +0.000 A 
ENDBRANCH  19  22
ENDBRANCH   6  18
TORSDOF 3
ENDMDL
MODEL 7
REMARK VINA RESULT:      -7.8      4.292      7.832
REMARK  Name = 
REMARK  4 active torsions:
REMARK  status: ('A' for Active; 'I' for Inactive)
REMARK    1  A    between atoms: C_1  and  C_2
REMARK    2  A    between atoms: C_6  and  N_7
REMARK    3  A    between atoms: C_8  and  C_10
REMARK    4  A    between atoms: C_18  and  C_19
REMARK                            x       y       z     vdW  Elec       q    Type
REMARK                         _______ _______ _______ _____ _____    ______ ____
ROOT
ATOM      1  C   UNL     1       3.464   2.285  20.716  0.00  0.00    +0.000 C 
ATOM      2  C   UNL     1       2.900   3.650  20.586  0.00  0.00    +0.000 A 
ATOM      3  N   UNL     1       2.013   4.227  21.378  0.00  0.00    +0.000 NA
ATOM      4  N   UNL     1       1.761   5.495  20.894  0.00  0.00    +0.000 NA
ATOM      5  C   UNL     1       2.495   5.676  19.818  0.00  0.00    +0.000 A 
ATOM      6  C   UNL     1       2.650   6.771  18.902  0.00  0.00    +0.000 A 
ATOM      7  C   UNL     1       3.511   6.613  17.874  0.00  0.00    +0.000 A 
ATOM      8  C   UNL     1       4.281   5.400  17.650  0.00  0.00    +0.000 A 
ATOM      9  C   UNL     1       4.126   4.377  18.516  0.00  0.00    +0.000 A 
ATOM     10  N   UNL     1       3.243   4.526  19.579  0.00  0.00    +0.000 N 
ENDROOT
BRANCH   8  11
ATOM     11  C   UNL     1       5.187   5.243  16.508  0.00  0.00    +0.000 A 
ATOM     12  C   UNL     1       6.422   5.904  16.508  0.00  0.00    +0.000 A 
ATOM     13  C   UNL     1       7.271   5.796  15.407  0.00  0.00    +0.000 A 
ATOM     14  C   UNL     1       6.893   5.014  14.316  0.00  0.00    +0.000 A 
ATOM     15 CL   UNL     1       7.915   4.926  12.936  0.00  0.00    +0.000 Cl
ATOM     16  C   UNL     1       5.687   4.315  14.330  0.00  0.00    +0.000 A 
ATOM     17  C   UNL     1       4.834   4.425  15.429  0.00  0.00    +0.000 A 
ENDBRANCH   8  11
BRANCH   6  18
ATOM     18  N   UNL     1       1.901   7.916  19.127  0.00  0.00    +0.000 N 
ATOM     19  C   UNL     1       1.756   8.977  18.241  0.00  0.00    +0.000 C 
ATOM     20  O   UNL     1       2.265   9.053  17.126  0.00  0.00    +0.000 OA
ATOM     21  H   UNL     1       1.396   7.931  20.005  0.00  0.00    +0.000 HD
BRANCH  19  22
ATOM     22  C   UNL     1       0.896  10.119  18.646  0.00  0.00    +0.000 A 
ATOM     23  C   UNL     1       1.379  11.243  19.322  0.00  0.00    +0.000 A 
ATOM     24  C   UNL     1       0.508  12.302  19.604  0.00  0.00    +0.000 A 
ATOM     25  C   UNL     1      -0.826  12.235  19.207  0.00  0.00    +0.000 A 
ATOM     26  F   UNL     1      -1.647  13.259  19.474  0.00  0.00    +0.000 F 
ATOM     27  C   UNL     1      -1.316  11.131  18.523  0.00  0.00    +0.000 A 
ATOM     28  C   UNL     1      -0.453  10.073  18.243  0.00  0.00    +0.000 A 
ENDBRANCH  19  22
ENDBRANCH   6  18
TORSDOF 3
ENDMDL
MODEL 8
REMARK VINA RESULT:      -7.8      4.922      7.373
REMARK  Name = 
REMARK  4 active torsions:
REMARK  status: ('A' for Active; 'I' for Inactive)
REMARK    1  A    between atoms: C_1  and  C_2
REMARK    2  A    between atoms: C_6  and  N_7
REMARK    3  A    between atoms: C_8  and  C_10
REMARK    4  A    between atoms: C_18  and  C_19
REMARK                            x       y       z     vdW  Elec       q    Type
REMARK                         _______ _______ _______ _____ _____    ______ ____
ROOT
ATOM      1  C   UNL     1       1.292  15.201  18.936  0.00  0.00    +0.000 C 
ATOM      2  C   UNL     1       1.640  13.791  18.638  0.00  0.00    +0.000 A 
ATOM      3  N   UNL     1       2.843  13.298  18.397  0.00  0.00    +0.000 NA
ATOM      4  N   UNL     1       2.716  11.944  18.164  0.00  0.00    +0.000 NA
ATOM      5  C   UNL     1       1.444  11.627  18.266  0.00  0.00    +0.000 A 
ATOM      6  C   UNL     1       0.719  10.396  18.127  0.00  0.00    +0.000 A 
ATOM      7  C   UNL     1      -0.619  10.431  18.300  0.00  0.00    +0.000 A 
ATOM      8  C   UNL     1      -1.356  11.644  18.619  0.00  0.00    +0.000 A 
ATOM      9  C   UNL     1      -0.665  12.795  18.747  0.00  0.00    +0.000 A 
ATOM     10  N   UNL     1       0.714  12.773  18.570  0.00  0.00    +0.000 N 
ENDROOT
BRANCH   8  11
ATOM     11  C   UNL     1      -2.814  11.661  18.774  0.00  0.00    +0.000 A 
ATOM     12  C   UNL     1      -3.610  10.882  17.924  0.00  0.00    +0.000 A 
ATOM     13  C   UNL     1      -4.999  10.926  18.036  0.00  0.00    +0.000 A 
ATOM     14  C   UNL     1      -5.590  11.732  19.006  0.00  0.00    +0.000 A 
ATOM     15 CL   UNL     1      -7.305  11.828  19.107  0.00  0.00    +0.000 Cl
ATOM     16  C   UNL     1      -4.803  12.473  19.887  0.00  0.00    +0.000 A 
ATOM     17  C   UNL     1      -3.412  12.434  19.775  0.00  0.00    +0.000 A 
ENDBRANCH   8  11
BRANCH   6  18
ATOM     18  N   UNL     1       1.437   9.252  17.814  0.00  0.00    +0.000 N 
ATOM     19  C   UNL     1       1.895   8.307  18.725  0.00  0.00    +0.000 C 
ATOM     20  O   UNL     1       1.725   8.344  19.940  0.00  0.00    +0.000 OA
ATOM     21  H   UNL     1       1.590   9.100  16.824  0.00  0.00    +0.000 HD
BRANCH  19  22
ATOM     22  C   UNL     1       2.636   7.129  18.205  0.00  0.00    +0.000 A 
ATOM     23  C   UNL     1       3.841   7.229  17.503  0.00  0.00    +0.000 A 
ATOM     24  C   UNL     1       4.504   6.061  17.108  0.00  0.00    +0.000 A 
ATOM     25  C   UNL     1       3.969   4.813  17.420  0.00  0.00    +0.000 A 
ATOM     26  F   UNL     1       4.617   3.702  17.046  0.00  0.00    +0.000 F 
ATOM     27  C   UNL     1       2.781   4.699  18.128  0.00  0.00    +0.000 A 
ATOM     28  C   UNL     1       2.115   5.859  18.520  0.00  0.00    +0.000 A 
ENDBRANCH  19  22
ENDBRANCH   6  18
TORSDOF 3
ENDMDL
MODEL 9
REMARK VINA RESULT:      -7.6      4.256      7.905
REMARK  Name = 
REMARK  4 active torsions:
REMARK  status: ('A' for Active; 'I' for Inactive)
REMARK    1  A    between atoms: C_1  and  C_2
REMARK    2  A    between atoms: C_6  and  N_7
REMARK    3  A    between atoms: C_8  and  C_10
REMARK    4  A    between atoms: C_18  and  C_19
REMARK                            x       y       z     vdW  Elec       q    Type
REMARK                         _______ _______ _______ _____ _____    ______ ____
ROOT
ATOM      1  C   UNL     1       3.995   1.705  20.639  0.00  0.00    +0.000 C 
ATOM      2  C   UNL     1       3.377   3.054  20.645  0.00  0.00    +0.000 A 
ATOM      3  N   UNL     1       2.527   3.540  21.533  0.00  0.00    +0.000 NA
ATOM      4  N   UNL     1       2.200   4.827  21.158  0.00  0.00    +0.000 NA
ATOM      5  C   UNL     1       2.852   5.111  20.052  0.00  0.00    +0.000 A 
ATOM      6  C   UNL     1       2.908   6.272  19.209  0.00  0.00    +0.000 A 
ATOM      7  C   UNL     1       3.701   6.219  18.118  0.00  0.00    +0.000 A 
ATOM      8  C   UNL     1       4.495   5.055  17.758  0.00  0.00    +0.000 A 
ATOM      9  C   UNL     1       4.434   3.969  18.556  0.00  0.00    +0.000 A 
ATOM     10  N   UNL     1       3.620   4.010  19.683  0.00  0.00    +0.000 N 
ENDROOT
BRANCH   8  11
ATOM     11  C   UNL     1       5.326   5.013  16.551  0.00  0.00    +0.000 A 
ATOM     12  C   UNL     1       6.556   5.683  16.533  0.00  0.00    +0.000 A 
ATOM     13  C   UNL     1       7.333   5.685  15.375  0.00  0.00    +0.000 A 
ATOM     14  C   UNL     1       6.888   5.004  14.243  0.00  0.00    +0.000 A 
ATOM     15 CL   UNL     1       7.819   5.053  12.798  0.00  0.00    +0.000 Cl
ATOM     16  C   UNL     1       5.688   4.294  14.269  0.00  0.00    +0.000 A 
ATOM     17  C   UNL     1       4.907   4.294  15.426  0.00  0.00    +0.000 A 
ENDBRANCH   8  11
BRANCH   6  18
ATOM     18  N   UNL     1       2.138   7.369  19.564  0.00  0.00    +0.000 N 
ATOM     19  C   UNL     1       1.804   8.429  18.731  0.00  0.00    +0.000 C 
ATOM     20  O   UNL     1       2.136   8.547  17.555  0.00  0.00    +0.000 OA
ATOM     21  H   UNL     1       1.769   7.345  20.508  0.00  0.00    +0.000 HD
BRANCH  19  22
ATOM     22  C   UNL     1       0.950   9.514  19.280  0.00  0.00    +0.000 A 
ATOM     23  C   UNL     1       0.190  10.372  18.480  0.00  0.00    +0.000 A 
ATOM     24  C   UNL     1      -0.638  11.325  19.087  0.00  0.00    +0.000 A 
ATOM     25  C   UNL     1      -0.705  11.408  20.476  0.00  0.00    +0.000 A 
ATOM     26  F   UNL     1      -1.508  12.316  21.046  0.00  0.00    +0.000 F 
ATOM     27  C   UNL     1       0.034  10.554  21.283  0.00  0.00    +0.000 A 
ATOM     28  C   UNL     1       0.862   9.607  20.683  0.00  0.00    +0.000 A 
ENDBRANCH  19  22
ENDBRANCH   6  18
TORSDOF 3
ENDMDL
