MODEL 1
REMARK VINA RESULT:      -8.2      0.000      0.000
REMARK  Name = 
REMARK  11 active torsions:
REMARK  status: ('A' for Active; 'I' for Inactive)
REMARK    1  A    between atoms: C_4  and  O_5
REMARK    2  A    between atoms: O_5  and  C_6
REMARK    3  A    between atoms: C_6  and  C_7
REMARK    4  A    between atoms: C_7  and  C_8
REMARK    5  A    between atoms: C_8  and  C_9
REMARK    6  A    between atoms: C_9  and  C_10
REMARK    7  A    between atoms: C_10  and  C_11
REMARK    8  A    between atoms: C_11  and  O_12
REMARK    9  A    between atoms: O_12  and  C_13
REMARK   10  A    between atoms: C_17  and  C_18
REMARK   11  A    between atoms: C_22  and  C_23
REMARK                            x       y       z     vdW  Elec       q    Type
REMARK                         _______ _______ _______ _____ _____    ______ ____
ROOT
ATOM      1  C   UNL     1       4.795   4.727  19.054  0.00  0.00    +0.000 A 
ATOM      2  C   UNL     1       4.224   3.937  18.055  0.00  0.00    +0.000 A 
ATOM      3  C   UNL     1       2.920   4.188  17.630  0.00  0.00    +0.000 A 
ATOM      4  C   UNL     1       2.215   5.249  18.180  0.00  0.00    +0.000 A 
ATOM      5  C   UNL     1       2.791   6.086  19.152  0.00  0.00    +0.000 A 
ATOM      6  C   UNL     1       4.080   5.796  19.603  0.00  0.00    +0.000 A 
ENDROOT
BRANCH   5   7
ATOM      7  C   UNL     1       2.054   7.263  19.606  0.00  0.00    +0.000 A 
ATOM      8  C   UNL     1       1.830   8.476  18.995  0.00  0.00    +0.000 A 
ATOM      9  C   UNL     1       1.087   9.260  19.894  0.00  0.00    +0.000 A 
ATOM     10  C   UNL     1       0.561  10.545  19.829  0.00  0.00    +0.000 A 
ATOM     11  C   UNL     1      -0.145  11.037  20.928  0.00  0.00    +0.000 A 
ATOM     12  C   UNL     1      -0.275  10.281  22.101  0.00  0.00    +0.000 A 
ATOM     13  C   UNL     1       0.247   8.974  22.179  0.00  0.00    +0.000 A 
ATOM     14  C   UNL     1       0.909   8.500  21.041  0.00  0.00    +0.000 A 
ATOM     15  O   UNL     1       1.493   7.267  20.864  0.00  0.00    +0.000 OA
BRANCH  11  16
ATOM     16  C   UNL     1      -0.759  12.370  20.751  0.00  0.00    +0.000 C 
ATOM     17  N   UNL     1      -0.305  13.263  19.915  0.00  0.00    +0.000 NA
ATOM     18  C   UNL     1      -1.219  14.433  20.089  0.00  0.00    +0.000 C 
ATOM     19  C   UNL     1      -2.243  14.067  21.166  0.00  0.00    +0.000 C 
ATOM     20  N   UNL     1      -1.874  12.712  21.481  0.00  0.00    +0.000 N 
ATOM     21  H   UNL     1      -1.852  12.459  22.464  0.00  0.00    +0.000 HD
ENDBRANCH  11  16
ENDBRANCH   5   7
BRANCH   1  22
ATOM     22  O   UNL     1       6.093   4.413  19.369  0.00  0.00    +0.000 OA
BRANCH  22  23
ATOM     23  C   UNL     1       7.009   4.522  18.283  0.00  0.00    +0.000 C 
BRANCH  23  24
ATOM     24  C   UNL     1       7.600   5.928  18.270  0.00  0.00    +0.000 C 
BRANCH  24  25
ATOM     25  C   UNL     1       6.925   6.742  17.174  0.00  0.00    +0.000 C 
BRANCH  25  26
ATOM     26  C   UNL     1       7.358   8.207  17.173  0.00  0.00    +0.000 C 
BRANCH  26  27
ATOM     27  C   UNL     1       8.273   8.547  18.355  0.00  0.00    +0.000 C 
BRANCH  27  28
ATOM     28  C   UNL     1       8.625  10.033  18.421  0.00  0.00    +0.000 C 
BRANCH  28  29
ATOM     29  O   UNL     1       9.620  10.241  19.425  0.00  0.00    +0.000 OA
BRANCH  29  33
ATOM     30  C   UNL     1      12.331  13.199  18.300  0.00  0.00    +0.000 A 
ATOM     31  C   UNL     1      11.533  12.542  17.366  0.00  0.00    +0.000 A 
ATOM     32  C   UNL     1      10.632  11.561  17.785  0.00  0.00    +0.000 A 
ATOM     33  C   UNL     1      10.536  11.218  19.133  0.00  0.00    +0.000 A 
ATOM     34  C   UNL     1      11.325  11.895  20.069  0.00  0.00    +0.000 A 
ATOM     35  C   UNL     1      12.223  12.881  19.651  0.00  0.00    +0.000 A 
ENDBRANCH  29  33
ENDBRANCH  28  29
ENDBRANCH  27  28
ENDBRANCH  26  27
ENDBRANCH  25  26
ENDBRANCH  24  25
ENDBRANCH  23  24
ENDBRANCH  22  23
ENDBRANCH   1  22
TORSDOF 11
ENDMDL
MODEL 2
REMARK VINA RESULT:      -8.2      4.221      9.478
REMARK  Name = 
REMARK  11 active torsions:
REMARK  status: ('A' for Active; 'I' for Inactive)
REMARK    1  A    between atoms: C_4  and  O_5
REMARK    2  A    between atoms: O_5  and  C_6
REMARK    3  A    between atoms: C_6  and  C_7
REMARK    4  A    between atoms: C_7  and  C_8
REMARK    5  A    between atoms: C_8  and  C_9
REMARK    6  A    between atoms: C_9  and  C_10
REMARK    7  A    between atoms: C_10  and  C_11
REMARK    8  A    between atoms: C_11  and  O_12
REMARK    9  A    between atoms: O_12  and  C_13
REMARK   10  A    between atoms: C_17  and  C_18
REMARK   11  A    between atoms: C_22  and  C_23
REMARK                            x       y       z     vdW  Elec       q    Type
REMARK                         _______ _______ _______ _____ _____    ______ ____
ROOT
ATOM      1  C   UNL     1       6.393   6.354  17.306  0.00  0.00    +0.000 A 
ATOM      2  C   UNL     1       6.811   5.383  18.217  0.00  0.00    +0.000 A 
ATOM      3  C   UNL     1       7.843   5.667  19.110  0.00  0.00    +0.000 A 
ATOM      4  C   UNL     1       8.420   6.928  19.109  0.00  0.00    +0.000 A 
ATOM      5  C   UNL     1       7.978   7.935  18.232  0.00  0.00    +0.000 A 
ATOM      6  C   UNL     1       6.976   7.625  17.311  0.00  0.00    +0.000 A 
ENDROOT
BRANCH   5   7
ATOM      7  C   UNL     1       8.530   9.282  18.357  0.00  0.00    +0.000 A 
ATOM      8  C   UNL     1       8.444  10.372  17.520  0.00  0.00    +0.000 A 
ATOM      9  C   UNL     1       9.193  11.404  18.109  0.00  0.00    +0.000 A 
ATOM     10  C   UNL     1       9.456  12.720  17.744  0.00  0.00    +0.000 A 
ATOM     11  C   UNL     1      10.261  13.499  18.576  0.00  0.00    +0.000 A 
ATOM     12  C   UNL     1      10.847  12.958  19.727  0.00  0.00    +0.000 A 
ATOM     13  C   UNL     1      10.584  11.628  20.115  0.00  0.00    +0.000 A 
ATOM     14  C   UNL     1       9.737  10.894  19.279  0.00  0.00    +0.000 A 
ATOM     15  O   UNL     1       9.323   9.591  19.440  0.00  0.00    +0.000 OA
BRANCH  11  16
ATOM     16  C   UNL     1      10.416  14.914  18.176  0.00  0.00    +0.000 C 
ATOM     17  N   UNL     1      10.984  15.286  17.061  0.00  0.00    +0.000 NA
ATOM     18  C   UNL     1      10.925  16.779  17.095  0.00  0.00    +0.000 C 
ATOM     19  C   UNL     1      10.256  17.188  18.409  0.00  0.00    +0.000 C 
ATOM     20  N   UNL     1       9.938  15.912  18.992  0.00  0.00    +0.000 N 
ATOM     21  H   UNL     1      10.128  15.800  19.984  0.00  0.00    +0.000 HD
ENDBRANCH  11  16
ENDBRANCH   5   7
BRANCH   1  22
ATOM     22  O   UNL     1       5.348   5.978  16.499  0.00  0.00    +0.000 OA
BRANCH  22  23
ATOM     23  C   UNL     1       4.084   5.925  17.153  0.00  0.00    +0.000 C 
BRANCH  23  24
ATOM     24  C   UNL     1       3.458   7.315  17.144  0.00  0.00    +0.000 C 
BRANCH  24  25
ATOM     25  C   UNL     1       2.532   7.453  18.346  0.00  0.00    +0.000 C 
BRANCH  25  26
ATOM     26  C   UNL     1       2.908   6.517  19.493  0.00  0.00    +0.000 C 
BRANCH  26  27
ATOM     27  C   UNL     1       1.726   6.232  20.427  0.00  0.00    +0.000 C 
BRANCH  27  28
ATOM     28  C   UNL     1       1.934   4.981  21.280  0.00  0.00    +0.000 C 
BRANCH  28  29
ATOM     29  O   UNL     1       1.298   3.868  20.651  0.00  0.00    +0.000 OA
BRANCH  29  33
ATOM     30  C   UNL     1       3.581   1.753  17.879  0.00  0.00    +0.000 A 
ATOM     31  C   UNL     1       2.383   2.370  17.525  0.00  0.00    +0.000 A 
ATOM     32  C   UNL     1       1.651   3.074  18.483  0.00  0.00    +0.000 A 
ATOM     33  C   UNL     1       2.100   3.152  19.800  0.00  0.00    +0.000 A 
ATOM     34  C   UNL     1       3.314   2.549  20.146  0.00  0.00    +0.000 A 
ATOM     35  C   UNL     1       4.050   1.848  19.187  0.00  0.00    +0.000 A 
ENDBRANCH  29  33
ENDBRANCH  28  29
ENDBRANCH  27  28
ENDBRANCH  26  27
ENDBRANCH  25  26
ENDBRANCH  24  25
ENDBRANCH  23  24
ENDBRANCH  22  23
ENDBRANCH   1  22
TORSDOF 11
ENDMDL
MODEL 3
REMARK VINA RESULT:      -8.1      3.417      5.178
REMARK  Name = 
REMARK  11 active torsions:
REMARK  status: ('A' for Active; 'I' for Inactive)
REMARK    1  A    between atoms: C_4  and  O_5
REMARK    2  A    between atoms: O_5  and  C_6
REMARK    3  A    between atoms: C_6  and  C_7
REMARK    4  A    between atoms: C_7  and  C_8
REMARK    5  A    between atoms: C_8  and  C_9
REMARK    6  A    between atoms: C_9  and  C_10
REMARK    7  A    between atoms: C_10  and  C_11
REMARK    8  A    between atoms: C_11  and  O_12
REMARK    9  A    between atoms: O_12  and  C_13
REMARK   10  A    between atoms: C_17  and  C_18
REMARK   11  A    between atoms: C_22  and  C_23
REMARK                            x       y       z     vdW  Elec       q    Type
REMARK                         _______ _______ _______ _____ _____    ______ ____
ROOT
ATOM      1  C   UNL     1       2.073   6.146  20.078  0.00  0.00    +0.000 A 
ATOM      2  C   UNL     1       2.579   6.259  18.783  0.00  0.00    +0.000 A 
ATOM      3  C   UNL     1       2.445   7.458  18.086  0.00  0.00    +0.000 A 
ATOM      4  C   UNL     1       1.841   8.543  18.704  0.00  0.00    +0.000 A 
ATOM      5  C   UNL     1       1.369   8.464  20.026  0.00  0.00    +0.000 A 
ATOM      6  C   UNL     1       1.467   7.244  20.697  0.00  0.00    +0.000 A 
ENDROOT
BRANCH   5   7
ATOM      7  C   UNL     1       0.857   9.669  20.674  0.00  0.00    +0.000 A 
ATOM      8  C   UNL     1       0.014   9.823  21.752  0.00  0.00    +0.000 A 
ATOM      9  C   UNL     1      -0.180  11.204  21.929  0.00  0.00    +0.000 A 
ATOM     10  C   UNL     1      -0.903  11.955  22.849  0.00  0.00    +0.000 A 
ATOM     11  C   UNL     1      -0.884  13.347  22.742  0.00  0.00    +0.000 A 
ATOM     12  C   UNL     1      -0.202  13.981  21.696  0.00  0.00    +0.000 A 
ATOM     13  C   UNL     1       0.542  13.234  20.759  0.00  0.00    +0.000 A 
ATOM     14  C   UNL     1       0.534  11.845  20.927  0.00  0.00    +0.000 A 
ATOM     15  O   UNL     1       1.182  10.905  20.159  0.00  0.00    +0.000 OA
BRANCH  11  16
ATOM     16  C   UNL     1      -1.593  14.081  23.811  0.00  0.00    +0.000 C 
ATOM     17  N   UNL     1      -1.009  14.943  24.598  0.00  0.00    +0.000 NA
ATOM     18  C   UNL     1      -2.098  15.410  25.509  0.00  0.00    +0.000 C 
ATOM     19  C   UNL     1      -3.378  14.664  25.126  0.00  0.00    +0.000 C 
ATOM     20  N   UNL     1      -2.940  13.877  24.003  0.00  0.00    +0.000 N 
ATOM     21  H   UNL     1      -3.249  12.911  23.971  0.00  0.00    +0.000 HD
ENDBRANCH  11  16
ENDBRANCH   5   7
BRANCH   1  22
ATOM     22  O   UNL     1       2.291   4.933  20.682  0.00  0.00    +0.000 OA
BRANCH  22  23
ATOM     23  C   UNL     1       2.037   3.804  19.850  0.00  0.00    +0.000 C 
BRANCH  23  24
ATOM     24  C   UNL     1       3.127   2.762  20.078  0.00  0.00    +0.000 C 
BRANCH  24  25
ATOM     25  C   UNL     1       4.326   3.092  19.199  0.00  0.00    +0.000 C 
BRANCH  25  26
ATOM     26  C   UNL     1       4.018   2.966  17.708  0.00  0.00    +0.000 C 
BRANCH  26  27
ATOM     27  C   UNL     1       4.330   4.253  16.935  0.00  0.00    +0.000 C 
BRANCH  27  28
ATOM     28  C   UNL     1       5.249   4.015  15.737  0.00  0.00    +0.000 C 
BRANCH  28  29
ATOM     29  O   UNL     1       6.601   3.930  16.186  0.00  0.00    +0.000 OA
BRANCH  29  33
ATOM     30  C   UNL     1       7.977   7.011  18.632  0.00  0.00    +0.000 A 
ATOM     31  C   UNL     1       8.039   5.677  19.028  0.00  0.00    +0.000 A 
ATOM     32  C   UNL     1       7.573   4.674  18.175  0.00  0.00    +0.000 A 
ATOM     33  C   UNL     1       7.027   4.998  16.934  0.00  0.00    +0.000 A 
ATOM     34  C   UNL     1       6.987   6.337  16.533  0.00  0.00    +0.000 A 
ATOM     35  C   UNL     1       7.458   7.341  17.383  0.00  0.00    +0.000 A 
ENDBRANCH  29  33
ENDBRANCH  28  29
ENDBRANCH  27  28
ENDBRANCH  26  27
ENDBRANCH  25  26
ENDBRANCH  24  25
ENDBRANCH  23  24
ENDBRANCH  22  23
ENDBRANCH   1  22
TORSDOF 11
ENDMDL
MODEL 4
REMARK VINA RESULT:      -7.9      4.329      6.583
REMARK  Name = 
REMARK  11 active torsions:
REMARK  status: ('A' for Active; 'I' for Inactive)
REMARK    1  A    between atoms: C_4  and  O_5
REMARK    2  A    between atoms: O_5  and  C_6
REMARK    3  A    between atoms: C_6  and  C_7
REMARK    4  A    between atoms: C_7  and  C_8
REMARK    5  A    between atoms: C_8  and  C_9
REMARK    6  A    between atoms: C_9  and  C_10
REMARK    7  A    between atoms: C_10  and  C_11
REMARK    8  A    between atoms: C_11  and  O_12
REMARK    9  A    between atoms: O_12  and  C_13
REMARK   10  A    between atoms: C_17  and  C_18
REMARK   11  A    between atoms: C_22  and  C_23
REMARK                            x       y       z     vdW  Elec       q    Type
REMARK                         _______ _______ _______ _____ _____    ______ ____
ROOT
ATOM      1  C   UNL     1       3.659   6.416  18.950  0.00  0.00    +0.000 A 
ATOM      2  C   UNL     1       3.981   6.828  17.656  0.00  0.00    +0.000 A 
ATOM      3  C   UNL     1       3.297   7.895  17.076  0.00  0.00    +0.000 A 
ATOM      4  C   UNL     1       2.327   8.564  17.809  0.00  0.00    +0.000 A 
ATOM      5  C   UNL     1       2.024   8.194  19.132  0.00  0.00    +0.000 A 
ATOM      6  C   UNL     1       2.682   7.095  19.684  0.00  0.00    +0.000 A 
ENDROOT
BRANCH   5   7
ATOM      7  C   UNL     1       1.087   9.009  19.902  0.00  0.00    +0.000 A 
ATOM      8  C   UNL     1       0.298  10.072  19.524  0.00  0.00    +0.000 A 
ATOM      9  C   UNL     1      -0.385  10.507  20.673  0.00  0.00    +0.000 A 
ATOM     10  C   UNL     1      -1.316  11.513  20.906  0.00  0.00    +0.000 A 
ATOM     11  C   UNL     1      -1.809  11.685  22.200  0.00  0.00    +0.000 A 
ATOM     12  C   UNL     1      -1.337  10.903  23.263  0.00  0.00    +0.000 A 
ATOM     13  C   UNL     1      -0.398   9.874  23.042  0.00  0.00    +0.000 A 
ATOM     14  C   UNL     1       0.038   9.705  21.723  0.00  0.00    +0.000 A 
ATOM     15  O   UNL     1       0.936   8.775  21.251  0.00  0.00    +0.000 OA
BRANCH  11  16
ATOM     16  C   UNL     1      -2.867  12.706  22.353  0.00  0.00    +0.000 C 
ATOM     17  N   UNL     1      -4.041  12.452  22.864  0.00  0.00    +0.000 NA
ATOM     18  C   UNL     1      -4.762  13.760  22.803  0.00  0.00    +0.000 C 
ATOM     19  C   UNL     1      -3.821  14.781  22.160  0.00  0.00    +0.000 C 
ATOM     20  N   UNL     1      -2.629  14.001  21.956  0.00  0.00    +0.000 N 
ATOM     21  H   UNL     1      -2.156  14.110  21.064  0.00  0.00    +0.000 HD
ENDBRANCH  11  16
ENDBRANCH   5   7
BRANCH   1  22
ATOM     22  O   UNL     1       4.418   5.379  19.432  0.00  0.00    +0.000 OA
BRANCH  22  23
ATOM     23  C   UNL     1       5.820   5.523  19.222  0.00  0.00    +0.000 C 
BRANCH  23  24
ATOM     24  C   UNL     1       6.332   4.321  18.436  0.00  0.00    +0.000 C 
BRANCH  24  25
ATOM     25  C   UNL     1       6.482   4.710  16.971  0.00  0.00    +0.000 C 
BRANCH  25  26
ATOM     26  C   UNL     1       5.508   3.966  16.059  0.00  0.00    +0.000 C 
BRANCH  26  27
ATOM     27  C   UNL     1       4.520   3.095  16.844  0.00  0.00    +0.000 C 
BRANCH  27  28
ATOM     28  C   UNL     1       3.066   3.512  16.632  0.00  0.00    +0.000 C 
BRANCH  28  29
ATOM     29  O   UNL     1       2.209   2.635  17.363  0.00  0.00    +0.000 OA
BRANCH  29  33
ATOM     30  C   UNL     1       1.824   3.511  21.419  0.00  0.00    +0.000 A 
ATOM     31  C   UNL     1       0.959   4.047  20.468  0.00  0.00    +0.000 A 
ATOM     32  C   UNL     1       1.118   3.723  19.119  0.00  0.00    +0.000 A 
ATOM     33  C   UNL     1       2.150   2.879  18.711  0.00  0.00    +0.000 A 
ATOM     34  C   UNL     1       3.002   2.327  19.673  0.00  0.00    +0.000 A 
ATOM     35  C   UNL     1       2.841   2.646  21.023  0.00  0.00    +0.000 A 
ENDBRANCH  29  33
ENDBRANCH  28  29
ENDBRANCH  27  28
ENDBRANCH  26  27
ENDBRANCH  25  26
ENDBRANCH  24  25
ENDBRANCH  23  24
ENDBRANCH  22  23
ENDBRANCH   1  22
TORSDOF 11
ENDMDL
MODEL 5
REMARK VINA RESULT:      -7.9      3.448      5.298
REMARK  Name = 
REMARK  11 active torsions:
REMARK  status: ('A' for Active; 'I' for Inactive)
REMARK    1  A    between atoms: C_4  and  O_5
REMARK    2  A    between atoms: O_5  and  C_6
REMARK    3  A    between atoms: C_6  and  C_7
REMARK    4  A    between atoms: C_7  and  C_8
REMARK    5  A    between atoms: C_8  and  C_9
REMARK    6  A    between atoms: C_9  and  C_10
REMARK    7  A    between atoms: C_10  and  C_11
REMARK    8  A    between atoms: C_11  and  O_12
REMARK    9  A    between atoms: O_12  and  C_13
REMARK   10  A    between atoms: C_17  and  C_18
REMARK   11  A    between atoms: C_22  and  C_23
REMARK                            x       y       z     vdW  Elec       q    Type
REMARK                         _______ _______ _______ _____ _____    ______ ____
ROOT
ATOM      1  C   UNL     1       2.005   5.877  20.540  0.00  0.00    +0.000 A 
ATOM      2  C   UNL     1       2.821   6.002  19.415  0.00  0.00    +0.000 A 
ATOM      3  C   UNL     1       2.819   7.187  18.683  0.00  0.00    +0.000 A 
ATOM      4  C   UNL     1       2.031   8.249  19.104  0.00  0.00    +0.000 A 
ATOM      5  C   UNL     1       1.239   8.159  20.263  0.00  0.00    +0.000 A 
ATOM      6  C   UNL     1       1.214   6.951  20.961  0.00  0.00    +0.000 A 
ENDROOT
BRANCH   5   7
ATOM      7  C   UNL     1       0.527   9.345  20.732  0.00  0.00    +0.000 A 
ATOM      8  C   UNL     1       0.510   9.954  21.967  0.00  0.00    +0.000 A 
ATOM      9  C   UNL     1      -0.375  11.042  21.877  0.00  0.00    +0.000 A 
ATOM     10  C   UNL     1      -0.780  12.019  22.780  0.00  0.00    +0.000 A 
ATOM     11  C   UNL     1      -1.699  12.982  22.359  0.00  0.00    +0.000 A 
ATOM     12  C   UNL     1      -2.254  12.938  21.073  0.00  0.00    +0.000 A 
ATOM     13  C   UNL     1      -1.847  11.958  20.144  0.00  0.00    +0.000 A 
ATOM     14  C   UNL     1      -0.892  11.039  20.590  0.00  0.00    +0.000 A 
ATOM     15  O   UNL     1      -0.332  10.002  19.879  0.00  0.00    +0.000 OA
BRANCH  11  16
ATOM     16  C   UNL     1      -2.009  14.044  23.340  0.00  0.00    +0.000 C 
ATOM     17  N   UNL     1      -1.155  14.468  24.231  0.00  0.00    +0.000 NA
ATOM     18  C   UNL     1      -1.902  15.515  24.992  0.00  0.00    +0.000 C 
ATOM     19  C   UNL     1      -3.313  15.599  24.404  0.00  0.00    +0.000 C 
ATOM     20  N   UNL     1      -3.246  14.644  23.330  0.00  0.00    +0.000 N 
ATOM     21  H   UNL     1      -4.039  14.019  23.222  0.00  0.00    +0.000 HD
ENDBRANCH  11  16
ENDBRANCH   5   7
BRANCH   1  22
ATOM     22  O   UNL     1       2.113   4.681  21.204  0.00  0.00    +0.000 OA
BRANCH  22  23
ATOM     23  C   UNL     1       1.962   3.530  20.378  0.00  0.00    +0.000 C 
BRANCH  23  24
ATOM     24  C   UNL     1       3.221   2.675  20.479  0.00  0.00    +0.000 C 
BRANCH  24  25
ATOM     25  C   UNL     1       3.623   2.212  19.084  0.00  0.00    +0.000 C 
BRANCH  25  26
ATOM     26  C   UNL     1       2.539   2.469  18.040  0.00  0.00    +0.000 C 
BRANCH  26  27
ATOM     27  C   UNL     1       2.928   3.576  17.052  0.00  0.00    +0.000 C 
BRANCH  27  28
ATOM     28  C   UNL     1       4.435   3.647  16.808  0.00  0.00    +0.000 C 
BRANCH  28  29
ATOM     29  O   UNL     1       4.803   4.993  16.506  0.00  0.00    +0.000 OA
BRANCH  29  33
ATOM     30  C   UNL     1       7.961   6.695  18.627  0.00  0.00    +0.000 A 
ATOM     31  C   UNL     1       7.442   7.292  17.480  0.00  0.00    +0.000 A 
ATOM     32  C   UNL     1       6.379   6.692  16.802  0.00  0.00    +0.000 A 
ATOM     33  C   UNL     1       5.842   5.487  17.253  0.00  0.00    +0.000 A 
ATOM     34  C   UNL     1       6.352   4.904  18.417  0.00  0.00    +0.000 A 
ATOM     35  C   UNL     1       7.413   5.506  19.099  0.00  0.00    +0.000 A 
ENDBRANCH  29  33
ENDBRANCH  28  29
ENDBRANCH  27  28
ENDBRANCH  26  27
ENDBRANCH  25  26
ENDBRANCH  24  25
ENDBRANCH  23  24
ENDBRANCH  22  23
ENDBRANCH   1  22
TORSDOF 11
ENDMDL
MODEL 6
REMARK VINA RESULT:      -7.9      5.418     11.216
REMARK  Name = 
REMARK  11 active torsions:
REMARK  status: ('A' for Active; 'I' for Inactive)
REMARK    1  A    between atoms: C_4  and  O_5
REMARK    2  A    between atoms: O_5  and  C_6
REMARK    3  A    between atoms: C_6  and  C_7
REMARK    4  A    between atoms: C_7  and  C_8
REMARK    5  A    between atoms: C_8  and  C_9
REMARK    6  A    between atoms: C_9  and  C_10
REMARK    7  A    between atoms: C_10  and  C_11
REMARK    8  A    between atoms: C_11  and  O_12
REMARK    9  A    between atoms: O_12  and  C_13
REMARK   10  A    between atoms: C_17  and  C_18
REMARK   11  A    between atoms: C_22  and  C_23
REMARK                            x       y       z     vdW  Elec       q    Type
REMARK                         _______ _______ _______ _____ _____    ______ ____
ROOT
ATOM      1  C   UNL     1      -1.254  11.685  21.198  0.00  0.00    +0.000 A 
ATOM      2  C   UNL     1      -1.407  11.544  22.578  0.00  0.00    +0.000 A 
ATOM      3  C   UNL     1      -0.855  10.442  23.229  0.00  0.00    +0.000 A 
ATOM      4  C   UNL     1      -0.124   9.515  22.502  0.00  0.00    +0.000 A 
ATOM      5  C   UNL     1       0.083   9.666  21.119  0.00  0.00    +0.000 A 
ATOM      6  C   UNL     1      -0.514  10.748  20.470  0.00  0.00    +0.000 A 
ENDROOT
BRANCH   5   7
ATOM      7  C   UNL     1       0.965   8.731  20.424  0.00  0.00    +0.000 A 
ATOM      8  C   UNL     1       1.631   8.846  19.224  0.00  0.00    +0.000 A 
ATOM      9  C   UNL     1       2.311   7.634  19.014  0.00  0.00    +0.000 A 
ATOM     10  C   UNL     1       3.148   7.172  18.004  0.00  0.00    +0.000 A 
ATOM     11  C   UNL     1       3.670   5.882  18.102  0.00  0.00    +0.000 A 
ATOM     12  C   UNL     1       3.317   5.038  19.164  0.00  0.00    +0.000 A 
ATOM     13  C   UNL     1       2.475   5.494  20.199  0.00  0.00    +0.000 A 
ATOM     14  C   UNL     1       2.008   6.808  20.087  0.00  0.00    +0.000 A 
ATOM     15  O   UNL     1       1.188   7.483  20.962  0.00  0.00    +0.000 OA
BRANCH  11  16
ATOM     16  C   UNL     1       4.628   5.496  17.044  0.00  0.00    +0.000 C 
ATOM     17  N   UNL     1       4.905   6.251  16.017  0.00  0.00    +0.000 NA
ATOM     18  C   UNL     1       5.894   5.456  15.228  0.00  0.00    +0.000 C 
ATOM     19  C   UNL     1       6.115   4.130  15.959  0.00  0.00    +0.000 C 
ATOM     20  N   UNL     1       5.287   4.291  17.125  0.00  0.00    +0.000 N 
ATOM     21  H   UNL     1       4.718   3.494  17.397  0.00  0.00    +0.000 HD
ENDBRANCH  11  16
ENDBRANCH   5   7
BRANCH   1  22
ATOM     22  O   UNL     1      -1.808  12.823  20.667  0.00  0.00    +0.000 OA
BRANCH  22  23
ATOM     23  C   UNL     1      -3.079  12.632  20.052  0.00  0.00    +0.000 C 
BRANCH  23  24
ATOM     24  C   UNL     1      -4.174  13.031  21.034  0.00  0.00    +0.000 C 
BRANCH  24  25
ATOM     25  C   UNL     1      -5.223  13.859  20.301  0.00  0.00    +0.000 C 
BRANCH  25  26
ATOM     26  C   UNL     1      -6.395  13.019  19.798  0.00  0.00    +0.000 C 
BRANCH  26  27
ATOM     27  C   UNL     1      -6.922  13.503  18.442  0.00  0.00    +0.000 C 
BRANCH  27  28
ATOM     28  C   UNL     1      -6.218  12.834  17.261  0.00  0.00    +0.000 C 
BRANCH  28  29
ATOM     29  O   UNL     1      -5.935  11.473  17.587  0.00  0.00    +0.000 OA
BRANCH  29  33
ATOM     30  C   UNL     1      -2.177   9.973  16.587  0.00  0.00    +0.000 A 
ATOM     31  C   UNL     1      -2.871   9.525  17.709  0.00  0.00    +0.000 A 
ATOM     32  C   UNL     1      -4.131  10.049  18.006  0.00  0.00    +0.000 A 
ATOM     33  C   UNL     1      -4.696  11.033  17.196  0.00  0.00    +0.000 A 
ATOM     34  C   UNL     1      -4.005  11.464  16.060  0.00  0.00    +0.000 A 
ATOM     35  C   UNL     1      -2.746  10.937  15.759  0.00  0.00    +0.000 A 
ENDBRANCH  29  33
ENDBRANCH  28  29
ENDBRANCH  27  28
ENDBRANCH  26  27
ENDBRANCH  25  26
ENDBRANCH  24  25
ENDBRANCH  23  24
ENDBRANCH  22  23
ENDBRANCH   1  22
TORSDOF 11
ENDMDL
MODEL 7
REMARK VINA RESULT:      -7.9      1.119      1.705
REMARK  Name = 
REMARK  11 active torsions:
REMARK  status: ('A' for Active; 'I' for Inactive)
REMARK    1  A    between atoms: C_4  and  O_5
REMARK    2  A    between atoms: O_5  and  C_6
REMARK    3  A    between atoms: C_6  and  C_7
REMARK    4  A    between atoms: C_7  and  C_8
REMARK    5  A    between atoms: C_8  and  C_9
REMARK    6  A    between atoms: C_9  and  C_10
REMARK    7  A    between atoms: C_10  and  C_11
REMARK    8  A    between atoms: C_11  and  O_12
REMARK    9  A    between atoms: O_12  and  C_13
REMARK   10  A    between atoms: C_17  and  C_18
REMARK   11  A    between atoms: C_22  and  C_23
REMARK                            x       y       z     vdW  Elec       q    Type
REMARK                         _______ _______ _______ _____ _____    ______ ____
ROOT
ATOM      1  C   UNL     1       4.801   4.290  19.059  0.00  0.00    +0.000 A 
ATOM      2  C   UNL     1       3.991   3.162  18.918  0.00  0.00    +0.000 A 
ATOM      3  C   UNL     1       2.616   3.264  19.119  0.00  0.00    +0.000 A 
ATOM      4  C   UNL     1       2.060   4.499  19.421  0.00  0.00    +0.000 A 
ATOM      5  C   UNL     1       2.854   5.656  19.518  0.00  0.00    +0.000 A 
ATOM      6  C   UNL     1       4.235   5.532  19.360  0.00  0.00    +0.000 A 
ENDROOT
BRANCH   5   7
ATOM      7  C   UNL     1       2.205   6.951  19.712  0.00  0.00    +0.000 A 
ATOM      8  C   UNL     1       1.491   7.449  20.779  0.00  0.00    +0.000 A 
ATOM      9  C   UNL     1       1.060   8.737  20.420  0.00  0.00    +0.000 A 
ATOM     10  C   UNL     1       0.328   9.716  21.082  0.00  0.00    +0.000 A 
ATOM     11  C   UNL     1       0.064  10.918  20.423  0.00  0.00    +0.000 A 
ATOM     12  C   UNL     1       0.474  11.120  19.098  0.00  0.00    +0.000 A 
ATOM     13  C   UNL     1       1.223  10.139  18.416  0.00  0.00    +0.000 A 
ATOM     14  C   UNL     1       1.504   8.968  19.126  0.00  0.00    +0.000 A 
ATOM     15  O   UNL     1       2.218   7.875  18.691  0.00  0.00    +0.000 OA
BRANCH  11  16
ATOM     16  C   UNL     1      -0.632  11.949  21.222  0.00  0.00    +0.000 C 
ATOM     17  N   UNL     1      -0.084  12.563  22.234  0.00  0.00    +0.000 NA
ATOM     18  C   UNL     1      -1.150  13.487  22.728  0.00  0.00    +0.000 C 
ATOM     19  C   UNL     1      -2.387  13.282  21.852  0.00  0.00    +0.000 C 
ATOM     20  N   UNL     1      -1.921  12.307  20.900  0.00  0.00    +0.000 N 
ATOM     21  H   UNL     1      -2.551  11.542  20.681  0.00  0.00    +0.000 HD
ENDBRANCH  11  16
ENDBRANCH   5   7
BRANCH   1  22
ATOM     22  O   UNL     1       6.134   4.081  18.804  0.00  0.00    +0.000 OA
BRANCH  22  23
ATOM     23  C   UNL     1       6.890   5.270  18.595  0.00  0.00    +0.000 C 
BRANCH  23  24
ATOM     24  C   UNL     1       6.857   5.627  17.113  0.00  0.00    +0.000 C 
BRANCH  24  25
ATOM     25  C   UNL     1       7.542   6.973  16.910  0.00  0.00    +0.000 C 
BRANCH  25  26
ATOM     26  C   UNL     1       7.856   7.682  18.225  0.00  0.00    +0.000 C 
BRANCH  26  27
ATOM     27  C   UNL     1       8.217   9.159  18.023  0.00  0.00    +0.000 C 
BRANCH  27  28
ATOM     28  C   UNL     1       9.282   9.646  19.004  0.00  0.00    +0.000 C 
BRANCH  28  29
ATOM     29  O   UNL     1       9.053  11.023  19.307  0.00  0.00    +0.000 OA
BRANCH  29  33
ATOM     30  C   UNL     1      12.248  13.644  18.769  0.00  0.00    +0.000 A 
ATOM     31  C   UNL     1      11.440  13.696  19.903  0.00  0.00    +0.000 A 
ATOM     32  C   UNL     1      10.383  12.795  20.047  0.00  0.00    +0.000 A 
ATOM     33  C   UNL     1      10.116  11.852  19.056  0.00  0.00    +0.000 A 
ATOM     34  C   UNL     1      10.944  11.790  17.931  0.00  0.00    +0.000 A 
ATOM     35  C   UNL     1      12.005  12.688  17.787  0.00  0.00    +0.000 A 
ENDBRANCH  29  33
ENDBRANCH  28  29
ENDBRANCH  27  28
ENDBRANCH  26  27
ENDBRANCH  25  26
ENDBRANCH  24  25
ENDBRANCH  23  24
ENDBRANCH  22  23
ENDBRANCH   1  22
TORSDOF 11
ENDMDL
MODEL 8
REMARK VINA RESULT:      -7.8      1.541      2.039
REMARK  Name = 
REMARK  11 active torsions:
REMARK  status: ('A' for Active; 'I' for Inactive)
REMARK    1  A    between atoms: C_4  and  O_5
REMARK    2  A    between atoms: O_5  and  C_6
REMARK    3  A    between atoms: C_6  and  C_7
REMARK    4  A    between atoms: C_7  and  C_8
REMARK    5  A    between atoms: C_8  and  C_9
REMARK    6  A    between atoms: C_9  and  C_10
REMARK    7  A    between atoms: C_10  and  C_11
REMARK    8  A    between atoms: C_11  and  O_12
REMARK    9  A    between atoms: O_12  and  C_13
REMARK   10  A    between atoms: C_17  and  C_18
REMARK   11  A    between atoms: C_22  and  C_23
REMARK                            x       y       z     vdW  Elec       q    Type
REMARK                         _______ _______ _______ _____ _____    ______ ____
ROOT
ATOM      1  C   UNL     1       5.388   4.679  18.499  0.00  0.00    +0.000 A 
ATOM      2  C   UNL     1       4.793   3.723  17.675  0.00  0.00    +0.000 A 
ATOM      3  C   UNL     1       3.441   3.825  17.355  0.00  0.00    +0.000 A 
ATOM      4  C   UNL     1       2.707   4.903  17.830  0.00  0.00    +0.000 A 
ATOM      5  C   UNL     1       3.301   5.902  18.621  0.00  0.00    +0.000 A 
ATOM      6  C   UNL     1       4.644   5.763  18.973  0.00  0.00    +0.000 A 
ENDROOT
BRANCH   5   7
ATOM      7  C   UNL     1       2.517   7.079  18.990  0.00  0.00    +0.000 A 
ATOM      8  C   UNL     1       1.846   7.385  20.152  0.00  0.00    +0.000 A 
ATOM      9  C   UNL     1       1.228   8.631  19.955  0.00  0.00    +0.000 A 
ATOM     10  C   UNL     1       0.442   9.446  20.764  0.00  0.00    +0.000 A 
ATOM     11  C   UNL     1      -0.026  10.654  20.247  0.00  0.00    +0.000 A 
ATOM     12  C   UNL     1       0.235  11.022  18.920  0.00  0.00    +0.000 A 
ATOM     13  C   UNL     1       1.036  10.211  18.090  0.00  0.00    +0.000 A 
ATOM     14  C   UNL     1       1.522   9.029  18.659  0.00  0.00    +0.000 A 
ATOM     15  O   UNL     1       2.324   8.081  18.065  0.00  0.00    +0.000 OA
BRANCH  11  16
ATOM     16  C   UNL     1      -0.770  11.512  21.194  0.00  0.00    +0.000 C 
ATOM     17  N   UNL     1      -1.476  12.545  20.823  0.00  0.00    +0.000 NA
ATOM     18  C   UNL     1      -2.023  13.097  22.100  0.00  0.00    +0.000 C 
ATOM     19  C   UNL     1      -1.499  12.228  23.245  0.00  0.00    +0.000 C 
ATOM     20  N   UNL     1      -0.747  11.224  22.539  0.00  0.00    +0.000 N 
ATOM     21  H   UNL     1       0.160  10.976  22.922  0.00  0.00    +0.000 HD
ENDBRANCH  11  16
ENDBRANCH   5   7
BRANCH   1  22
ATOM     22  O   UNL     1       6.731   4.498  18.720  0.00  0.00    +0.000 OA
BRANCH  22  23
ATOM     23  C   UNL     1       7.569   4.915  17.646  0.00  0.00    +0.000 C 
BRANCH  23  24
ATOM     24  C   UNL     1       7.264   6.371  17.311  0.00  0.00    +0.000 C 
BRANCH  24  25
ATOM     25  C   UNL     1       8.033   7.274  18.267  0.00  0.00    +0.000 C 
BRANCH  25  26
ATOM     26  C   UNL     1       8.132   8.714  17.769  0.00  0.00    +0.000 C 
BRANCH  26  27
ATOM     27  C   UNL     1       8.800   9.643  18.791  0.00  0.00    +0.000 C 
BRANCH  27  28
ATOM     28  C   UNL     1       9.534  10.812  18.136  0.00  0.00    +0.000 C 
BRANCH  28  29
ATOM     29  O   UNL     1       8.815  12.021  18.382  0.00  0.00    +0.000 OA
BRANCH  29  33
ATOM     30  C   UNL     1      10.794  14.630  20.959  0.00  0.00    +0.000 A 
ATOM     31  C   UNL     1      11.342  14.252  19.736  0.00  0.00    +0.000 A 
ATOM     32  C   UNL     1      10.643  13.380  18.898  0.00  0.00    +0.000 A 
ATOM     33  C   UNL     1       9.406  12.868  19.284  0.00  0.00    +0.000 A 
ATOM     34  C   UNL     1       8.851  13.268  20.504  0.00  0.00    +0.000 A 
ATOM     35  C   UNL     1       9.547  14.144  21.341  0.00  0.00    +0.000 A 
ENDBRANCH  29  33
ENDBRANCH  28  29
ENDBRANCH  27  28
ENDBRANCH  26  27
ENDBRANCH  25  26
ENDBRANCH  24  25
ENDBRANCH  23  24
ENDBRANCH  22  23
ENDBRANCH   1  22
TORSDOF 11
ENDMDL
MODEL 9
REMARK VINA RESULT:      -7.7      4.030      5.976
REMARK  Name = 
REMARK  11 active torsions:
REMARK  status: ('A' for Active; 'I' for Inactive)
REMARK    1  A    between atoms: C_4  and  O_5
REMARK    2  A    between atoms: O_5  and  C_6
REMARK    3  A    between atoms: C_6  and  C_7
REMARK    4  A    between atoms: C_7  and  C_8
REMARK    5  A    between atoms: C_8  and  C_9
REMARK    6  A    between atoms: C_9  and  C_10
REMARK    7  A    between atoms: C_10  and  C_11
REMARK    8  A    between atoms: C_11  and  O_12
REMARK    9  A    between atoms: O_12  and  C_13
REMARK   10  A    between atoms: C_17  and  C_18
REMARK   11  A    between atoms: C_22  and  C_23
REMARK                            x       y       z     vdW  Elec       q    Type
REMARK                         _______ _______ _______ _____ _____    ______ ____
ROOT
ATOM      1  C   UNL     1       2.500   6.951  19.583  0.00  0.00    +0.000 A 
ATOM      2  C   UNL     1       2.643   7.085  18.201  0.00  0.00    +0.000 A 
ATOM      3  C   UNL     1       2.088   8.184  17.548  0.00  0.00    +0.000 A 
ATOM      4  C   UNL     1       1.431   9.157  18.287  0.00  0.00    +0.000 A 
ATOM      5  C   UNL     1       1.320   9.064  19.686  0.00  0.00    +0.000 A 
ATOM      6  C   UNL     1       1.838   7.936  20.323  0.00  0.00    +0.000 A 
ENDROOT
BRANCH   5   7
ATOM      7  C   UNL     1       0.730  10.175  20.429  0.00  0.00    +0.000 A 
ATOM      8  C   UNL     1       0.996  11.526  20.391  0.00  0.00    +0.000 A 
ATOM      9  C   UNL     1       0.161  12.137  21.341  0.00  0.00    +0.000 A 
ATOM     10  C   UNL     1      -0.029  13.457  21.735  0.00  0.00    +0.000 A 
ATOM     11  C   UNL     1      -0.964  13.731  22.736  0.00  0.00    +0.000 A 
ATOM     12  C   UNL     1      -1.658  12.698  23.378  0.00  0.00    +0.000 A 
ATOM     13  C   UNL     1      -1.482  11.355  22.984  0.00  0.00    +0.000 A 
ATOM     14  C   UNL     1      -0.570  11.127  21.949  0.00  0.00    +0.000 A 
ATOM     15  O   UNL     1      -0.230   9.919  21.383  0.00  0.00    +0.000 OA
BRANCH  11  16
ATOM     16  C   UNL     1      -1.183  15.163  23.033  0.00  0.00    +0.000 C 
ATOM     17  N   UNL     1      -2.320  15.770  22.835  0.00  0.00    +0.000 NA
ATOM     18  C   UNL     1      -2.066  17.181  23.259  0.00  0.00    +0.000 C 
ATOM     19  C   UNL     1      -0.606  17.276  23.707  0.00  0.00    +0.000 C 
ATOM     20  N   UNL     1      -0.159  15.916  23.558  0.00  0.00    +0.000 N 
ATOM     21  H   UNL     1       0.754  15.777  23.134  0.00  0.00    +0.000 HD
ENDBRANCH  11  16
ENDBRANCH   5   7
BRANCH   1  22
ATOM     22  O   UNL     1       3.115   5.850  20.124  0.00  0.00    +0.000 OA
BRANCH  22  23
ATOM     23  C   UNL     1       2.268   5.035  20.929  0.00  0.00    +0.000 C 
BRANCH  23  24
ATOM     24  C   UNL     1       0.917   4.885  20.239  0.00  0.00    +0.000 C 
BRANCH  24  25
ATOM     25  C   UNL     1       0.848   3.520  19.568  0.00  0.00    +0.000 C 
BRANCH  25  26
ATOM     26  C   UNL     1       1.400   3.532  18.144  0.00  0.00    +0.000 C 
BRANCH  26  27
ATOM     27  C   UNL     1       2.354   2.362  17.875  0.00  0.00    +0.000 C 
BRANCH  27  28
ATOM     28  C   UNL     1       3.782   2.646  18.339  0.00  0.00    +0.000 C 
BRANCH  28  29
ATOM     29  O   UNL     1       4.609   2.899  17.203  0.00  0.00    +0.000 OA
BRANCH  29  33
ATOM     30  C   UNL     1       6.101   6.790  17.116  0.00  0.00    +0.000 A 
ATOM     31  C   UNL     1       6.252   5.971  18.233  0.00  0.00    +0.000 A 
ATOM     32  C   UNL     1       5.742   4.671  18.220  0.00  0.00    +0.000 A 
ATOM     33  C   UNL     1       5.066   4.188  17.100  0.00  0.00    +0.000 A 
ATOM     34  C   UNL     1       4.936   5.007  15.974  0.00  0.00    +0.000 A 
ATOM     35  C   UNL     1       5.450   6.306  15.984  0.00  0.00    +0.000 A 
ENDBRANCH  29  33
ENDBRANCH  28  29
ENDBRANCH  27  28
ENDBRANCH  26  27
ENDBRANCH  25  26
ENDBRANCH  24  25
ENDBRANCH  23  24
ENDBRANCH  22  23
ENDBRANCH   1  22
TORSDOF 11
ENDMDL
