MODEL 1
REMARK VINA RESULT:      -6.8      0.000      0.000
REMARK  Name = 
REMARK  9 active torsions:
REMARK  status: ('A' for Active; 'I' for Inactive)
REMARK    1  A    between atoms: C_1  and  O_2
REMARK    2  A    between atoms: O_2  and  C_3
REMARK    3  A    between atoms: C_5  and  C_6
REMARK    4  A    between atoms: C_7  and  C_8
REMARK    5  A    between atoms: C_8  and  N_9
REMARK    6  A    between atoms: C_16  and  C_17
REMARK    7  A    between atoms: C_17  and  O_18
REMARK    8  A    between atoms: C_17  and  C_19
REMARK    9  A    between atoms: C_29  and  C_30
REMARK                            x       y       z     vdW  Elec       q    Type
REMARK                         _______ _______ _______ _____ _____    ______ ____
ROOT
ATOM      1  N   UNL     1       0.299  11.820  19.215  0.00  0.00    +0.000 NA
ATOM      2  C   UNL     1       1.562  12.970  18.574  0.00  0.00    +0.000 C 
ATOM      3  C   UNL     1       1.606  14.915  18.673  0.00  0.00    +0.000 C 
ATOM      4  O   UNL     1       0.105  15.894  19.142  0.00  0.00    +0.000 OA
ATOM      5  C   UNL     1      -1.225  15.418  20.128  0.00  0.00    +0.000 A 
ATOM      6  C   UNL     1      -1.552  16.421  21.036  0.00  0.00    +0.000 A 
ATOM      7  C   UNL     1      -2.240  16.005  22.201  0.00  0.00    +0.000 A 
ATOM      8  C   UNL     1      -2.757  14.680  22.408  0.00  0.00    +0.000 A 
ATOM      9  C   UNL     1      -2.646  13.690  21.431  0.00  0.00    +0.000 A 
ATOM     10  C   UNL     1      -1.796  13.913  20.361  0.00  0.00    +0.000 A 
ATOM     11  C   UNL     1      -1.341  12.337  19.685  0.00  0.00    +0.000 C 
ENDROOT
BRANCH   1  12
ATOM     12  C   UNL     1       0.798  11.464  20.519  0.00  0.00    +0.000 C 
BRANCH  12  17
ATOM     13  C   UNL     1       1.918   7.359  20.066  0.00  0.00    +0.000 A 
ATOM     14  C   UNL     1       1.290   7.834  21.240  0.00  0.00    +0.000 A 
ATOM     15  C   UNL     1       0.636   9.172  21.494  0.00  0.00    +0.000 A 
ATOM     16  C   UNL     1      -0.465   9.726  23.101  0.00  0.00    +0.000 C 
ATOM     17  C   UNL     1       0.976  10.010  20.381  0.00  0.00    +0.000 A 
ATOM     18  C   UNL     1       1.603   9.543  19.179  0.00  0.00    +0.000 A 
ATOM     19  C   UNL     1       2.047   8.227  19.005  0.00  0.00    +0.000 A 
ATOM     20  C   UNL     1       2.689   7.756  17.732  0.00  0.00    +0.000 C 
BRANCH  13  22
ATOM     21  C   UNL     1       1.843   5.014  20.625  0.00  0.00    +0.000 C 
ATOM     22  O   UNL     1       2.422   6.097  19.897  0.00  0.00    +0.000 OA
ENDBRANCH  13  22
ENDBRANCH  12  17
ENDBRANCH   1  12
BRANCH   8  23
ATOM     23  C   UNL     1      -3.286  14.207  23.757  0.00  0.00    +0.000 C 
BRANCH  23  24
ATOM     24  C   UNL     1      -4.753  13.900  23.836  0.00  0.00    +0.000 A 
ATOM     25  C   UNL     1      -5.704  14.923  23.717  0.00  0.00    +0.000 A 
ATOM     26  C   UNL     1      -7.052  14.619  23.841  0.00  0.00    +0.000 A 
ATOM     27  C   UNL     1      -7.405  13.306  24.109  0.00  0.00    +0.000 A 
ATOM     28  N   UNL     1      -6.525  12.308  24.276  0.00  0.00    +0.000 NA
ATOM     29  C   UNL     1      -5.215  12.624  24.148  0.00  0.00    +0.000 A 
ENDBRANCH  23  24
BRANCH  23  30
ATOM     30  O   UNL     1      -2.911  15.151  24.765  0.00  0.00    +0.000 OA
ATOM     31  H   UNL     1      -2.401  15.859  24.335  0.00  0.00    +0.000 HD
ENDBRANCH  23  30
ENDBRANCH   8  23
TORSDOF 6
ENDMDL
MODEL 2
REMARK VINA RESULT:      -6.8      4.445     11.785
REMARK  Name = 
REMARK  9 active torsions:
REMARK  status: ('A' for Active; 'I' for Inactive)
REMARK    1  A    between atoms: C_1  and  O_2
REMARK    2  A    between atoms: O_2  and  C_3
REMARK    3  A    between atoms: C_5  and  C_6
REMARK    4  A    between atoms: C_7  and  C_8
REMARK    5  A    between atoms: C_8  and  N_9
REMARK    6  A    between atoms: C_16  and  C_17
REMARK    7  A    between atoms: C_17  and  O_18
REMARK    8  A    between atoms: C_17  and  C_19
REMARK    9  A    between atoms: C_29  and  C_30
REMARK                            x       y       z     vdW  Elec       q    Type
REMARK                         _______ _______ _______ _____ _____    ______ ____
ROOT
ATOM      1  N   UNL     1       1.117   5.642  19.609  0.00  0.00    +0.000 NA
ATOM      2  C   UNL     1       0.913   4.315  20.843  0.00  0.00    +0.000 C 
ATOM      3  C   UNL     1       1.649   2.511  20.831  0.00  0.00    +0.000 C 
ATOM      4  O   UNL     1       2.390   1.779  19.299  0.00  0.00    +0.000 OA
ATOM      5  C   UNL     1       3.139   2.586  17.975  0.00  0.00    +0.000 A 
ATOM      6  C   UNL     1       4.322   1.948  17.612  0.00  0.00    +0.000 A 
ATOM      7  C   UNL     1       5.273   2.741  16.926  0.00  0.00    +0.000 A 
ATOM      8  C   UNL     1       5.021   4.072  16.446  0.00  0.00    +0.000 A 
ATOM      9  C   UNL     1       3.774   4.681  16.593  0.00  0.00    +0.000 A 
ATOM     10  C   UNL     1       2.853   4.097  17.446  0.00  0.00    +0.000 A 
ATOM     11  C   UNL     1       1.703   5.349  17.951  0.00  0.00    +0.000 C 
ENDROOT
BRANCH   1  12
ATOM     12  C   UNL     1       2.239   6.397  20.107  0.00  0.00    +0.000 C 
BRANCH  12  17
ATOM     13  C   UNL     1       0.848  10.286  21.223  0.00  0.00    +0.000 A 
ATOM     14  C   UNL     1       1.486  10.051  19.984  0.00  0.00    +0.000 A 
ATOM     15  C   UNL     1       1.842   8.736  19.332  0.00  0.00    +0.000 A 
ATOM     16  C   UNL     1       2.533   8.434  17.452  0.00  0.00    +0.000 C 
ATOM     17  C   UNL     1       1.632   7.720  20.323  0.00  0.00    +0.000 A 
ATOM     18  C   UNL     1       0.978   7.939  21.578  0.00  0.00    +0.000 A 
ATOM     19  C   UNL     1       0.562   9.201  22.020  0.00  0.00    +0.000 A 
ATOM     20  C   UNL     1      -0.134   9.404  23.334  0.00  0.00    +0.000 C 
BRANCH  13  22
ATOM     21  C   UNL     1      -0.408  12.327  20.952  0.00  0.00    +0.000 C 
ATOM     22  O   UNL     1       0.494  11.518  21.707  0.00  0.00    +0.000 OA
ENDBRANCH  13  22
ENDBRANCH  12  17
ENDBRANCH   1  12
BRANCH   8  23
ATOM     23  C   UNL     1       6.129   4.977  15.919  0.00  0.00    +0.000 C 
BRANCH  23  24
ATOM     24  C   UNL     1       6.917   5.743  16.941  0.00  0.00    +0.000 A 
ATOM     25  C   UNL     1       7.346   5.125  18.123  0.00  0.00    +0.000 A 
ATOM     26  C   UNL     1       8.032   5.868  19.073  0.00  0.00    +0.000 A 
ATOM     27  C   UNL     1       8.240   7.215  18.824  0.00  0.00    +0.000 A 
ATOM     28  N   UNL     1       7.806   7.855  17.728  0.00  0.00    +0.000 NA
ATOM     29  C   UNL     1       7.142   7.111  16.813  0.00  0.00    +0.000 A 
ENDBRANCH  23  24
BRANCH  23  30
ATOM     30  O   UNL     1       5.584   5.861  14.933  0.00  0.00    +0.000 OA
ATOM     31  H   UNL     1       5.355   5.329  14.152  0.00  0.00    +0.000 HD
ENDBRANCH  23  30
ENDBRANCH   8  23
TORSDOF 6
ENDMDL
MODEL 3
REMARK VINA RESULT:      -6.7      1.263      1.461
REMARK  Name = 
REMARK  9 active torsions:
REMARK  status: ('A' for Active; 'I' for Inactive)
REMARK    1  A    between atoms: C_1  and  O_2
REMARK    2  A    between atoms: O_2  and  C_3
REMARK    3  A    between atoms: C_5  and  C_6
REMARK    4  A    between atoms: C_7  and  C_8
REMARK    5  A    between atoms: C_8  and  N_9
REMARK    6  A    between atoms: C_16  and  C_17
REMARK    7  A    between atoms: C_17  and  O_18
REMARK    8  A    between atoms: C_17  and  C_19
REMARK    9  A    between atoms: C_29  and  C_30
REMARK                            x       y       z     vdW  Elec       q    Type
REMARK                         _______ _______ _______ _____ _____    ______ ____
ROOT
ATOM      1  N   UNL     1       0.863  10.877  18.808  0.00  0.00    +0.000 NA
ATOM      2  C   UNL     1       2.104  12.151  18.402  0.00  0.00    +0.000 C 
ATOM      3  C   UNL     1       1.957  14.088  18.542  0.00  0.00    +0.000 C 
ATOM      4  O   UNL     1       0.318  14.920  18.779  0.00  0.00    +0.000 OA
ATOM      5  C   UNL     1      -1.105  14.299  19.525  0.00  0.00    +0.000 A 
ATOM      6  C   UNL     1      -1.663  15.240  20.386  0.00  0.00    +0.000 A 
ATOM      7  C   UNL     1      -2.489  14.730  21.415  0.00  0.00    +0.000 A 
ATOM      8  C   UNL     1      -2.911  13.360  21.511  0.00  0.00    +0.000 A 
ATOM      9  C   UNL     1      -2.557  12.415  20.547  0.00  0.00    +0.000 A 
ATOM     10  C   UNL     1      -1.568  12.744  19.635  0.00  0.00    +0.000 A 
ATOM     11  C   UNL     1      -0.871  11.236  19.014  0.00  0.00    +0.000 C 
ENDROOT
BRANCH   1  12
ATOM     12  C   UNL     1       1.175  10.522  20.169  0.00  0.00    +0.000 C 
BRANCH  12  17
ATOM     13  C   UNL     1       2.157   6.365  19.917  0.00  0.00    +0.000 A 
ATOM     14  C   UNL     1       1.397   6.887  20.989  0.00  0.00    +0.000 A 
ATOM     15  C   UNL     1       0.777   8.256  21.137  0.00  0.00    +0.000 A 
ATOM     16  C   UNL     1      -0.506   8.885  22.572  0.00  0.00    +0.000 C 
ATOM     17  C   UNL     1       1.304   9.059  20.072  0.00  0.00    +0.000 A 
ATOM     18  C   UNL     1       2.066   8.546  18.972  0.00  0.00    +0.000 A 
ATOM     19  C   UNL     1       2.468   7.208  18.874  0.00  0.00    +0.000 A 
ATOM     20  C   UNL     1       3.255   6.688  17.706  0.00  0.00    +0.000 C 
BRANCH  13  22
ATOM     21  C   UNL     1       2.297   4.153  20.869  0.00  0.00    +0.000 C 
ATOM     22  O   UNL     1       2.620   5.079  19.832  0.00  0.00    +0.000 OA
ENDBRANCH  13  22
ENDBRANCH  12  17
ENDBRANCH   1  12
BRANCH   8  23
ATOM     23  C   UNL     1      -3.606  12.799  22.747  0.00  0.00    +0.000 C 
BRANCH  23  24
ATOM     24  C   UNL     1      -5.104  12.866  22.767  0.00  0.00    +0.000 A 
ATOM     25  C   UNL     1      -5.800  12.970  23.979  0.00  0.00    +0.000 A 
ATOM     26  C   UNL     1      -7.187  12.983  23.972  0.00  0.00    +0.000 A 
ATOM     27  C   UNL     1      -7.837  12.862  22.754  0.00  0.00    +0.000 A 
ATOM     28  N   UNL     1      -7.210  12.715  21.577  0.00  0.00    +0.000 NA
ATOM     29  C   UNL     1      -5.857  12.707  21.606  0.00  0.00    +0.000 A 
ENDBRANCH  23  24
BRANCH  23  30
ATOM     30  O   UNL     1      -3.055  13.416  23.915  0.00  0.00    +0.000 OA
ATOM     31  H   UNL     1      -3.483  14.283  24.023  0.00  0.00    +0.000 HD
ENDBRANCH  23  30
ENDBRANCH   8  23
TORSDOF 6
ENDMDL
MODEL 4
REMARK VINA RESULT:      -6.7      1.008      1.052
REMARK  Name = 
REMARK  9 active torsions:
REMARK  status: ('A' for Active; 'I' for Inactive)
REMARK    1  A    between atoms: C_1  and  O_2
REMARK    2  A    between atoms: O_2  and  C_3
REMARK    3  A    between atoms: C_5  and  C_6
REMARK    4  A    between atoms: C_7  and  C_8
REMARK    5  A    between atoms: C_8  and  N_9
REMARK    6  A    between atoms: C_16  and  C_17
REMARK    7  A    between atoms: C_17  and  O_18
REMARK    8  A    between atoms: C_17  and  C_19
REMARK    9  A    between atoms: C_29  and  C_30
REMARK                            x       y       z     vdW  Elec       q    Type
REMARK                         _______ _______ _______ _____ _____    ______ ____
ROOT
ATOM      1  N   UNL     1       0.757  10.969  18.954  0.00  0.00    +0.000 NA
ATOM      2  C   UNL     1       2.064  11.982  18.184  0.00  0.00    +0.000 C 
ATOM      3  C   UNL     1       2.260  13.920  18.173  0.00  0.00    +0.000 C 
ATOM      4  O   UNL     1       0.867  15.037  18.667  0.00  0.00    +0.000 OA
ATOM      5  C   UNL     1      -0.437  14.717  19.746  0.00  0.00    +0.000 A 
ATOM      6  C   UNL     1      -0.635  15.787  20.614  0.00  0.00    +0.000 A 
ATOM      7  C   UNL     1      -1.284  15.487  21.835  0.00  0.00    +0.000 A 
ATOM      8  C   UNL     1      -1.887  14.219  22.142  0.00  0.00    +0.000 A 
ATOM      9  C   UNL     1      -1.907  13.174  21.217  0.00  0.00    +0.000 A 
ATOM     10  C   UNL     1      -1.105  13.275  20.093  0.00  0.00    +0.000 A 
ATOM     11  C   UNL     1      -0.810  11.636  19.482  0.00  0.00    +0.000 C 
ENDROOT
BRANCH   1  12
ATOM     12  C   UNL     1       1.301  10.641  20.248  0.00  0.00    +0.000 C 
BRANCH  12  17
ATOM     13  C   UNL     1       1.919   6.409  20.145  0.00  0.00    +0.000 A 
ATOM     14  C   UNL     1       1.219   7.034  21.202  0.00  0.00    +0.000 A 
ATOM     15  C   UNL     1       0.721   8.456  21.303  0.00  0.00    +0.000 A 
ATOM     16  C   UNL     1      -0.489   9.246  22.723  0.00  0.00    +0.000 C 
ATOM     17  C   UNL     1       1.303   9.171  20.204  0.00  0.00    +0.000 A 
ATOM     18  C   UNL     1       2.006   8.553  19.120  0.00  0.00    +0.000 A 
ATOM     19  C   UNL     1       2.292   7.183  19.069  0.00  0.00    +0.000 A 
ATOM     20  C   UNL     1       3.018   6.554  17.916  0.00  0.00    +0.000 C 
BRANCH  13  22
ATOM     21  C   UNL     1       1.248   4.093  20.198  0.00  0.00    +0.000 C 
ATOM     22  O   UNL     1       2.270   5.085  20.105  0.00  0.00    +0.000 OA
ENDBRANCH  13  22
ENDBRANCH  12  17
ENDBRANCH   1  12
BRANCH   8  23
ATOM     23  C   UNL     1      -2.372  13.858  23.542  0.00  0.00    +0.000 C 
BRANCH  23  24
ATOM     24  C   UNL     1      -3.822  13.498  23.680  0.00  0.00    +0.000 A 
ATOM     25  C   UNL     1      -4.819  14.337  23.164  0.00  0.00    +0.000 A 
ATOM     26  C   UNL     1      -6.153  14.004  23.348  0.00  0.00    +0.000 A 
ATOM     27  C   UNL     1      -6.449  12.858  24.068  0.00  0.00    +0.000 A 
ATOM     28  N   UNL     1      -5.527  12.054  24.617  0.00  0.00    +0.000 NA
ATOM     29  C   UNL     1      -4.231  12.395  24.424  0.00  0.00    +0.000 A 
ENDBRANCH  23  24
BRANCH  23  30
ATOM     30  O   UNL     1      -2.022  14.912  24.445  0.00  0.00    +0.000 OA
ATOM     31  H   UNL     1      -2.563  15.688  24.220  0.00  0.00    +0.000 HD
ENDBRANCH  23  30
ENDBRANCH   8  23
TORSDOF 6
ENDMDL
MODEL 5
REMARK VINA RESULT:      -6.7      2.848      8.114
REMARK  Name = 
REMARK  9 active torsions:
REMARK  status: ('A' for Active; 'I' for Inactive)
REMARK    1  A    between atoms: C_1  and  O_2
REMARK    2  A    between atoms: O_2  and  C_3
REMARK    3  A    between atoms: C_5  and  C_6
REMARK    4  A    between atoms: C_7  and  C_8
REMARK    5  A    between atoms: C_8  and  N_9
REMARK    6  A    between atoms: C_16  and  C_17
REMARK    7  A    between atoms: C_17  and  O_18
REMARK    8  A    between atoms: C_17  and  C_19
REMARK    9  A    between atoms: C_29  and  C_30
REMARK                            x       y       z     vdW  Elec       q    Type
REMARK                         _______ _______ _______ _____ _____    ______ ____
ROOT
ATOM      1  N   UNL     1      -3.796  13.421  21.329  0.00  0.00    +0.000 NA
ATOM      2  C   UNL     1      -5.470  12.699  21.261  0.00  0.00    +0.000 C 
ATOM      3  C   UNL     1      -6.197  11.418  19.986  0.00  0.00    +0.000 C 
ATOM      4  O   UNL     1      -5.329  11.039  18.394  0.00  0.00    +0.000 OA
ATOM      5  C   UNL     1      -3.646  11.131  18.038  0.00  0.00    +0.000 A 
ATOM      6  C   UNL     1      -3.224  10.000  17.344  0.00  0.00    +0.000 A 
ATOM      7  C   UNL     1      -1.845   9.694  17.432  0.00  0.00    +0.000 A 
ATOM      8  C   UNL     1      -0.861  10.553  18.031  0.00  0.00    +0.000 A 
ATOM      9  C   UNL     1      -1.199  11.804  18.550  0.00  0.00    +0.000 A 
ATOM     10  C   UNL     1      -2.539  12.102  18.729  0.00  0.00    +0.000 A 
ATOM     11  C   UNL     1      -2.658  13.376  19.957  0.00  0.00    +0.000 C 
ENDROOT
BRANCH   1  12
ATOM     12  C   UNL     1      -3.087  12.546  22.229  0.00  0.00    +0.000 C 
BRANCH  12  17
ATOM     13  C   UNL     1      -1.885  15.724  24.829  0.00  0.00    +0.000 A 
ATOM     14  C   UNL     1      -3.007  14.913  25.115  0.00  0.00    +0.000 A 
ATOM     15  C   UNL     1      -3.449  13.633  24.446  0.00  0.00    +0.000 A 
ATOM     16  C   UNL     1      -4.920  12.372  25.038  0.00  0.00    +0.000 C 
ATOM     17  C   UNL     1      -2.643  13.488  23.269  0.00  0.00    +0.000 A 
ATOM     18  C   UNL     1      -1.497  14.294  22.969  0.00  0.00    +0.000 A 
ATOM     19  C   UNL     1      -1.098  15.385  23.752  0.00  0.00    +0.000 A 
ATOM     20  C   UNL     1       0.115  16.207  23.427  0.00  0.00    +0.000 C 
BRANCH  13  22
ATOM     21  C   UNL     1      -0.889  16.672  26.811  0.00  0.00    +0.000 C 
ATOM     22  O   UNL     1      -1.515  16.836  25.539  0.00  0.00    +0.000 OA
ENDBRANCH  13  22
ENDBRANCH  12  17
ENDBRANCH   1  12
BRANCH   8  23
ATOM     23  C   UNL     1       0.566  10.096  18.313  0.00  0.00    +0.000 C 
BRANCH  23  24
ATOM     24  C   UNL     1       0.890   9.735  19.732  0.00  0.00    +0.000 A 
ATOM     25  C   UNL     1       1.201   8.414  20.081  0.00  0.00    +0.000 A 
ATOM     26  C   UNL     1       1.451   8.098  21.409  0.00  0.00    +0.000 A 
ATOM     27  C   UNL     1       1.351   9.109  22.351  0.00  0.00    +0.000 A 
ATOM     28  N   UNL     1       1.011  10.374  22.066  0.00  0.00    +0.000 NA
ATOM     29  C   UNL     1       0.775  10.662  20.765  0.00  0.00    +0.000 A 
ENDBRANCH  23  24
BRANCH  23  30
ATOM     30  O   UNL     1       1.480  11.081  17.819  0.00  0.00    +0.000 OA
ATOM     31  H   UNL     1       2.086  11.315  18.544  0.00  0.00    +0.000 HD
ENDBRANCH  23  30
ENDBRANCH   8  23
TORSDOF 6
ENDMDL
MODEL 6
REMARK VINA RESULT:      -6.6      4.712     12.591
REMARK  Name = 
REMARK  9 active torsions:
REMARK  status: ('A' for Active; 'I' for Inactive)
REMARK    1  A    between atoms: C_1  and  O_2
REMARK    2  A    between atoms: O_2  and  C_3
REMARK    3  A    between atoms: C_5  and  C_6
REMARK    4  A    between atoms: C_7  and  C_8
REMARK    5  A    between atoms: C_8  and  N_9
REMARK    6  A    between atoms: C_16  and  C_17
REMARK    7  A    between atoms: C_17  and  O_18
REMARK    8  A    between atoms: C_17  and  C_19
REMARK    9  A    between atoms: C_29  and  C_30
REMARK                            x       y       z     vdW  Elec       q    Type
REMARK                         _______ _______ _______ _____ _____    ______ ____
ROOT
ATOM      1  N   UNL     1       1.138   5.680  19.537  0.00  0.00    +0.000 NA
ATOM      2  C   UNL     1       0.865   4.391  20.799  0.00  0.00    +0.000 C 
ATOM      3  C   UNL     1       1.561   2.573  20.859  0.00  0.00    +0.000 C 
ATOM      4  O   UNL     1       2.335   1.783  19.372  0.00  0.00    +0.000 OA
ATOM      5  C   UNL     1       3.145   2.539  18.052  0.00  0.00    +0.000 A 
ATOM      6  C   UNL     1       4.324   1.866  17.746  0.00  0.00    +0.000 A 
ATOM      7  C   UNL     1       5.314   2.620  17.071  0.00  0.00    +0.000 A 
ATOM      8  C   UNL     1       5.108   3.943  16.548  0.00  0.00    +0.000 A 
ATOM      9  C   UNL     1       3.871   4.582  16.637  0.00  0.00    +0.000 A 
ATOM     10  C   UNL     1       2.910   4.041  17.474  0.00  0.00    +0.000 A 
ATOM     11  C   UNL     1       1.771   5.330  17.907  0.00  0.00    +0.000 C 
ENDROOT
BRANCH   1  12
ATOM     12  C   UNL     1       2.259   6.424  20.052  0.00  0.00    +0.000 C 
BRANCH  12  17
ATOM     13  C   UNL     1       0.882  10.306  21.211  0.00  0.00    +0.000 A 
ATOM     14  C   UNL     1       1.504  10.079  19.962  0.00  0.00    +0.000 A 
ATOM     15  C   UNL     1       1.852   8.768  19.297  0.00  0.00    +0.000 A 
ATOM     16  C   UNL     1       2.519   8.478  17.407  0.00  0.00    +0.000 C 
ATOM     17  C   UNL     1       1.656   7.746  20.284  0.00  0.00    +0.000 A 
ATOM     18  C   UNL     1       1.018   7.956  21.550  0.00  0.00    +0.000 A 
ATOM     19  C   UNL     1       0.607   9.215  22.004  0.00  0.00    +0.000 A 
ATOM     20  C   UNL     1      -0.072   9.410  23.329  0.00  0.00    +0.000 C 
BRANCH  13  22
ATOM     21  C   UNL     1      -0.152  12.456  20.860  0.00  0.00    +0.000 C 
ATOM     22  O   UNL     1       0.534  11.534  21.707  0.00  0.00    +0.000 OA
ENDBRANCH  13  22
ENDBRANCH  12  17
ENDBRANCH   1  12
BRANCH   8  23
ATOM     23  C   UNL     1       6.252   4.810  16.034  0.00  0.00    +0.000 C 
BRANCH  23  24
ATOM     24  C   UNL     1       6.574   4.704  14.573  0.00  0.00    +0.000 A 
ATOM     25  C   UNL     1       5.970   3.722  13.776  0.00  0.00    +0.000 A 
ATOM     26  C   UNL     1       6.321   3.617  12.438  0.00  0.00    +0.000 A 
ATOM     27  C   UNL     1       7.288   4.477  11.945  0.00  0.00    +0.000 A 
ATOM     28  N   UNL     1       7.924   5.399  12.684  0.00  0.00    +0.000 NA
ATOM     29  C   UNL     1       7.565   5.488  13.986  0.00  0.00    +0.000 A 
ENDBRANCH  23  24
BRANCH  23  30
ATOM     30  O   UNL     1       7.418   4.567  16.829  0.00  0.00    +0.000 OA
ATOM     31  H   UNL     1       7.207   4.808  17.748  0.00  0.00    +0.000 HD
ENDBRANCH  23  30
ENDBRANCH   8  23
TORSDOF 6
ENDMDL
MODEL 7
REMARK VINA RESULT:      -6.6      2.875      8.352
REMARK  Name = 
REMARK  9 active torsions:
REMARK  status: ('A' for Active; 'I' for Inactive)
REMARK    1  A    between atoms: C_1  and  O_2
REMARK    2  A    between atoms: O_2  and  C_3
REMARK    3  A    between atoms: C_5  and  C_6
REMARK    4  A    between atoms: C_7  and  C_8
REMARK    5  A    between atoms: C_8  and  N_9
REMARK    6  A    between atoms: C_16  and  C_17
REMARK    7  A    between atoms: C_17  and  O_18
REMARK    8  A    between atoms: C_17  and  C_19
REMARK    9  A    between atoms: C_29  and  C_30
REMARK                            x       y       z     vdW  Elec       q    Type
REMARK                         _______ _______ _______ _____ _____    ______ ____
ROOT
ATOM      1  N   UNL     1      -5.029  13.205  21.074  0.00  0.00    +0.000 NA
ATOM      2  C   UNL     1      -6.513  12.162  20.884  0.00  0.00    +0.000 C 
ATOM      3  C   UNL     1      -6.836  10.716  19.620  0.00  0.00    +0.000 C 
ATOM      4  O   UNL     1      -5.745  10.457  18.145  0.00  0.00    +0.000 OA
ATOM      5  C   UNL     1      -4.084  10.870  17.951  0.00  0.00    +0.000 A 
ATOM      6  C   UNL     1      -3.379   9.821  17.368  0.00  0.00    +0.000 A 
ATOM      7  C   UNL     1      -1.984   9.799  17.608  0.00  0.00    +0.000 A 
ATOM      8  C   UNL     1      -1.256  10.859  18.250  0.00  0.00    +0.000 A 
ATOM      9  C   UNL     1      -1.884  12.035  18.660  0.00  0.00    +0.000 A 
ATOM     10  C   UNL     1      -3.268  12.067  18.690  0.00  0.00    +0.000 A 
ATOM     11  C   UNL     1      -3.763  13.336  19.825  0.00  0.00    +0.000 C 
ENDROOT
BRANCH   1  12
ATOM     12  C   UNL     1      -4.264  12.523  22.088  0.00  0.00    +0.000 C 
BRANCH  12  17
ATOM     13  C   UNL     1      -3.286  16.040  24.319  0.00  0.00    +0.000 A 
ATOM     14  C   UNL     1      -4.583  15.479  24.344  0.00  0.00    +0.000 A 
ATOM     15  C   UNL     1      -5.054  14.148  23.810  0.00  0.00    +0.000 A 
ATOM     16  C   UNL     1      -6.862  13.274  24.081  0.00  0.00    +0.000 C 
ATOM     17  C   UNL     1      -3.975  13.618  23.027  0.00  0.00    +0.000 A 
ATOM     18  C   UNL     1      -2.652  14.167  22.998  0.00  0.00    +0.000 A 
ATOM     19  C   UNL     1      -2.296  15.350  23.657  0.00  0.00    +0.000 A 
ATOM     20  C   UNL     1      -0.899  15.901  23.624  0.00  0.00    +0.000 C 
BRANCH  13  22
ATOM     21  C   UNL     1      -3.952  18.128  25.325  0.00  0.00    +0.000 C 
ATOM     22  O   UNL     1      -2.930  17.230  24.897  0.00  0.00    +0.000 OA
ENDBRANCH  13  22
ENDBRANCH  12  17
ENDBRANCH   1  12
BRANCH   8  23
ATOM     23  C   UNL     1       0.194  10.706  18.696  0.00  0.00    +0.000 C 
BRANCH  23  24
ATOM     24  C   UNL     1       0.421  10.236  20.102  0.00  0.00    +0.000 A 
ATOM     25  C   UNL     1       0.990   8.981  20.355  0.00  0.00    +0.000 A 
ATOM     26  C   UNL     1       1.145   8.552  21.665  0.00  0.00    +0.000 A 
ATOM     27  C   UNL     1       0.697   9.379  22.682  0.00  0.00    +0.000 A 
ATOM     28  N   UNL     1       0.105  10.566  22.482  0.00  0.00    +0.000 NA
ATOM     29  C   UNL     1      -0.034  10.968  21.197  0.00  0.00    +0.000 A 
ENDBRANCH  23  24
BRANCH  23  30
ATOM     30  O   UNL     1       0.891  11.932  18.452  0.00  0.00    +0.000 OA
ATOM     31  H   UNL     1       0.619  12.261  17.578  0.00  0.00    +0.000 HD
ENDBRANCH  23  30
ENDBRANCH   8  23
TORSDOF 6
ENDMDL
MODEL 8
REMARK VINA RESULT:      -6.5      2.828      8.864
REMARK  Name = 
REMARK  9 active torsions:
REMARK  status: ('A' for Active; 'I' for Inactive)
REMARK    1  A    between atoms: C_1  and  O_2
REMARK    2  A    between atoms: O_2  and  C_3
REMARK    3  A    between atoms: C_5  and  C_6
REMARK    4  A    between atoms: C_7  and  C_8
REMARK    5  A    between atoms: C_8  and  N_9
REMARK    6  A    between atoms: C_16  and  C_17
REMARK    7  A    between atoms: C_17  and  O_18
REMARK    8  A    between atoms: C_17  and  C_19
REMARK    9  A    between atoms: C_29  and  C_30
REMARK                            x       y       z     vdW  Elec       q    Type
REMARK                         _______ _______ _______ _____ _____    ______ ____
ROOT
ATOM      1  N   UNL     1      -4.987  13.367  21.268  0.00  0.00    +0.000 NA
ATOM      2  C   UNL     1      -6.434  12.363  20.795  0.00  0.00    +0.000 C 
ATOM      3  C   UNL     1      -6.565  10.967  19.442  0.00  0.00    +0.000 C 
ATOM      4  O   UNL     1      -5.248  10.737  18.160  0.00  0.00    +0.000 OA
ATOM      5  C   UNL     1      -3.571  11.121  18.259  0.00  0.00    +0.000 A 
ATOM      6  C   UNL     1      -2.795  10.077  17.763  0.00  0.00    +0.000 A 
ATOM      7  C   UNL     1      -1.460  10.018  18.229  0.00  0.00    +0.000 A 
ATOM      8  C   UNL     1      -0.833  11.039  19.022  0.00  0.00    +0.000 A 
ATOM      9  C   UNL     1      -1.502  12.214  19.366  0.00  0.00    +0.000 A 
ATOM     10  C   UNL     1      -2.871  12.274  19.167  0.00  0.00    +0.000 A 
ATOM     11  C   UNL     1      -3.529  13.514  20.251  0.00  0.00    +0.000 C 
ENDROOT
BRANCH   1  12
ATOM     12  C   UNL     1      -4.412  12.634  22.368  0.00  0.00    +0.000 C 
BRANCH  12  17
ATOM     13  C   UNL     1      -3.405  16.060  24.725  0.00  0.00    +0.000 A 
ATOM     14  C   UNL     1      -4.747  15.672  24.511  0.00  0.00    +0.000 A 
ATOM     15  C   UNL     1      -5.283  14.397  23.905  0.00  0.00    +0.000 A 
ATOM     16  C   UNL     1      -7.209  13.773  23.838  0.00  0.00    +0.000 C 
ATOM     17  C   UNL     1      -4.159  13.710  23.339  0.00  0.00    +0.000 A 
ATOM     18  C   UNL     1      -2.792  14.083  23.554  0.00  0.00    +0.000 A 
ATOM     19  C   UNL     1      -2.410  15.229  24.263  0.00  0.00    +0.000 A 
ATOM     20  C   UNL     1      -0.971  15.594  24.488  0.00  0.00    +0.000 C 
BRANCH  13  22
ATOM     21  C   UNL     1      -3.375  18.471  24.795  0.00  0.00    +0.000 C 
ATOM     22  O   UNL     1      -3.007  17.210  25.354  0.00  0.00    +0.000 OA
ENDBRANCH  13  22
ENDBRANCH  12  17
ENDBRANCH   1  12
BRANCH   8  23
ATOM     23  C   UNL     1       0.520  10.841  19.696  0.00  0.00    +0.000 C 
BRANCH  23  24
ATOM     24  C   UNL     1       1.280   9.600  19.328  0.00  0.00    +0.000 A 
ATOM     25  C   UNL     1       1.790   9.431  18.034  0.00  0.00    +0.000 A 
ATOM     26  C   UNL     1       2.448   8.254  17.707  0.00  0.00    +0.000 A 
ATOM     27  C   UNL     1       2.549   7.270  18.677  0.00  0.00    +0.000 A 
ATOM     28  N   UNL     1       2.035   7.373  19.911  0.00  0.00    +0.000 NA
ATOM     29  C   UNL     1       1.400   8.530  20.211  0.00  0.00    +0.000 A 
ENDBRANCH  23  24
BRANCH  23  30
ATOM     30  O   UNL     1       0.355  10.932  21.115  0.00  0.00    +0.000 OA
ATOM     31  H   UNL     1       0.984  10.315  21.528  0.00  0.00    +0.000 HD
ENDBRANCH  23  30
ENDBRANCH   8  23
TORSDOF 6
ENDMDL
MODEL 9
REMARK VINA RESULT:      -6.4      2.925      8.536
REMARK  Name = 
REMARK  9 active torsions:
REMARK  status: ('A' for Active; 'I' for Inactive)
REMARK    1  A    between atoms: C_1  and  O_2
REMARK    2  A    between atoms: O_2  and  C_3
REMARK    3  A    between atoms: C_5  and  C_6
REMARK    4  A    between atoms: C_7  and  C_8
REMARK    5  A    between atoms: C_8  and  N_9
REMARK    6  A    between atoms: C_16  and  C_17
REMARK    7  A    between atoms: C_17  and  O_18
REMARK    8  A    between atoms: C_17  and  C_19
REMARK    9  A    between atoms: C_29  and  C_30
REMARK                            x       y       z     vdW  Elec       q    Type
REMARK                         _______ _______ _______ _____ _____    ______ ____
ROOT
ATOM      1  N   UNL     1      -5.125  13.344  21.191  0.00  0.00    +0.000 NA
ATOM      2  C   UNL     1      -6.606  12.378  20.745  0.00  0.00    +0.000 C 
ATOM      3  C   UNL     1      -6.796  10.985  19.396  0.00  0.00    +0.000 C 
ATOM      4  O   UNL     1      -5.507  10.718  18.092  0.00  0.00    +0.000 OA
ATOM      5  C   UNL     1      -3.820  11.058  18.163  0.00  0.00    +0.000 A 
ATOM      6  C   UNL     1      -3.079   9.994  17.655  0.00  0.00    +0.000 A 
ATOM      7  C   UNL     1      -1.739   9.900  18.099  0.00  0.00    +0.000 A 
ATOM      8  C   UNL     1      -1.072  10.905  18.880  0.00  0.00    +0.000 A 
ATOM      9  C   UNL     1      -1.704  12.098  19.234  0.00  0.00    +0.000 A 
ATOM     10  C   UNL     1      -3.074  12.194  19.057  0.00  0.00    +0.000 A 
ATOM     11  C   UNL     1      -3.681  13.452  20.150  0.00  0.00    +0.000 C 
ENDROOT
BRANCH   1  12
ATOM     12  C   UNL     1      -4.551  12.598  22.283  0.00  0.00    +0.000 C 
BRANCH  12  17
ATOM     13  C   UNL     1      -3.055  15.600  24.939  0.00  0.00    +0.000 A 
ATOM     14  C   UNL     1      -2.289  14.464  24.592  0.00  0.00    +0.000 A 
ATOM     15  C   UNL     1      -2.552  13.429  23.524  0.00  0.00    +0.000 A 
ATOM     16  C   UNL     1      -1.312  11.956  22.895  0.00  0.00    +0.000 C 
ATOM     17  C   UNL     1      -3.886  13.662  23.051  0.00  0.00    +0.000 A 
ATOM     18  C   UNL     1      -4.672  14.813  23.383  0.00  0.00    +0.000 A 
ATOM     19  C   UNL     1      -4.257  15.791  24.295  0.00  0.00    +0.000 A 
ATOM     20  C   UNL     1      -5.091  16.996  24.618  0.00  0.00    +0.000 C 
BRANCH  13  22
ATOM     21  C   UNL     1      -1.385  17.083  25.848  0.00  0.00    +0.000 C 
ATOM     22  O   UNL     1      -2.702  16.533  25.877  0.00  0.00    +0.000 OA
ENDBRANCH  13  22
ENDBRANCH  12  17
ENDBRANCH   1  12
BRANCH   8  23
ATOM     23  C   UNL     1       0.287  10.672  19.531  0.00  0.00    +0.000 C 
BRANCH  23  24
ATOM     24  C   UNL     1       1.254  11.818  19.502  0.00  0.00    +0.000 A 
ATOM     25  C   UNL     1       1.491  12.583  20.652  0.00  0.00    +0.000 A 
ATOM     26  C   UNL     1       2.355  13.667  20.586  0.00  0.00    +0.000 A 
ATOM     27  C   UNL     1       2.932  13.970  19.363  0.00  0.00    +0.000 A 
ATOM     28  N   UNL     1       2.696  13.292  18.230  0.00  0.00    +0.000 NA
ATOM     29  C   UNL     1       1.853  12.237  18.317  0.00  0.00    +0.000 A 
ENDBRANCH  23  24
BRANCH  23  30
ATOM     30  O   UNL     1       0.879   9.495  18.972  0.00  0.00    +0.000 OA
ATOM     31  H   UNL     1       1.842   9.631  18.942  0.00  0.00    +0.000 HD
ENDBRANCH  23  30
ENDBRANCH   8  23
TORSDOF 6
ENDMDL
