MODEL 1
REMARK VINA RESULT:      -7.8      0.000      0.000
REMARK  Name = 
REMARK  6 active torsions:
REMARK  status: ('A' for Active; 'I' for Inactive)
REMARK    1  A    between atoms: C_1  and  C_2
REMARK    2  A    between atoms: C_2  and  C_3
REMARK    3  A    between atoms: C_3  and  N_4
REMARK    4  A    between atoms: C_10  and  N_11
REMARK    5  A    between atoms: N_14  and  C_15
REMARK    6  A    between atoms: C_22  and  C_23
REMARK                            x       y       z     vdW  Elec       q    Type
REMARK                         _______ _______ _______ _____ _____    ______ ____
ROOT
ATOM      1  N   UNL     1       2.719   3.398  18.871  0.00  0.00    +0.000 NA
ATOM      2  C   UNL     1       3.265   2.636  17.718  0.00  0.00    +0.000 C 
ATOM      3  C   UNL     1       4.637   3.107  17.166  0.00  0.00    +0.000 C 
ATOM      4  C   UNL     1       4.837   4.596  17.301  0.00  0.00    +0.000 A 
ATOM      5  C   UNL     1       3.884   5.366  17.934  0.00  0.00    +0.000 A 
ATOM      6  S   UNL     1       4.326   6.998  18.022  0.00  0.00    +0.000 S 
ATOM      7  C   UNL     1       5.761   6.716  17.141  0.00  0.00    +0.000 A 
ATOM      8  C   UNL     1       6.002   5.368  16.891  0.00  0.00    +0.000 A 
ATOM      9  C   UNL     1       2.606   4.830  18.506  0.00  0.00    +0.000 C 
ENDROOT
BRANCH   7  10
ATOM     10  N   UNL     1       6.447   7.896  16.878  0.00  0.00    +0.000 N 
ATOM     11  C   UNL     1       7.545   8.207  17.661  0.00  0.00    +0.000 C 
ATOM     12  O   UNL     1       7.986   7.443  18.519  0.00  0.00    +0.000 OA
ATOM     13  N   UNL     1       8.013   9.484  17.428  0.00  0.00    +0.000 N 
ATOM     14  H   UNL     1       6.572   8.095  15.895  0.00  0.00    +0.000 HD
ATOM     15  H   UNL     1       7.454  10.053  16.809  0.00  0.00    +0.000 HD
BRANCH  13  16
ATOM     16  C   UNL     1       9.019  10.150  18.173  0.00  0.00    +0.000 A 
ATOM     17  C   UNL     1       9.115  10.099  19.569  0.00  0.00    +0.000 A 
ATOM     18  C   UNL     1      10.088  10.836  20.252  0.00  0.00    +0.000 A 
ATOM     19  C   UNL     1      10.985  11.622  19.539  0.00  0.00    +0.000 A 
ATOM     20 CL   UNL     1      12.163  12.550  20.380  0.00  0.00    +0.000 Cl
ATOM     21  C   UNL     1      10.927  11.662  18.147  0.00  0.00    +0.000 A 
ATOM     22  C   UNL     1       9.948  10.925  17.467  0.00  0.00    +0.000 A 
ENDBRANCH  13  16
ENDBRANCH   7  10
BRANCH   8  23
ATOM     23  C   UNL     1       7.233   4.730  16.407  0.00  0.00    +0.000 C 
ATOM     24  N   UNL     1       7.448   4.656  15.064  0.00  0.00    +0.000 N 
ATOM     25  O   UNL     1       8.070   4.242  17.161  0.00  0.00    +0.000 OA
ATOM     26  H   UNL     1       6.625   4.593  14.469  0.00  0.00    +0.000 HD
ATOM     27  H   UNL     1       8.229   4.077  14.792  0.00  0.00    +0.000 HD
ENDBRANCH   8  23
BRANCH   1  28
ATOM     28  C   UNL     1       3.501   3.144  20.093  0.00  0.00    +0.000 C 
BRANCH  28  30
ATOM     29  C   UNL     1       1.219   2.852  21.237  0.00  0.00    +0.000 C 
ATOM     30  C   UNL     1       2.715   2.585  21.290  0.00  0.00    +0.000 C 
ENDBRANCH  28  30
ENDBRANCH   1  28
TORSDOF 5
ENDMDL
MODEL 2
REMARK VINA RESULT:      -7.1      1.382      1.464
REMARK  Name = 
REMARK  6 active torsions:
REMARK  status: ('A' for Active; 'I' for Inactive)
REMARK    1  A    between atoms: C_1  and  C_2
REMARK    2  A    between atoms: C_2  and  C_3
REMARK    3  A    between atoms: C_3  and  N_4
REMARK    4  A    between atoms: C_10  and  N_11
REMARK    5  A    between atoms: N_14  and  C_15
REMARK    6  A    between atoms: C_22  and  C_23
REMARK                            x       y       z     vdW  Elec       q    Type
REMARK                         _______ _______ _______ _____ _____    ______ ____
ROOT
ATOM      1  N   UNL     1       2.532   4.274  18.666  0.00  0.00    +0.000 NA
ATOM      2  C   UNL     1       3.492   3.163  18.432  0.00  0.00    +0.000 C 
ATOM      3  C   UNL     1       4.999   3.530  18.481  0.00  0.00    +0.000 C 
ATOM      4  C   UNL     1       5.272   4.931  17.994  0.00  0.00    +0.000 A 
ATOM      5  C   UNL     1       4.224   5.755  17.640  0.00  0.00    +0.000 A 
ATOM      6  S   UNL     1       4.744   7.297  17.171  0.00  0.00    +0.000 S 
ATOM      7  C   UNL     1       6.385   6.861  17.354  0.00  0.00    +0.000 A 
ATOM      8  C   UNL     1       6.565   5.597  17.908  0.00  0.00    +0.000 A 
ATOM      9  C   UNL     1       2.780   5.354  17.682  0.00  0.00    +0.000 C 
ENDROOT
BRANCH   7  10
ATOM     10  N   UNL     1       7.239   7.882  16.954  0.00  0.00    +0.000 N 
ATOM     11  C   UNL     1       7.915   8.594  17.929  0.00  0.00    +0.000 C 
ATOM     12  O   UNL     1       7.857   8.305  19.124  0.00  0.00    +0.000 OA
ATOM     13  N   UNL     1       8.572   9.695  17.417  0.00  0.00    +0.000 N 
ATOM     14  H   UNL     1       7.798   7.663  16.141  0.00  0.00    +0.000 HD
ATOM     15  H   UNL     1       8.400   9.898  16.443  0.00  0.00    +0.000 HD
BRANCH  13  16
ATOM     16  C   UNL     1       9.220  10.703  18.174  0.00  0.00    +0.000 A 
ATOM     17  C   UNL     1       9.865  10.466  19.394  0.00  0.00    +0.000 A 
ATOM     18  C   UNL     1      10.425  11.516  20.130  0.00  0.00    +0.000 A 
ATOM     19  C   UNL     1      10.356  12.815  19.641  0.00  0.00    +0.000 A 
ATOM     20 CL   UNL     1      11.019  14.109  20.557  0.00  0.00    +0.000 Cl
ATOM     21  C   UNL     1       9.745  13.068  18.413  0.00  0.00    +0.000 A 
ATOM     22  C   UNL     1       9.182  12.014  17.683  0.00  0.00    +0.000 A 
ENDBRANCH  13  16
ENDBRANCH   7  10
BRANCH   8  23
ATOM     23  C   UNL     1       7.791   4.997  18.448  0.00  0.00    +0.000 C 
ATOM     24  N   UNL     1       8.235   5.402  19.670  0.00  0.00    +0.000 N 
ATOM     25  O   UNL     1       8.446   4.158  17.837  0.00  0.00    +0.000 OA
ATOM     26  H   UNL     1       8.026   6.360  19.941  0.00  0.00    +0.000 HD
ATOM     27  H   UNL     1       9.156   5.069  19.918  0.00  0.00    +0.000 HD
ENDBRANCH   8  23
BRANCH   1  28
ATOM     28  C   UNL     1       2.564   4.715  20.071  0.00  0.00    +0.000 C 
BRANCH  28  30
ATOM     29  C   UNL     1       1.171   2.852  21.161  0.00  0.00    +0.000 C 
ATOM     30  C   UNL     1       2.495   3.600  21.127  0.00  0.00    +0.000 C 
ENDBRANCH  28  30
ENDBRANCH   1  28
TORSDOF 5
ENDMDL
MODEL 3
REMARK VINA RESULT:      -7.0      8.256     10.484
REMARK  Name = 
REMARK  6 active torsions:
REMARK  status: ('A' for Active; 'I' for Inactive)
REMARK    1  A    between atoms: C_1  and  C_2
REMARK    2  A    between atoms: C_2  and  C_3
REMARK    3  A    between atoms: C_3  and  N_4
REMARK    4  A    between atoms: C_10  and  N_11
REMARK    5  A    between atoms: N_14  and  C_15
REMARK    6  A    between atoms: C_22  and  C_23
REMARK                            x       y       z     vdW  Elec       q    Type
REMARK                         _______ _______ _______ _____ _____    ______ ____
ROOT
ATOM      1  N   UNL     1      -3.433  13.383  22.518  0.00  0.00    +0.000 NA
ATOM      2  C   UNL     1      -2.486  14.386  21.964  0.00  0.00    +0.000 C 
ATOM      3  C   UNL     1      -1.309  13.831  21.118  0.00  0.00    +0.000 C 
ATOM      4  C   UNL     1      -0.845  12.475  21.587  0.00  0.00    +0.000 A 
ATOM      5  C   UNL     1      -1.508  11.835  22.613  0.00  0.00    +0.000 A 
ATOM      6  S   UNL     1      -0.859  10.308  22.949  0.00  0.00    +0.000 S 
ATOM      7  C   UNL     1       0.371  10.511  21.783  0.00  0.00    +0.000 A 
ATOM      8  C   UNL     1       0.230  11.669  21.023  0.00  0.00    +0.000 A 
ATOM      9  C   UNL     1      -2.686  12.405  23.344  0.00  0.00    +0.000 C 
ENDROOT
BRANCH   7  10
ATOM     10  N   UNL     1       1.265   9.447  21.783  0.00  0.00    +0.000 N 
ATOM     11  C   UNL     1       1.200   8.534  20.746  0.00  0.00    +0.000 C 
ATOM     12  O   UNL     1       0.445   8.672  19.784  0.00  0.00    +0.000 OA
ATOM     13  N   UNL     1       2.001   7.431  20.964  0.00  0.00    +0.000 N 
ATOM     14  H   UNL     1       2.206   9.693  22.057  0.00  0.00    +0.000 HD
ATOM     15  H   UNL     1       2.444   7.379  21.871  0.00  0.00    +0.000 HD
BRANCH  13  16
ATOM     16  C   UNL     1       2.036   6.258  20.169  0.00  0.00    +0.000 A 
ATOM     17  C   UNL     1       1.437   5.048  20.540  0.00  0.00    +0.000 A 
ATOM     18  C   UNL     1       1.567   3.905  19.745  0.00  0.00    +0.000 A 
ATOM     19  C   UNL     1       2.289   3.967  18.560  0.00  0.00    +0.000 A 
ATOM     20 CL   UNL     1       2.473   2.555  17.597  0.00  0.00    +0.000 Cl
ATOM     21  C   UNL     1       2.868   5.170  18.156  0.00  0.00    +0.000 A 
ATOM     22  C   UNL     1       2.738   6.311  18.958  0.00  0.00    +0.000 A 
ENDBRANCH  13  16
ENDBRANCH   7  10
BRANCH   8  23
ATOM     23  C   UNL     1       0.921  12.044  19.783  0.00  0.00    +0.000 C 
ATOM     24  N   UNL     1       0.440  11.575  18.598  0.00  0.00    +0.000 N 
ATOM     25  O   UNL     1       1.926  12.747  19.769  0.00  0.00    +0.000 OA
ATOM     26  H   UNL     1      -0.028  10.672  18.616  0.00  0.00    +0.000 HD
ATOM     27  H   UNL     1       1.040  11.740  17.803  0.00  0.00    +0.000 HD
ENDBRANCH   8  23
BRANCH   1  28
ATOM     28  C   UNL     1      -4.248  12.777  21.451  0.00  0.00    +0.000 C 
BRANCH  28  30
ATOM     29  C   UNL     1      -6.575  12.110  20.591  0.00  0.00    +0.000 C 
ATOM     30  C   UNL     1      -5.771  12.877  21.630  0.00  0.00    +0.000 C 
ENDBRANCH  28  30
ENDBRANCH   1  28
TORSDOF 5
ENDMDL
MODEL 4
REMARK VINA RESULT:      -6.9      5.313      7.128
REMARK  Name = 
REMARK  6 active torsions:
REMARK  status: ('A' for Active; 'I' for Inactive)
REMARK    1  A    between atoms: C_1  and  C_2
REMARK    2  A    between atoms: C_2  and  C_3
REMARK    3  A    between atoms: C_3  and  N_4
REMARK    4  A    between atoms: C_10  and  N_11
REMARK    5  A    between atoms: N_14  and  C_15
REMARK    6  A    between atoms: C_22  and  C_23
REMARK                            x       y       z     vdW  Elec       q    Type
REMARK                         _______ _______ _______ _____ _____    ______ ____
ROOT
ATOM      1  N   UNL     1       6.358   4.605  15.422  0.00  0.00    +0.000 NA
ATOM      2  C   UNL     1       5.892   3.384  16.130  0.00  0.00    +0.000 C 
ATOM      3  C   UNL     1       4.485   3.456  16.780  0.00  0.00    +0.000 C 
ATOM      4  C   UNL     1       4.144   4.839  17.274  0.00  0.00    +0.000 A 
ATOM      5  C   UNL     1       5.016   5.885  17.055  0.00  0.00    +0.000 A 
ATOM      6  S   UNL     1       4.421   7.357  17.644  0.00  0.00    +0.000 S 
ATOM      7  C   UNL     1       3.023   6.605  18.274  0.00  0.00    +0.000 A 
ATOM      8  C   UNL     1       2.912   5.261  17.928  0.00  0.00    +0.000 A 
ATOM      9  C   UNL     1       6.336   5.754  16.357  0.00  0.00    +0.000 C 
ENDROOT
BRANCH   7  10
ATOM     10  N   UNL     1       2.229   7.500  18.982  0.00  0.00    +0.000 N 
ATOM     11  C   UNL     1       1.886   8.696  18.377  0.00  0.00    +0.000 C 
ATOM     12  O   UNL     1       2.181   8.960  17.212  0.00  0.00    +0.000 OA
ATOM     13  N   UNL     1       1.267   9.568  19.249  0.00  0.00    +0.000 N 
ATOM     14  H   UNL     1       1.477   7.069  19.501  0.00  0.00    +0.000 HD
ATOM     15  H   UNL     1       1.233   9.277  20.216  0.00  0.00    +0.000 HD
BRANCH  13  16
ATOM     16  C   UNL     1       0.936  10.920  18.978  0.00  0.00    +0.000 A 
ATOM     17  C   UNL     1       1.885  11.918  18.726  0.00  0.00    +0.000 A 
ATOM     18  C   UNL     1       1.500  13.249  18.535  0.00  0.00    +0.000 A 
ATOM     19  C   UNL     1       0.154  13.591  18.582  0.00  0.00    +0.000 A 
ATOM     20 CL   UNL     1      -0.319  15.230  18.377  0.00  0.00    +0.000 Cl
ATOM     21  C   UNL     1      -0.810  12.607  18.801  0.00  0.00    +0.000 A 
ATOM     22  C   UNL     1      -0.418  11.276  18.995  0.00  0.00    +0.000 A 
ENDBRANCH  13  16
ENDBRANCH   7  10
BRANCH   8  23
ATOM     23  C   UNL     1       1.751   4.373  18.056  0.00  0.00    +0.000 C 
ATOM     24  N   UNL     1       1.555   3.717  19.234  0.00  0.00    +0.000 N 
ATOM     25  O   UNL     1       0.956   4.181  17.141  0.00  0.00    +0.000 OA
ATOM     26  H   UNL     1       2.385   3.480  19.771  0.00  0.00    +0.000 HD
ATOM     27  H   UNL     1       0.833   3.011  19.210  0.00  0.00    +0.000 HD
ENDBRANCH   8  23
BRANCH   1  28
ATOM     28  C   UNL     1       5.598   4.819  14.179  0.00  0.00    +0.000 C 
BRANCH  28  30
ATOM     29  C   UNL     1       4.864   3.430  12.146  0.00  0.00    +0.000 C 
ATOM     30  C   UNL     1       6.022   3.964  12.975  0.00  0.00    +0.000 C 
ENDBRANCH  28  30
ENDBRANCH   1  28
TORSDOF 5
ENDMDL
MODEL 5
REMARK VINA RESULT:      -6.8      8.366     10.610
REMARK  Name = 
REMARK  6 active torsions:
REMARK  status: ('A' for Active; 'I' for Inactive)
REMARK    1  A    between atoms: C_1  and  C_2
REMARK    2  A    between atoms: C_2  and  C_3
REMARK    3  A    between atoms: C_3  and  N_4
REMARK    4  A    between atoms: C_10  and  N_11
REMARK    5  A    between atoms: N_14  and  C_15
REMARK    6  A    between atoms: C_22  and  C_23
REMARK                            x       y       z     vdW  Elec       q    Type
REMARK                         _______ _______ _______ _____ _____    ______ ____
ROOT
ATOM      1  N   UNL     1      -3.778  13.286  22.648  0.00  0.00    +0.000 NA
ATOM      2  C   UNL     1      -2.959  14.345  22.001  0.00  0.00    +0.000 C 
ATOM      3  C   UNL     1      -1.797  13.862  21.093  0.00  0.00    +0.000 C 
ATOM      4  C   UNL     1      -1.189  12.567  21.567  0.00  0.00    +0.000 A 
ATOM      5  C   UNL     1      -1.725  11.909  22.655  0.00  0.00    +0.000 A 
ATOM      6  S   UNL     1      -0.927  10.454  22.990  0.00  0.00    +0.000 S 
ATOM      7  C   UNL     1       0.202  10.719  21.736  0.00  0.00    +0.000 A 
ATOM      8  C   UNL     1      -0.088  11.834  20.955  0.00  0.00    +0.000 A 
ATOM      9  C   UNL     1      -2.897  12.403  23.449  0.00  0.00    +0.000 C 
ENDROOT
BRANCH   7  10
ATOM     10  N   UNL     1       1.182   9.734  21.706  0.00  0.00    +0.000 N 
ATOM     11  C   UNL     1       1.157   8.813  20.674  0.00  0.00    +0.000 C 
ATOM     12  O   UNL     1       0.359   8.884  19.740  0.00  0.00    +0.000 OA
ATOM     13  N   UNL     1       2.056   7.783  20.865  0.00  0.00    +0.000 N 
ATOM     14  H   UNL     1       2.108  10.060  21.946  0.00  0.00    +0.000 HD
ATOM     15  H   UNL     1       2.533   7.773  21.755  0.00  0.00    +0.000 HD
BRANCH  13  16
ATOM     16  C   UNL     1       2.161   6.613  20.071  0.00  0.00    +0.000 A 
ATOM     17  C   UNL     1       2.761   6.583  18.806  0.00  0.00    +0.000 A 
ATOM     18  C   UNL     1       2.771   5.412  18.040  0.00  0.00    +0.000 A 
ATOM     19  C   UNL     1       2.190   4.254  18.543  0.00  0.00    +0.000 A 
ATOM     20 CL   UNL     1       2.177   2.823  17.591  0.00  0.00    +0.000 Cl
ATOM     21  C   UNL     1       1.615   4.255  19.813  0.00  0.00    +0.000 A 
ATOM     22  C   UNL     1       1.604   5.431  20.574  0.00  0.00    +0.000 A 
ENDBRANCH  13  16
ENDBRANCH   7  10
BRANCH   8  23
ATOM     23  C   UNL     1       0.484  12.222  19.660  0.00  0.00    +0.000 C 
ATOM     24  N   UNL     1      -0.067  11.715  18.522  0.00  0.00    +0.000 N 
ATOM     25  O   UNL     1       1.453  12.969  19.558  0.00  0.00    +0.000 OA
ATOM     26  H   UNL     1      -0.490  10.793  18.587  0.00  0.00    +0.000 HD
ATOM     27  H   UNL     1       0.461  11.895  17.680  0.00  0.00    +0.000 HD
ENDBRANCH   8  23
BRANCH   1  28
ATOM     28  C   UNL     1      -4.606  12.578  21.657  0.00  0.00    +0.000 C 
BRANCH  28  30
ATOM     29  C   UNL     1      -5.478  12.746  19.246  0.00  0.00    +0.000 C 
ATOM     30  C   UNL     1      -5.255  13.454  20.573  0.00  0.00    +0.000 C 
ENDBRANCH  28  30
ENDBRANCH   1  28
TORSDOF 5
ENDMDL
MODEL 6
REMARK VINA RESULT:      -6.7      5.320      7.171
REMARK  Name = 
REMARK  6 active torsions:
REMARK  status: ('A' for Active; 'I' for Inactive)
REMARK    1  A    between atoms: C_1  and  C_2
REMARK    2  A    between atoms: C_2  and  C_3
REMARK    3  A    between atoms: C_3  and  N_4
REMARK    4  A    between atoms: C_10  and  N_11
REMARK    5  A    between atoms: N_14  and  C_15
REMARK    6  A    between atoms: C_22  and  C_23
REMARK                            x       y       z     vdW  Elec       q    Type
REMARK                         _______ _______ _______ _____ _____    ______ ____
ROOT
ATOM      1  N   UNL     1       6.333   4.810  15.470  0.00  0.00    +0.000 NA
ATOM      2  C   UNL     1       5.890   3.554  16.131  0.00  0.00    +0.000 C 
ATOM      3  C   UNL     1       4.484   3.578  16.787  0.00  0.00    +0.000 C 
ATOM      4  C   UNL     1       4.120   4.934  17.334  0.00  0.00    +0.000 A 
ATOM      5  C   UNL     1       4.974   6.003  17.154  0.00  0.00    +0.000 A 
ATOM      6  S   UNL     1       4.355   7.441  17.800  0.00  0.00    +0.000 S 
ATOM      7  C   UNL     1       2.972   6.641  18.404  0.00  0.00    +0.000 A 
ATOM      8  C   UNL     1       2.884   5.310  18.007  0.00  0.00    +0.000 A 
ATOM      9  C   UNL     1       6.294   5.922  16.449  0.00  0.00    +0.000 C 
ENDROOT
BRANCH   7  10
ATOM     10  N   UNL     1       2.165   7.494  19.148  0.00  0.00    +0.000 N 
ATOM     11  C   UNL     1       1.754   8.681  18.569  0.00  0.00    +0.000 C 
ATOM     12  O   UNL     1       2.000   8.970  17.398  0.00  0.00    +0.000 OA
ATOM     13  N   UNL     1       1.127   9.518  19.470  0.00  0.00    +0.000 N 
ATOM     14  H   UNL     1       1.448   7.026  19.685  0.00  0.00    +0.000 HD
ATOM     15  H   UNL     1       1.137   9.215  20.434  0.00  0.00    +0.000 HD
BRANCH  13  16
ATOM     16  C   UNL     1       0.732  10.858  19.227  0.00  0.00    +0.000 A 
ATOM     17  C   UNL     1      -0.495  11.215  18.657  0.00  0.00    +0.000 A 
ATOM     18  C   UNL     1      -0.798  12.552  18.375  0.00  0.00    +0.000 A 
ATOM     19  C   UNL     1       0.125  13.546  18.678  0.00  0.00    +0.000 A 
ATOM     20 CL   UNL     1      -0.235  15.185  18.306  0.00  0.00    +0.000 Cl
ATOM     21  C   UNL     1       1.340  13.214  19.275  0.00  0.00    +0.000 A 
ATOM     22  C   UNL     1       1.640  11.874  19.550  0.00  0.00    +0.000 A 
ENDBRANCH  13  16
ENDBRANCH   7  10
BRANCH   8  23
ATOM     23  C   UNL     1       1.738   4.398  18.104  0.00  0.00    +0.000 C 
ATOM     24  N   UNL     1       1.502   3.766  19.288  0.00  0.00    +0.000 N 
ATOM     25  O   UNL     1       0.992   4.164  17.157  0.00  0.00    +0.000 OA
ATOM     26  H   UNL     1       2.311   3.562  19.869  0.00  0.00    +0.000 HD
ATOM     27  H   UNL     1       0.798   3.043  19.248  0.00  0.00    +0.000 HD
ENDBRANCH   8  23
BRANCH   1  28
ATOM     28  C   UNL     1       5.565   5.059  14.238  0.00  0.00    +0.000 C 
BRANCH  28  30
ATOM     29  C   UNL     1       6.580   3.662  12.335  0.00  0.00    +0.000 C 
ATOM     30  C   UNL     1       5.411   3.860  13.288  0.00  0.00    +0.000 C 
ENDBRANCH  28  30
ENDBRANCH   1  28
TORSDOF 5
ENDMDL
MODEL 7
REMARK VINA RESULT:      -6.6      0.877      1.093
REMARK  Name = 
REMARK  6 active torsions:
REMARK  status: ('A' for Active; 'I' for Inactive)
REMARK    1  A    between atoms: C_1  and  C_2
REMARK    2  A    between atoms: C_2  and  C_3
REMARK    3  A    between atoms: C_3  and  N_4
REMARK    4  A    between atoms: C_10  and  N_11
REMARK    5  A    between atoms: N_14  and  C_15
REMARK    6  A    between atoms: C_22  and  C_23
REMARK                            x       y       z     vdW  Elec       q    Type
REMARK                         _______ _______ _______ _____ _____    ______ ____
ROOT
ATOM      1  N   UNL     1       2.413   3.506  18.693  0.00  0.00    +0.000 NA
ATOM      2  C   UNL     1       2.911   2.751  17.514  0.00  0.00    +0.000 C 
ATOM      3  C   UNL     1       4.292   3.178  16.952  0.00  0.00    +0.000 C 
ATOM      4  C   UNL     1       4.557   4.653  17.119  0.00  0.00    +0.000 A 
ATOM      5  C   UNL     1       3.646   5.447  17.786  0.00  0.00    +0.000 A 
ATOM      6  S   UNL     1       4.156   7.057  17.906  0.00  0.00    +0.000 S 
ATOM      7  C   UNL     1       5.566   6.737  16.996  0.00  0.00    +0.000 A 
ATOM      8  C   UNL     1       5.747   5.386  16.710  0.00  0.00    +0.000 A 
ATOM      9  C   UNL     1       2.355   4.950  18.364  0.00  0.00    +0.000 C 
ENDROOT
BRANCH   7  10
ATOM     10  N   UNL     1       6.297   7.893  16.751  0.00  0.00    +0.000 N 
ATOM     11  C   UNL     1       7.395   8.159  17.550  0.00  0.00    +0.000 C 
ATOM     12  O   UNL     1       7.798   7.374  18.408  0.00  0.00    +0.000 OA
ATOM     13  N   UNL     1       7.911   9.420  17.333  0.00  0.00    +0.000 N 
ATOM     14  H   UNL     1       6.441   8.095  15.771  0.00  0.00    +0.000 HD
ATOM     15  H   UNL     1       7.381  10.014  16.712  0.00  0.00    +0.000 HD
BRANCH  13  16
ATOM     16  C   UNL     1       8.930  10.045  18.096  0.00  0.00    +0.000 A 
ATOM     17  C   UNL     1       9.003   9.985  19.493  0.00  0.00    +0.000 A 
ATOM     18  C   UNL     1       9.993  10.682  20.194  0.00  0.00    +0.000 A 
ATOM     19  C   UNL     1      10.930  11.435  19.498  0.00  0.00    +0.000 A 
ATOM     20 CL   UNL     1      12.129  12.315  20.360  0.00  0.00    +0.000 Cl
ATOM     21  C   UNL     1      10.894  11.483  18.105  0.00  0.00    +0.000 A 
ATOM     22  C   UNL     1       9.898  10.787  17.408  0.00  0.00    +0.000 A 
ENDBRANCH  13  16
ENDBRANCH   7  10
BRANCH   8  23
ATOM     23  C   UNL     1       6.943   4.710  16.192  0.00  0.00    +0.000 C 
ATOM     24  N   UNL     1       7.934   4.373  17.063  0.00  0.00    +0.000 N 
ATOM     25  O   UNL     1       7.097   4.451  15.002  0.00  0.00    +0.000 OA
ATOM     26  H   UNL     1       8.052   4.970  17.878  0.00  0.00    +0.000 HD
ATOM     27  H   UNL     1       8.787   4.052  16.630  0.00  0.00    +0.000 HD
ENDBRANCH   8  23
BRANCH   1  28
ATOM     28  C   UNL     1       3.202   3.190  19.896  0.00  0.00    +0.000 C 
BRANCH  28  30
ATOM     29  C   UNL     1       4.826   1.587  21.076  0.00  0.00    +0.000 C 
ATOM     30  C   UNL     1       4.186   2.017  19.765  0.00  0.00    +0.000 C 
ENDBRANCH  28  30
ENDBRANCH   1  28
TORSDOF 5
ENDMDL
MODEL 8
REMARK VINA RESULT:      -6.6      8.588     10.802
REMARK  Name = 
REMARK  6 active torsions:
REMARK  status: ('A' for Active; 'I' for Inactive)
REMARK    1  A    between atoms: C_1  and  C_2
REMARK    2  A    between atoms: C_2  and  C_3
REMARK    3  A    between atoms: C_3  and  N_4
REMARK    4  A    between atoms: C_10  and  N_11
REMARK    5  A    between atoms: N_14  and  C_15
REMARK    6  A    between atoms: C_22  and  C_23
REMARK                            x       y       z     vdW  Elec       q    Type
REMARK                         _______ _______ _______ _____ _____    ______ ____
ROOT
ATOM      1  N   UNL     1      -3.887  13.274  22.710  0.00  0.00    +0.000 NA
ATOM      2  C   UNL     1      -3.019  14.352  22.167  0.00  0.00    +0.000 C 
ATOM      3  C   UNL     1      -1.812  13.897  21.305  0.00  0.00    +0.000 C 
ATOM      4  C   UNL     1      -1.248  12.571  21.748  0.00  0.00    +0.000 A 
ATOM      5  C   UNL     1      -1.856  11.868  22.768  0.00  0.00    +0.000 A 
ATOM      6  S   UNL     1      -1.097  10.386  23.074  0.00  0.00    +0.000 S 
ATOM      7  C   UNL     1       0.107  10.696  21.904  0.00  0.00    +0.000 A 
ATOM      8  C   UNL     1      -0.123  11.853  21.164  0.00  0.00    +0.000 A 
ATOM      9  C   UNL     1      -3.067  12.340  23.515  0.00  0.00    +0.000 C 
ENDROOT
BRANCH   7  10
ATOM     10  N   UNL     1       1.076   9.699  21.881  0.00  0.00    +0.000 N 
ATOM     11  C   UNL     1       1.039   8.771  20.855  0.00  0.00    +0.000 C 
ATOM     12  O   UNL     1       0.242   8.844  19.921  0.00  0.00    +0.000 OA
ATOM     13  N   UNL     1       1.925   7.732  21.054  0.00  0.00    +0.000 N 
ATOM     14  H   UNL     1       2.006  10.016  22.118  0.00  0.00    +0.000 HD
ATOM     15  H   UNL     1       2.403   7.722  21.944  0.00  0.00    +0.000 HD
BRANCH  13  16
ATOM     16  C   UNL     1       2.016   6.554  20.269  0.00  0.00    +0.000 A 
ATOM     17  C   UNL     1       2.589   6.513  18.992  0.00  0.00    +0.000 A 
ATOM     18  C   UNL     1       2.585   5.336  18.237  0.00  0.00    +0.000 A 
ATOM     19  C   UNL     1       2.018   4.181  18.763  0.00  0.00    +0.000 A 
ATOM     20 CL   UNL     1       1.987   2.741  17.825  0.00  0.00    +0.000 Cl
ATOM     21  C   UNL     1       1.470   4.193  20.045  0.00  0.00    +0.000 A 
ATOM     22  C   UNL     1       1.473   5.376  20.795  0.00  0.00    +0.000 A 
ENDBRANCH  13  16
ENDBRANCH   7  10
BRANCH   8  23
ATOM     23  C   UNL     1       0.531  12.296  19.926  0.00  0.00    +0.000 C 
ATOM     24  N   UNL     1       1.713  12.967  20.014  0.00  0.00    +0.000 N 
ATOM     25  O   UNL     1       0.048  12.105  18.814  0.00  0.00    +0.000 OA
ATOM     26  H   UNL     1       1.860  13.531  20.847  0.00  0.00    +0.000 HD
ATOM     27  H   UNL     1       2.033  13.375  19.147  0.00  0.00    +0.000 HD
ENDBRANCH   8  23
BRANCH   1  28
ATOM     28  C   UNL     1      -4.665  12.629  21.638  0.00  0.00    +0.000 C 
BRANCH  28  30
ATOM     29  C   UNL     1      -6.949  13.187  22.673  0.00  0.00    +0.000 C 
ATOM     30  C   UNL     1      -6.087  13.170  21.420  0.00  0.00    +0.000 C 
ENDBRANCH  28  30
ENDBRANCH   1  28
TORSDOF 5
ENDMDL
MODEL 9
REMARK VINA RESULT:      -6.5      7.667      9.816
REMARK  Name = 
REMARK  6 active torsions:
REMARK  status: ('A' for Active; 'I' for Inactive)
REMARK    1  A    between atoms: C_1  and  C_2
REMARK    2  A    between atoms: C_2  and  C_3
REMARK    3  A    between atoms: C_3  and  N_4
REMARK    4  A    between atoms: C_10  and  N_11
REMARK    5  A    between atoms: N_14  and  C_15
REMARK    6  A    between atoms: C_22  and  C_23
REMARK                            x       y       z     vdW  Elec       q    Type
REMARK                         _______ _______ _______ _____ _____    ______ ____
ROOT
ATOM      1  N   UNL     1      -1.967  13.759  22.341  0.00  0.00    +0.000 NA
ATOM      2  C   UNL     1      -1.524  14.064  20.956  0.00  0.00    +0.000 C 
ATOM      3  C   UNL     1      -1.326  12.850  20.010  0.00  0.00    +0.000 C 
ATOM      4  C   UNL     1      -0.859  11.615  20.740  0.00  0.00    +0.000 A 
ATOM      5  C   UNL     1      -0.728  11.633  22.113  0.00  0.00    +0.000 A 
ATOM      6  S   UNL     1      -0.241  10.135  22.735  0.00  0.00    +0.000 S 
ATOM      7  C   UNL     1      -0.119   9.461  21.171  0.00  0.00    +0.000 A 
ATOM      8  C   UNL     1      -0.579  10.306  20.165  0.00  0.00    +0.000 A 
ATOM      9  C   UNL     1      -1.002  12.829  22.974  0.00  0.00    +0.000 C 
ENDROOT
BRANCH   7  10
ATOM     10  N   UNL     1       0.379   8.164  21.204  0.00  0.00    +0.000 N 
ATOM     11  C   UNL     1       1.420   7.838  20.353  0.00  0.00    +0.000 C 
ATOM     12  O   UNL     1       1.976   8.667  19.634  0.00  0.00    +0.000 OA
ATOM     13  N   UNL     1       1.689   6.484  20.345  0.00  0.00    +0.000 N 
ATOM     14  H   UNL     1       0.469   7.775  22.133  0.00  0.00    +0.000 HD
ATOM     15  H   UNL     1       1.048   5.903  20.866  0.00  0.00    +0.000 HD
BRANCH  13  16
ATOM     16  C   UNL     1       2.585   5.819  19.470  0.00  0.00    +0.000 A 
ATOM     17  C   UNL     1       3.979   5.894  19.580  0.00  0.00    +0.000 A 
ATOM     18  C   UNL     1       4.811   5.273  18.642  0.00  0.00    +0.000 A 
ATOM     19  C   UNL     1       4.251   4.557  17.591  0.00  0.00    +0.000 A 
ATOM     20 CL   UNL     1       5.272   3.817  16.423  0.00  0.00    +0.000 Cl
ATOM     21  C   UNL     1       2.866   4.443  17.481  0.00  0.00    +0.000 A 
ATOM     22  C   UNL     1       2.037   5.071  18.420  0.00  0.00    +0.000 A 
ENDBRANCH  13  16
ENDBRANCH   7  10
BRANCH   8  23
ATOM     23  C   UNL     1      -0.872   9.989  18.762  0.00  0.00    +0.000 C 
ATOM     24  N   UNL     1       0.141  10.043  17.853  0.00  0.00    +0.000 N 
ATOM     25  O   UNL     1      -1.997   9.694  18.368  0.00  0.00    +0.000 OA
ATOM     26  H   UNL     1       0.886  10.711  18.034  0.00  0.00    +0.000 HD
ATOM     27  H   UNL     1      -0.151   9.964  16.889  0.00  0.00    +0.000 HD
ENDBRANCH   8  23
BRANCH   1  28
ATOM     28  C   UNL     1      -3.363  13.288  22.359  0.00  0.00    +0.000 C 
BRANCH  28  30
ATOM     29  C   UNL     1      -4.334  12.440  24.582  0.00  0.00    +0.000 C 
ATOM     30  C   UNL     1      -4.166  13.614  23.629  0.00  0.00    +0.000 C 
ENDBRANCH  28  30
ENDBRANCH   1  28
TORSDOF 5
ENDMDL
