MODEL 1
REMARK VINA RESULT:      -9.4      0.000      0.000
REMARK  Name = 
REMARK  7 active torsions:
REMARK  status: ('A' for Active; 'I' for Inactive)
REMARK    1  A    between atoms: C_1  and  C_2
REMARK    2  A    between atoms: C_7  and  O_8
REMARK    3  A    between atoms: O_8  and  C_9
REMARK    4  A    between atoms: C_9  and  C_10
REMARK    5  A    between atoms: N_12  and  C_13
REMARK    6  A    between atoms: C_16  and  C_17
REMARK    7  A    between atoms: C_21  and  C_22
REMARK                            x       y       z     vdW  Elec       q    Type
REMARK                         _______ _______ _______ _____ _____    ______ ____
ROOT
ATOM      1  C   UNL     1       2.230   4.710  19.047  0.00  0.00    +0.000 A 
ATOM      2  C   UNL     1       1.773   4.881  20.351  0.00  0.00    +0.000 A 
ATOM      3  C   UNL     1       1.504   6.164  20.828  0.00  0.00    +0.000 A 
ATOM      4  C   UNL     1       1.710   7.291  20.011  0.00  0.00    +0.000 A 
ATOM      5  C   UNL     1       2.232   7.108  18.731  0.00  0.00    +0.000 A 
ATOM      6  C   UNL     1       2.513   5.819  18.248  0.00  0.00    +0.000 A 
ENDROOT
BRANCH   4   7
ATOM      7  C   UNL     1       1.294   8.597  20.509  0.00  0.00    +0.000 A 
ATOM      8  N   UNL     1       0.803   8.847  21.703  0.00  0.00    +0.000 NA
ATOM      9  C   UNL     1       0.358  10.124  21.590  0.00  0.00    +0.000 A 
ATOM     10  C   UNL     1      -0.366  10.877  22.506  0.00  0.00    +0.000 A 
ATOM     11  C   UNL     1      -0.796  12.179  22.186  0.00  0.00    +0.000 A 
ATOM     12  C   UNL     1      -0.452  12.695  20.919  0.00  0.00    +0.000 A 
ATOM     13  C   UNL     1       0.288  11.947  19.964  0.00  0.00    +0.000 A 
ATOM     14  C   UNL     1       0.646  10.658  20.357  0.00  0.00    +0.000 A 
ATOM     15  O   UNL     1       1.277   9.667  19.635  0.00  0.00    +0.000 OA
BRANCH  11  16
ATOM     16  C   UNL     1      -1.664  12.846  23.186  0.00  0.00    +0.000 A 
ATOM     17  C   UNL     1      -2.933  12.296  23.479  0.00  0.00    +0.000 A 
ATOM     18  C   UNL     1      -3.921  13.023  24.141  0.00  0.00    +0.000 A 
ATOM     19  C   UNL     1      -3.634  14.302  24.598  0.00  0.00    +0.000 A 
ATOM     20  C   UNL     1      -2.357  14.829  24.417  0.00  0.00    +0.000 A 
ATOM     21  C   UNL     1      -1.376  14.109  23.719  0.00  0.00    +0.000 A 
ENDBRANCH  11  16
ENDBRANCH   4   7
BRANCH   1  24
ATOM     22  C   UNL     1       3.660   2.807  18.362  0.00  0.00    +0.000 C 
ATOM     23  O   UNL     1       3.674   1.647  17.943  0.00  0.00    +0.000 OA
ATOM     24  N   UNL     1       2.444   3.437  18.510  0.00  0.00    +0.000 N 
ATOM     25  H   UNL     1       1.685   2.765  18.552  0.00  0.00    +0.000 HD
BRANCH  22  26
ATOM     26  C   UNL     1       4.948   3.517  18.782  0.00  0.00    +0.000 C 
BRANCH  26  27
ATOM     27  O   UNL     1       5.656   3.992  17.653  0.00  0.00    +0.000 OA
BRANCH  27  34
ATOM     28  C   UNL     1       5.144   6.533  15.809  0.00  0.00    +0.000 C 
ATOM     29  C   UNL     1       6.137   6.354  16.922  0.00  0.00    +0.000 A 
ATOM     30  C   UNL     1       6.957   7.474  17.189  0.00  0.00    +0.000 A 
ATOM     31  C   UNL     1       7.924   7.459  18.193  0.00  0.00    +0.000 A 
ATOM     32  C   UNL     1       8.087   6.319  18.963  0.00  0.00    +0.000 A 
ATOM     33  C   UNL     1       7.286   5.203  18.721  0.00  0.00    +0.000 A 
ATOM     34  C   UNL     1       6.310   5.196  17.703  0.00  0.00    +0.000 A 
ENDBRANCH  27  34
ENDBRANCH  26  27
ENDBRANCH  22  26
ENDBRANCH   1  24
TORSDOF 6
ENDMDL
MODEL 2
REMARK VINA RESULT:      -9.3      2.051      3.799
REMARK  Name = 
REMARK  7 active torsions:
REMARK  status: ('A' for Active; 'I' for Inactive)
REMARK    1  A    between atoms: C_1  and  C_2
REMARK    2  A    between atoms: C_7  and  O_8
REMARK    3  A    between atoms: O_8  and  C_9
REMARK    4  A    between atoms: C_9  and  C_10
REMARK    5  A    between atoms: N_12  and  C_13
REMARK    6  A    between atoms: C_16  and  C_17
REMARK    7  A    between atoms: C_21  and  C_22
REMARK                            x       y       z     vdW  Elec       q    Type
REMARK                         _______ _______ _______ _____ _____    ______ ____
ROOT
ATOM      1  C   UNL     1       4.099   6.113  17.910  0.00  0.00    +0.000 A 
ATOM      2  C   UNL     1       3.754   5.801  19.221  0.00  0.00    +0.000 A 
ATOM      3  C   UNL     1       2.858   6.615  19.914  0.00  0.00    +0.000 A 
ATOM      4  C   UNL     1       2.314   7.763  19.307  0.00  0.00    +0.000 A 
ATOM      5  C   UNL     1       2.723   8.099  18.016  0.00  0.00    +0.000 A 
ATOM      6  C   UNL     1       3.631   7.287  17.318  0.00  0.00    +0.000 A 
ENDROOT
BRANCH   4   7
ATOM      7  C   UNL     1       1.287   8.508  20.024  0.00  0.00    +0.000 A 
ATOM      8  N   UNL     1       0.629   9.550  19.568  0.00  0.00    +0.000 NA
ATOM      9  C   UNL     1      -0.015  10.014  20.669  0.00  0.00    +0.000 A 
ATOM     10  C   UNL     1      -0.767  11.172  20.814  0.00  0.00    +0.000 A 
ATOM     11  C   UNL     1      -1.314  11.523  22.062  0.00  0.00    +0.000 A 
ATOM     12  C   UNL     1      -1.090  10.653  23.149  0.00  0.00    +0.000 A 
ATOM     13  C   UNL     1      -0.325   9.460  23.028  0.00  0.00    +0.000 A 
ATOM     14  C   UNL     1       0.202   9.210  21.762  0.00  0.00    +0.000 A 
ATOM     15  O   UNL     1       1.048   8.202  21.350  0.00  0.00    +0.000 OA
BRANCH  11  16
ATOM     16  C   UNL     1      -1.995  12.838  22.134  0.00  0.00    +0.000 A 
ATOM     17  C   UNL     1      -2.772  13.156  23.272  0.00  0.00    +0.000 A 
ATOM     18  C   UNL     1      -3.689  14.205  23.273  0.00  0.00    +0.000 A 
ATOM     19  C   UNL     1      -3.797  15.017  22.153  0.00  0.00    +0.000 A 
ATOM     20  C   UNL     1      -2.967  14.793  21.056  0.00  0.00    +0.000 A 
ATOM     21  C   UNL     1      -2.070  13.714  21.044  0.00  0.00    +0.000 A 
ENDBRANCH  11  16
ENDBRANCH   4   7
BRANCH   1  24
ATOM     22  C   UNL     1       4.599   4.073  16.595  0.00  0.00    +0.000 C 
ATOM     23  O   UNL     1       5.432   3.499  15.889  0.00  0.00    +0.000 OA
ATOM     24  N   UNL     1       4.938   5.284  17.159  0.00  0.00    +0.000 N 
ATOM     25  H   UNL     1       5.722   5.708  16.673  0.00  0.00    +0.000 HD
BRANCH  22  26
ATOM     26  C   UNL     1       3.192   3.506  16.787  0.00  0.00    +0.000 C 
BRANCH  26  27
ATOM     27  O   UNL     1       3.200   2.436  17.715  0.00  0.00    +0.000 OA
BRANCH  27  34
ATOM     28  C   UNL     1       4.720   1.847  20.446  0.00  0.00    +0.000 C 
ATOM     29  C   UNL     1       3.332   2.380  20.229  0.00  0.00    +0.000 A 
ATOM     30  C   UNL     1       2.599   2.663  21.406  0.00  0.00    +0.000 A 
ATOM     31  C   UNL     1       1.300   3.164  21.364  0.00  0.00    +0.000 A 
ATOM     32  C   UNL     1       0.703   3.404  20.137  0.00  0.00    +0.000 A 
ATOM     33  C   UNL     1       1.407   3.137  18.963  0.00  0.00    +0.000 A 
ATOM     34  C   UNL     1       2.719   2.620  18.986  0.00  0.00    +0.000 A 
ENDBRANCH  27  34
ENDBRANCH  26  27
ENDBRANCH  22  26
ENDBRANCH   1  24
TORSDOF 6
ENDMDL
MODEL 3
REMARK VINA RESULT:      -9.3      2.041      3.929
REMARK  Name = 
REMARK  7 active torsions:
REMARK  status: ('A' for Active; 'I' for Inactive)
REMARK    1  A    between atoms: C_1  and  C_2
REMARK    2  A    between atoms: C_7  and  O_8
REMARK    3  A    between atoms: O_8  and  C_9
REMARK    4  A    between atoms: C_9  and  C_10
REMARK    5  A    between atoms: N_12  and  C_13
REMARK    6  A    between atoms: C_16  and  C_17
REMARK    7  A    between atoms: C_21  and  C_22
REMARK                            x       y       z     vdW  Elec       q    Type
REMARK                         _______ _______ _______ _____ _____    ______ ____
ROOT
ATOM      1  C   UNL     1       4.129   6.148  18.094  0.00  0.00    +0.000 A 
ATOM      2  C   UNL     1       3.561   7.233  17.432  0.00  0.00    +0.000 A 
ATOM      3  C   UNL     1       2.601   8.012  18.077  0.00  0.00    +0.000 A 
ATOM      4  C   UNL     1       2.182   7.700  19.384  0.00  0.00    +0.000 A 
ATOM      5  C   UNL     1       2.711   6.569  20.007  0.00  0.00    +0.000 A 
ATOM      6  C   UNL     1       3.672   5.777  19.360  0.00  0.00    +0.000 A 
ENDROOT
BRANCH   4   7
ATOM      7  C   UNL     1       1.273   8.616  20.061  0.00  0.00    +0.000 A 
ATOM      8  N   UNL     1       1.030   9.860  19.713  0.00  0.00    +0.000 NA
ATOM      9  C   UNL     1       0.328  10.343  20.770  0.00  0.00    +0.000 A 
ATOM     10  C   UNL     1      -0.094  11.644  21.013  0.00  0.00    +0.000 A 
ATOM     11  C   UNL     1      -0.767  11.971  22.205  0.00  0.00    +0.000 A 
ATOM     12  C   UNL     1      -1.013  10.934  23.130  0.00  0.00    +0.000 A 
ATOM     13  C   UNL     1      -0.593   9.594  22.906  0.00  0.00    +0.000 A 
ATOM     14  C   UNL     1       0.091   9.370  21.712  0.00  0.00    +0.000 A 
ATOM     15  O   UNL     1       0.696   8.220  21.253  0.00  0.00    +0.000 OA
BRANCH  11  16
ATOM     16  C   UNL     1      -1.064  13.408  22.418  0.00  0.00    +0.000 A 
ATOM     17  C   UNL     1      -0.833  14.325  21.366  0.00  0.00    +0.000 A 
ATOM     18  C   UNL     1      -0.772  15.701  21.585  0.00  0.00    +0.000 A 
ATOM     19  C   UNL     1      -1.019  16.200  22.855  0.00  0.00    +0.000 A 
ATOM     20  C   UNL     1      -1.354  15.326  23.888  0.00  0.00    +0.000 A 
ATOM     21  C   UNL     1      -1.379  13.940  23.674  0.00  0.00    +0.000 A 
ENDBRANCH  11  16
ENDBRANCH   4   7
BRANCH   1  24
ATOM     22  C   UNL     1       4.988   4.188  16.844  0.00  0.00    +0.000 C 
ATOM     23  O   UNL     1       5.976   3.678  16.311  0.00  0.00    +0.000 OA
ATOM     24  N   UNL     1       5.144   5.386  17.508  0.00  0.00    +0.000 N 
ATOM     25  H   UNL     1       5.991   5.861  17.214  0.00  0.00    +0.000 HD
BRANCH  22  26
ATOM     26  C   UNL     1       3.600   3.559  16.717  0.00  0.00    +0.000 C 
BRANCH  26  27
ATOM     27  O   UNL     1       3.468   2.445  17.581  0.00  0.00    +0.000 OA
BRANCH  27  34
ATOM     28  C   UNL     1       4.792   1.972  20.435  0.00  0.00    +0.000 C 
ATOM     29  C   UNL     1       3.390   2.395  20.098  0.00  0.00    +0.000 A 
ATOM     30  C   UNL     1       2.540   2.617  21.207  0.00  0.00    +0.000 A 
ATOM     31  C   UNL     1       1.213   3.014  21.053  0.00  0.00    +0.000 A 
ATOM     32  C   UNL     1       0.706   3.209  19.779  0.00  0.00    +0.000 A 
ATOM     33  C   UNL     1       1.526   3.001  18.670  0.00  0.00    +0.000 A 
ATOM     34  C   UNL     1       2.868   2.589  18.806  0.00  0.00    +0.000 A 
ENDBRANCH  27  34
ENDBRANCH  26  27
ENDBRANCH  22  26
ENDBRANCH   1  24
TORSDOF 6
ENDMDL
MODEL 4
REMARK VINA RESULT:      -9.1      1.993      3.836
REMARK  Name = 
REMARK  7 active torsions:
REMARK  status: ('A' for Active; 'I' for Inactive)
REMARK    1  A    between atoms: C_1  and  C_2
REMARK    2  A    between atoms: C_7  and  O_8
REMARK    3  A    between atoms: O_8  and  C_9
REMARK    4  A    between atoms: C_9  and  C_10
REMARK    5  A    between atoms: N_12  and  C_13
REMARK    6  A    between atoms: C_16  and  C_17
REMARK    7  A    between atoms: C_21  and  C_22
REMARK                            x       y       z     vdW  Elec       q    Type
REMARK                         _______ _______ _______ _____ _____    ______ ____
ROOT
ATOM      1  C   UNL     1       3.814   6.573  18.238  0.00  0.00    +0.000 A 
ATOM      2  C   UNL     1       3.521   7.595  17.340  0.00  0.00    +0.000 A 
ATOM      3  C   UNL     1       2.556   8.548  17.666  0.00  0.00    +0.000 A 
ATOM      4  C   UNL     1       1.859   8.475  18.886  0.00  0.00    +0.000 A 
ATOM      5  C   UNL     1       2.116   7.407  19.745  0.00  0.00    +0.000 A 
ATOM      6  C   UNL     1       3.080   6.440  19.418  0.00  0.00    +0.000 A 
ENDROOT
BRANCH   4   7
ATOM      7  C   UNL     1       0.954   9.564  19.236  0.00  0.00    +0.000 A 
ATOM      8  N   UNL     1       0.853  10.134  20.416  0.00  0.00    +0.000 NA
ATOM      9  C   UNL     1      -0.263  10.896  20.295  0.00  0.00    +0.000 A 
ATOM     10  C   UNL     1      -0.926  11.630  21.270  0.00  0.00    +0.000 A 
ATOM     11  C   UNL     1      -2.116  12.318  20.967  0.00  0.00    +0.000 A 
ATOM     12  C   UNL     1      -2.599  12.252  19.643  0.00  0.00    +0.000 A 
ATOM     13  C   UNL     1      -1.940  11.508  18.626  0.00  0.00    +0.000 A 
ATOM     14  C   UNL     1      -0.785  10.836  19.024  0.00  0.00    +0.000 A 
ATOM     15  O   UNL     1       0.015   9.972  18.308  0.00  0.00    +0.000 OA
BRANCH  11  16
ATOM     16  C   UNL     1      -2.806  12.968  22.107  0.00  0.00    +0.000 A 
ATOM     17  C   UNL     1      -2.745  14.375  22.242  0.00  0.00    +0.000 A 
ATOM     18  C   UNL     1      -3.075  15.019  23.434  0.00  0.00    +0.000 A 
ATOM     19  C   UNL     1      -3.551  14.272  24.502  0.00  0.00    +0.000 A 
ATOM     20  C   UNL     1      -3.722  12.896  24.362  0.00  0.00    +0.000 A 
ATOM     21  C   UNL     1      -3.355  12.246  23.174  0.00  0.00    +0.000 A 
ENDBRANCH  11  16
ENDBRANCH   4   7
BRANCH   1  24
ATOM     22  C   UNL     1       4.666   4.415  17.368  0.00  0.00    +0.000 C 
ATOM     23  O   UNL     1       5.671   3.740  17.137  0.00  0.00    +0.000 OA
ATOM     24  N   UNL     1       4.823   5.640  17.979  0.00  0.00    +0.000 N 
ATOM     25  H   UNL     1       5.776   5.978  17.885  0.00  0.00    +0.000 HD
BRANCH  22  26
ATOM     26  C   UNL     1       3.277   3.952  16.925  0.00  0.00    +0.000 C 
BRANCH  26  27
ATOM     27  O   UNL     1       2.893   2.775  17.610  0.00  0.00    +0.000 OA
BRANCH  27  34
ATOM     28  C   UNL     1       4.654   2.062  20.161  0.00  0.00    +0.000 C 
ATOM     29  C   UNL     1       3.229   2.535  20.095  0.00  0.00    +0.000 A 
ATOM     30  C   UNL     1       2.581   2.686  21.343  0.00  0.00    +0.000 A 
ATOM     31  C   UNL     1       1.260   3.118  21.441  0.00  0.00    +0.000 A 
ATOM     32  C   UNL     1       0.555   3.418  20.287  0.00  0.00    +0.000 A 
ATOM     33  C   UNL     1       1.175   3.281  19.045  0.00  0.00    +0.000 A 
ATOM     34  C   UNL     1       2.508   2.835  18.925  0.00  0.00    +0.000 A 
ENDBRANCH  27  34
ENDBRANCH  26  27
ENDBRANCH  22  26
ENDBRANCH   1  24
TORSDOF 6
ENDMDL
MODEL 5
REMARK VINA RESULT:      -9.0      2.099      3.909
REMARK  Name = 
REMARK  7 active torsions:
REMARK  status: ('A' for Active; 'I' for Inactive)
REMARK    1  A    between atoms: C_1  and  C_2
REMARK    2  A    between atoms: C_7  and  O_8
REMARK    3  A    between atoms: O_8  and  C_9
REMARK    4  A    between atoms: C_9  and  C_10
REMARK    5  A    between atoms: N_12  and  C_13
REMARK    6  A    between atoms: C_16  and  C_17
REMARK    7  A    between atoms: C_21  and  C_22
REMARK                            x       y       z     vdW  Elec       q    Type
REMARK                         _______ _______ _______ _____ _____    ______ ____
ROOT
ATOM      1  C   UNL     1       3.823   6.339  18.350  0.00  0.00    +0.000 A 
ATOM      2  C   UNL     1       3.287   7.419  17.654  0.00  0.00    +0.000 A 
ATOM      3  C   UNL     1       2.294   8.199  18.246  0.00  0.00    +0.000 A 
ATOM      4  C   UNL     1       1.811   7.893  19.532  0.00  0.00    +0.000 A 
ATOM      5  C   UNL     1       2.311   6.768  20.188  0.00  0.00    +0.000 A 
ATOM      6  C   UNL     1       3.305   5.974  19.594  0.00  0.00    +0.000 A 
ENDROOT
BRANCH   4   7
ATOM      7  C   UNL     1       0.867   8.812  20.158  0.00  0.00    +0.000 A 
ATOM      8  N   UNL     1       0.366   9.896  19.609  0.00  0.00    +0.000 NA
ATOM      9  C   UNL     1      -0.246  10.513  20.651  0.00  0.00    +0.000 A 
ATOM     10  C   UNL     1      -0.845  11.765  20.691  0.00  0.00    +0.000 A 
ATOM     11  C   UNL     1      -1.382  12.268  21.892  0.00  0.00    +0.000 A 
ATOM     12  C   UNL     1      -1.308  11.453  23.040  0.00  0.00    +0.000 A 
ATOM     13  C   UNL     1      -0.701  10.167  23.027  0.00  0.00    +0.000 A 
ATOM     14  C   UNL     1      -0.172   9.764  21.802  0.00  0.00    +0.000 A 
ATOM     15  O   UNL     1       0.549   8.631  21.490  0.00  0.00    +0.000 OA
BRANCH  11  16
ATOM     16  C   UNL     1      -1.887  13.661  21.851  0.00  0.00    +0.000 A 
ATOM     17  C   UNL     1      -3.118  13.970  22.474  0.00  0.00    +0.000 A 
ATOM     18  C   UNL     1      -3.808  15.151  22.205  0.00  0.00    +0.000 A 
ATOM     19  C   UNL     1      -3.241  16.093  21.359  0.00  0.00    +0.000 A 
ATOM     20  C   UNL     1      -1.980  15.862  20.814  0.00  0.00    +0.000 A 
ATOM     21  C   UNL     1      -1.303  14.657  21.058  0.00  0.00    +0.000 A 
ENDBRANCH  11  16
ENDBRANCH   4   7
BRANCH   1  24
ATOM     22  C   UNL     1       4.743   4.410  17.097  0.00  0.00    +0.000 C 
ATOM     23  O   UNL     1       5.762   3.897  16.628  0.00  0.00    +0.000 OA
ATOM     24  N   UNL     1       4.868   5.576  17.820  0.00  0.00    +0.000 N 
ATOM     25  H   UNL     1       5.747   6.042  17.617  0.00  0.00    +0.000 HD
BRANCH  22  26
ATOM     26  C   UNL     1       3.358   3.819  16.828  0.00  0.00    +0.000 C 
BRANCH  26  27
ATOM     27  O   UNL     1       3.155   2.641  17.586  0.00  0.00    +0.000 OA
BRANCH  27  34
ATOM     28  C   UNL     1       4.768   2.050  20.262  0.00  0.00    +0.000 C 
ATOM     29  C   UNL     1       3.336   2.471  20.092  0.00  0.00    +0.000 A 
ATOM     30  C   UNL     1       2.603   2.629  21.292  0.00  0.00    +0.000 A 
ATOM     31  C   UNL     1       1.264   3.017  21.293  0.00  0.00    +0.000 A 
ATOM     32  C   UNL     1       0.627   3.265  20.089  0.00  0.00    +0.000 A 
ATOM     33  C   UNL     1       1.331   3.120  18.893  0.00  0.00    +0.000 A 
ATOM     34  C   UNL     1       2.683   2.719  18.871  0.00  0.00    +0.000 A 
ENDBRANCH  27  34
ENDBRANCH  26  27
ENDBRANCH  22  26
ENDBRANCH   1  24
TORSDOF 6
ENDMDL
MODEL 6
REMARK VINA RESULT:      -9.0      2.017      3.693
REMARK  Name = 
REMARK  7 active torsions:
REMARK  status: ('A' for Active; 'I' for Inactive)
REMARK    1  A    between atoms: C_1  and  C_2
REMARK    2  A    between atoms: C_7  and  O_8
REMARK    3  A    between atoms: O_8  and  C_9
REMARK    4  A    between atoms: C_9  and  C_10
REMARK    5  A    between atoms: N_12  and  C_13
REMARK    6  A    between atoms: C_16  and  C_17
REMARK    7  A    between atoms: C_21  and  C_22
REMARK                            x       y       z     vdW  Elec       q    Type
REMARK                         _______ _______ _______ _____ _____    ______ ____
ROOT
ATOM      1  C   UNL     1       4.312   6.335  18.018  0.00  0.00    +0.000 A 
ATOM      2  C   UNL     1       3.568   7.300  17.346  0.00  0.00    +0.000 A 
ATOM      3  C   UNL     1       2.550   7.980  18.015  0.00  0.00    +0.000 A 
ATOM      4  C   UNL     1       2.251   7.683  19.358  0.00  0.00    +0.000 A 
ATOM      5  C   UNL     1       2.961   6.665  19.996  0.00  0.00    +0.000 A 
ATOM      6  C   UNL     1       3.981   5.973  19.325  0.00  0.00    +0.000 A 
ENDROOT
BRANCH   4   7
ATOM      7  C   UNL     1       1.267   8.506  20.050  0.00  0.00    +0.000 A 
ATOM      8  N   UNL     1       0.814   9.672  19.645  0.00  0.00    +0.000 NA
ATOM      9  C   UNL     1       0.128  10.126  20.724  0.00  0.00    +0.000 A 
ATOM     10  C   UNL     1      -0.467  11.366  20.918  0.00  0.00    +0.000 A 
ATOM     11  C   UNL     1      -1.090  11.682  22.141  0.00  0.00    +0.000 A 
ATOM     12  C   UNL     1      -1.106  10.694  23.148  0.00  0.00    +0.000 A 
ATOM     13  C   UNL     1      -0.506   9.417  22.975  0.00  0.00    +0.000 A 
ATOM     14  C   UNL     1       0.112   9.204  21.744  0.00  0.00    +0.000 A 
ATOM     15  O   UNL     1       0.849   8.122  21.310  0.00  0.00    +0.000 OA
BRANCH  11  16
ATOM     16  C   UNL     1      -1.583  13.073  22.285  0.00  0.00    +0.000 A 
ATOM     17  C   UNL     1      -2.297  13.668  21.219  0.00  0.00    +0.000 A 
ATOM     18  C   UNL     1      -2.502  15.045  21.143  0.00  0.00    +0.000 A 
ATOM     19  C   UNL     1      -2.063  15.857  22.179  0.00  0.00    +0.000 A 
ATOM     20  C   UNL     1      -1.450  15.285  23.293  0.00  0.00    +0.000 A 
ATOM     21  C   UNL     1      -1.214  13.903  23.350  0.00  0.00    +0.000 A 
ENDBRANCH  11  16
ENDBRANCH   4   7
BRANCH   1  24
ATOM     22  C   UNL     1       5.362   4.429  16.833  0.00  0.00    +0.000 C 
ATOM     23  O   UNL     1       6.375   4.026  16.257  0.00  0.00    +0.000 OA
ATOM     24  N   UNL     1       5.386   5.683  17.404  0.00  0.00    +0.000 N 
ATOM     25  H   UNL     1       6.131   6.250  17.012  0.00  0.00    +0.000 HD
BRANCH  22  26
ATOM     26  C   UNL     1       4.077   3.600  16.858  0.00  0.00    +0.000 C 
BRANCH  26  27
ATOM     27  O   UNL     1       4.034   2.767  18.002  0.00  0.00    +0.000 OA
BRANCH  27  34
ATOM     28  C   UNL     1       1.160   4.063  17.578  0.00  0.00    +0.000 C 
ATOM     29  C   UNL     1       1.774   3.508  18.832  0.00  0.00    +0.000 A 
ATOM     30  C   UNL     1       0.958   3.568  19.985  0.00  0.00    +0.000 A 
ATOM     31  C   UNL     1       1.390   3.091  21.221  0.00  0.00    +0.000 A 
ATOM     32  C   UNL     1       2.653   2.533  21.330  0.00  0.00    +0.000 A 
ATOM     33  C   UNL     1       3.474   2.458  20.205  0.00  0.00    +0.000 A 
ATOM     34  C   UNL     1       3.057   2.945  18.949  0.00  0.00    +0.000 A 
ENDBRANCH  27  34
ENDBRANCH  26  27
ENDBRANCH  22  26
ENDBRANCH   1  24
TORSDOF 6
ENDMDL
MODEL 7
REMARK VINA RESULT:      -8.9      2.122      3.830
REMARK  Name = 
REMARK  7 active torsions:
REMARK  status: ('A' for Active; 'I' for Inactive)
REMARK    1  A    between atoms: C_1  and  C_2
REMARK    2  A    between atoms: C_7  and  O_8
REMARK    3  A    between atoms: O_8  and  C_9
REMARK    4  A    between atoms: C_9  and  C_10
REMARK    5  A    between atoms: N_12  and  C_13
REMARK    6  A    between atoms: C_16  and  C_17
REMARK    7  A    between atoms: C_21  and  C_22
REMARK                            x       y       z     vdW  Elec       q    Type
REMARK                         _______ _______ _______ _____ _____    ______ ____
ROOT
ATOM      1  C   UNL     1       3.993   6.264  18.003  0.00  0.00    +0.000 A 
ATOM      2  C   UNL     1       3.224   6.217  19.163  0.00  0.00    +0.000 A 
ATOM      3  C   UNL     1       2.350   7.264  19.457  0.00  0.00    +0.000 A 
ATOM      4  C   UNL     1       2.254   8.380  18.605  0.00  0.00    +0.000 A 
ATOM      5  C   UNL     1       3.081   8.443  17.483  0.00  0.00    +0.000 A 
ATOM      6  C   UNL     1       3.968   7.396  17.186  0.00  0.00    +0.000 A 
ENDROOT
BRANCH   4   7
ATOM      7  C   UNL     1       1.236   9.385  18.887  0.00  0.00    +0.000 A 
ATOM      8  N   UNL     1       1.013   9.951  20.052  0.00  0.00    +0.000 NA
ATOM      9  C   UNL     1      -0.158  10.609  19.855  0.00  0.00    +0.000 A 
ATOM     10  C   UNL     1      -0.942  11.287  20.779  0.00  0.00    +0.000 A 
ATOM     11  C   UNL     1      -2.168  11.863  20.397  0.00  0.00    +0.000 A 
ATOM     12  C   UNL     1      -2.561  11.745  19.047  0.00  0.00    +0.000 A 
ATOM     13  C   UNL     1      -1.778  11.057  18.081  0.00  0.00    +0.000 A 
ATOM     14  C   UNL     1      -0.594  10.494  18.556  0.00  0.00    +0.000 A 
ATOM     15  O   UNL     1       0.322   9.700  17.899  0.00  0.00    +0.000 OA
BRANCH  11  16
ATOM     16  C   UNL     1      -2.981  12.456  21.486  0.00  0.00    +0.000 A 
ATOM     17  C   UNL     1      -2.625  12.205  22.831  0.00  0.00    +0.000 A 
ATOM     18  C   UNL     1      -3.505  12.443  23.886  0.00  0.00    +0.000 A 
ATOM     19  C   UNL     1      -4.742  13.015  23.626  0.00  0.00    +0.000 A 
ATOM     20  C   UNL     1      -5.077  13.370  22.321  0.00  0.00    +0.000 A 
ATOM     21  C   UNL     1      -4.205  13.097  21.257  0.00  0.00    +0.000 A 
ENDBRANCH  11  16
ENDBRANCH   4   7
BRANCH   1  24
ATOM     22  C   UNL     1       4.434   4.017  17.057  0.00  0.00    +0.000 C 
ATOM     23  O   UNL     1       5.304   3.212  16.717  0.00  0.00    +0.000 OA
ATOM     24  N   UNL     1       4.827   5.204  17.637  0.00  0.00    +0.000 N 
ATOM     25  H   UNL     1       5.800   5.407  17.433  0.00  0.00    +0.000 HD
BRANCH  22  26
ATOM     26  C   UNL     1       2.953   3.755  16.778  0.00  0.00    +0.000 C 
BRANCH  26  27
ATOM     27  O   UNL     1       2.479   2.663  17.544  0.00  0.00    +0.000 OA
BRANCH  27  34
ATOM     28  C   UNL     1       4.519   1.827  19.837  0.00  0.00    +0.000 C 
ATOM     29  C   UNL     1       3.155   2.446  19.961  0.00  0.00    +0.000 A 
ATOM     30  C   UNL     1       2.719   2.694  21.283  0.00  0.00    +0.000 A 
ATOM     31  C   UNL     1       1.477   3.265  21.555  0.00  0.00    +0.000 A 
ATOM     32  C   UNL     1       0.643   3.611  20.505  0.00  0.00    +0.000 A 
ATOM     33  C   UNL     1       1.054   3.381  19.192  0.00  0.00    +0.000 A 
ATOM     34  C   UNL     1       2.302   2.794  18.898  0.00  0.00    +0.000 A 
ENDBRANCH  27  34
ENDBRANCH  26  27
ENDBRANCH  22  26
ENDBRANCH   1  24
TORSDOF 6
ENDMDL
MODEL 8
REMARK VINA RESULT:      -8.6      3.304     10.757
REMARK  Name = 
REMARK  7 active torsions:
REMARK  status: ('A' for Active; 'I' for Inactive)
REMARK    1  A    between atoms: C_1  and  C_2
REMARK    2  A    between atoms: C_7  and  O_8
REMARK    3  A    between atoms: O_8  and  C_9
REMARK    4  A    between atoms: C_9  and  C_10
REMARK    5  A    between atoms: N_12  and  C_13
REMARK    6  A    between atoms: C_16  and  C_17
REMARK    7  A    between atoms: C_21  and  C_22
REMARK                            x       y       z     vdW  Elec       q    Type
REMARK                         _______ _______ _______ _____ _____    ______ ____
ROOT
ATOM      1  C   UNL     1       0.352   9.985  20.233  0.00  0.00    +0.000 A 
ATOM      2  C   UNL     1       0.923   8.938  20.951  0.00  0.00    +0.000 A 
ATOM      3  C   UNL     1       1.743   8.017  20.299  0.00  0.00    +0.000 A 
ATOM      4  C   UNL     1       1.983   8.122  18.916  0.00  0.00    +0.000 A 
ATOM      5  C   UNL     1       1.349   9.137  18.199  0.00  0.00    +0.000 A 
ATOM      6  C   UNL     1       0.516  10.062  18.849  0.00  0.00    +0.000 A 
ENDROOT
BRANCH   4   7
ATOM      7  C   UNL     1       2.946   7.214  18.306  0.00  0.00    +0.000 A 
ATOM      8  N   UNL     1       3.766   7.506  17.321  0.00  0.00    +0.000 NA
ATOM      9  C   UNL     1       4.263   6.295  16.965  0.00  0.00    +0.000 A 
ATOM     10  C   UNL     1       5.088   5.973  15.896  0.00  0.00    +0.000 A 
ATOM     11  C   UNL     1       5.457   4.637  15.648  0.00  0.00    +0.000 A 
ATOM     12  C   UNL     1       4.978   3.646  16.530  0.00  0.00    +0.000 A 
ATOM     13  C   UNL     1       4.133   3.948  17.633  0.00  0.00    +0.000 A 
ATOM     14  C   UNL     1       3.797   5.293  17.783  0.00  0.00    +0.000 A 
ATOM     15  O   UNL     1       2.937   5.885  18.683  0.00  0.00    +0.000 OA
BRANCH  11  16
ATOM     16  C   UNL     1       6.239   4.391  14.413  0.00  0.00    +0.000 A 
ATOM     17  C   UNL     1       7.332   5.233  14.105  0.00  0.00    +0.000 A 
ATOM     18  C   UNL     1       7.898   5.277  12.832  0.00  0.00    +0.000 A 
ATOM     19  C   UNL     1       7.431   4.416  11.849  0.00  0.00    +0.000 A 
ATOM     20  C   UNL     1       6.425   3.500  12.155  0.00  0.00    +0.000 A 
ATOM     21  C   UNL     1       5.833   3.483  13.426  0.00  0.00    +0.000 A 
ENDBRANCH  11  16
ENDBRANCH   4   7
BRANCH   1  24
ATOM     22  C   UNL     1      -0.127  12.313  20.933  0.00  0.00    +0.000 C 
ATOM     23  O   UNL     1      -0.951  13.066  21.456  0.00  0.00    +0.000 OA
ATOM     24  N   UNL     1      -0.418  10.967  20.863  0.00  0.00    +0.000 N 
ATOM     25  H   UNL     1      -1.413  10.801  20.972  0.00  0.00    +0.000 HD
BRANCH  22  26
ATOM     26  C   UNL     1       1.158  12.853  20.304  0.00  0.00    +0.000 C 
BRANCH  26  27
ATOM     27  O   UNL     1       0.883  13.532  19.093  0.00  0.00    +0.000 OA
BRANCH  27  34
ATOM     28  C   UNL     1       0.031  16.597  19.051  0.00  0.00    +0.000 C 
ATOM     29  C   UNL     1       1.341  15.972  18.665  0.00  0.00    +0.000 A 
ATOM     30  C   UNL     1       2.337  16.874  18.223  0.00  0.00    +0.000 A 
ATOM     31  C   UNL     1       3.604  16.442  17.833  0.00  0.00    +0.000 A 
ATOM     32  C   UNL     1       3.907  15.092  17.885  0.00  0.00    +0.000 A 
ATOM     33  C   UNL     1       2.943  14.183  18.321  0.00  0.00    +0.000 A 
ATOM     34  C   UNL     1       1.653  14.601  18.710  0.00  0.00    +0.000 A 
ENDBRANCH  27  34
ENDBRANCH  26  27
ENDBRANCH  22  26
ENDBRANCH   1  24
TORSDOF 6
ENDMDL
MODEL 9
REMARK VINA RESULT:      -8.6      3.572     11.501
REMARK  Name = 
REMARK  7 active torsions:
REMARK  status: ('A' for Active; 'I' for Inactive)
REMARK    1  A    between atoms: C_1  and  C_2
REMARK    2  A    between atoms: C_7  and  O_8
REMARK    3  A    between atoms: O_8  and  C_9
REMARK    4  A    between atoms: C_9  and  C_10
REMARK    5  A    between atoms: N_12  and  C_13
REMARK    6  A    between atoms: C_16  and  C_17
REMARK    7  A    between atoms: C_21  and  C_22
REMARK                            x       y       z     vdW  Elec       q    Type
REMARK                         _______ _______ _______ _____ _____    ______ ____
ROOT
ATOM      1  C   UNL     1       0.607  10.404  20.347  0.00  0.00    +0.000 A 
ATOM      2  C   UNL     1       0.813   9.163  20.941  0.00  0.00    +0.000 A 
ATOM      3  C   UNL     1       1.538   8.182  20.263  0.00  0.00    +0.000 A 
ATOM      4  C   UNL     1       2.046   8.428  18.974  0.00  0.00    +0.000 A 
ATOM      5  C   UNL     1       1.772   9.653  18.365  0.00  0.00    +0.000 A 
ATOM      6  C   UNL     1       1.036  10.640  19.039  0.00  0.00    +0.000 A 
ENDROOT
BRANCH   4   7
ATOM      7  C   UNL     1       2.904   7.421  18.361  0.00  0.00    +0.000 A 
ATOM      8  N   UNL     1       3.822   7.642  17.447  0.00  0.00    +0.000 NA
ATOM      9  C   UNL     1       4.158   6.392  17.040  0.00  0.00    +0.000 A 
ATOM     10  C   UNL     1       4.996   6.011  16.001  0.00  0.00    +0.000 A 
ATOM     11  C   UNL     1       5.179   4.650  15.686  0.00  0.00    +0.000 A 
ATOM     12  C   UNL     1       4.501   3.694  16.470  0.00  0.00    +0.000 A 
ATOM     13  C   UNL     1       3.637   4.057  17.540  0.00  0.00    +0.000 A 
ATOM     14  C   UNL     1       3.494   5.426  17.759  0.00  0.00    +0.000 A 
ATOM     15  O   UNL     1       2.672   6.089  18.646  0.00  0.00    +0.000 OA
BRANCH  11  16
ATOM     16  C   UNL     1       5.998   4.360  14.484  0.00  0.00    +0.000 A 
ATOM     17  C   UNL     1       7.187   5.093  14.262  0.00  0.00    +0.000 A 
ATOM     18  C   UNL     1       7.822   5.115  13.022  0.00  0.00    +0.000 A 
ATOM     19  C   UNL     1       7.324   4.336  11.987  0.00  0.00    +0.000 A 
ATOM     20  C   UNL     1       6.215   3.522  12.209  0.00  0.00    +0.000 A 
ATOM     21  C   UNL     1       5.556   3.529  13.447  0.00  0.00    +0.000 A 
ENDBRANCH  11  16
ENDBRANCH   4   7
BRANCH   1  24
ATOM     22  C   UNL     1      -1.279  11.974  20.693  0.00  0.00    +0.000 C 
ATOM     23  O   UNL     1      -1.765  12.827  21.438  0.00  0.00    +0.000 OA
ATOM     24  N   UNL     1      -0.053  11.436  21.021  0.00  0.00    +0.000 N 
ATOM     25  H   UNL     1       0.160  11.581  22.003  0.00  0.00    +0.000 HD
BRANCH  22  26
ATOM     26  C   UNL     1      -2.039  11.459  19.470  0.00  0.00    +0.000 C 
BRANCH  26  27
ATOM     27  O   UNL     1      -3.023  12.388  19.057  0.00  0.00    +0.000 OA
BRANCH  27  34
ATOM     28  C   UNL     1      -4.484  11.034  16.577  0.00  0.00    +0.000 C 
ATOM     29  C   UNL     1      -5.047  11.412  17.918  0.00  0.00    +0.000 A 
ATOM     30  C   UNL     1      -6.419  11.123  18.104  0.00  0.00    +0.000 A 
ATOM     31  C   UNL     1      -7.080  11.415  19.295  0.00  0.00    +0.000 A 
ATOM     32  C   UNL     1      -6.378  11.999  20.337  0.00  0.00    +0.000 A 
ATOM     33  C   UNL     1      -5.022  12.289  20.178  0.00  0.00    +0.000 A 
ATOM     34  C   UNL     1      -4.339  12.010  18.976  0.00  0.00    +0.000 A 
ENDBRANCH  27  34
ENDBRANCH  26  27
ENDBRANCH  22  26
ENDBRANCH   1  24
TORSDOF 6
ENDMDL
