MODEL 1
REMARK VINA RESULT:      -7.3      0.000      0.000
REMARK  Name = 
REMARK  10 active torsions:
REMARK  status: ('A' for Active; 'I' for Inactive)
REMARK    1  A    between atoms: C_1  and  C_2
REMARK    2  A    between atoms: C_5  and  C_6
REMARK    3  A    between atoms: C_6  and  C_8
REMARK    4  A    between atoms: C_8  and  O_9
REMARK    5  A    between atoms: O_9  and  C_10
REMARK    6  A    between atoms: C_10  and  C_12
REMARK    7  A    between atoms: C_12  and  O_13
REMARK    8  A    between atoms: O_13  and  C_14
REMARK    9  A    between atoms: C_19  and  O_20
REMARK   10  A    between atoms: C_22  and  C_23
REMARK                            x       y       z     vdW  Elec       q    Type
REMARK                         _______ _______ _______ _____ _____    ______ ____
ROOT
ATOM      1  O   UNL     1       4.915   5.997  17.807  0.00  0.00    +0.000 OA
ENDROOT
BRANCH   1   2
ATOM      2  C   UNL     1       5.263   4.678  17.771  0.00  0.00    +0.000 C 
ATOM      3  O   UNL     1       6.190   4.182  18.397  0.00  0.00    +0.000 OA
BRANCH   2   4
ATOM      4  C   UNL     1       4.187   3.882  17.029  0.00  0.00    +0.000 C 
BRANCH   4   5
ATOM      5  O   UNL     1       3.800   2.641  17.582  0.00  0.00    +0.000 OA
BRANCH   5   6
ATOM      6  C   UNL     1       3.133   2.691  18.786  0.00  0.00    +0.000 A 
ATOM      7  C   UNL     1       1.775   3.024  18.667  0.00  0.00    +0.000 A 
ATOM      8  C   UNL     1       0.942   3.085  19.789  0.00  0.00    +0.000 A 
ATOM      9  C   UNL     1       1.457   2.820  21.055  0.00  0.00    +0.000 A 
ATOM     10  C   UNL     1       2.805   2.505  21.198  0.00  0.00    +0.000 A 
ATOM     11  C   UNL     1       3.638   2.439  20.073  0.00  0.00    +0.000 A 
BRANCH  11  12
ATOM     12  O   UNL     1       4.952   2.120  20.281  0.00  0.00    +0.000 OA
ATOM     13  H   UNL     1       5.459   2.346  19.484  0.00  0.00    +0.000 HD
ENDBRANCH  11  12
ENDBRANCH   5   6
ENDBRANCH   4   5
ENDBRANCH   2   4
ENDBRANCH   1   2
BRANCH   1  14
ATOM     14  C   UNL     1       3.514   6.266  17.867  0.00  0.00    +0.000 C 
BRANCH  14  15
ATOM     15  C   UNL     1       2.942   6.537  19.254  0.00  0.00    +0.000 C 
ATOM     16  O   UNL     1       3.207   5.832  20.226  0.00  0.00    +0.000 OA
BRANCH  15  21
ATOM     17  C   UNL     1      -0.542  11.150  20.042  0.00  0.00    +0.000 C 
ATOM     18  C   UNL     1       0.357   9.957  19.851  0.00  0.00    +0.000 A 
ATOM     19  C   UNL     1       0.957   9.738  18.603  0.00  0.00    +0.000 A 
ATOM     20  C   UNL     1       1.794   8.638  18.387  0.00  0.00    +0.000 A 
ATOM     21  C   UNL     1       2.047   7.731  19.422  0.00  0.00    +0.000 A 
ATOM     22  C   UNL     1       1.453   7.949  20.673  0.00  0.00    +0.000 A 
ATOM     23  C   UNL     1       0.610   9.053  20.900  0.00  0.00    +0.000 A 
ATOM     24  C   UNL     1      -0.006   9.237  22.261  0.00  0.00    +0.000 C 
ENDBRANCH  15  21
ENDBRANCH  14  15
ENDBRANCH   1  14
TORSDOF 8
ENDMDL
MODEL 2
REMARK VINA RESULT:      -7.2      1.919      6.157
REMARK  Name = 
REMARK  10 active torsions:
REMARK  status: ('A' for Active; 'I' for Inactive)
REMARK    1  A    between atoms: C_1  and  C_2
REMARK    2  A    between atoms: C_5  and  C_6
REMARK    3  A    between atoms: C_6  and  C_8
REMARK    4  A    between atoms: C_8  and  O_9
REMARK    5  A    between atoms: O_9  and  C_10
REMARK    6  A    between atoms: C_10  and  C_12
REMARK    7  A    between atoms: C_12  and  O_13
REMARK    8  A    between atoms: O_13  and  C_14
REMARK    9  A    between atoms: C_19  and  O_20
REMARK   10  A    between atoms: C_22  and  C_23
REMARK                            x       y       z     vdW  Elec       q    Type
REMARK                         _______ _______ _______ _____ _____    ______ ____
ROOT
ATOM      1  O   UNL     1       2.579   2.373  20.566  0.00  0.00    +0.000 OA
ENDROOT
BRANCH   1   2
ATOM      2  C   UNL     1       1.704   3.089  21.330  0.00  0.00    +0.000 C 
ATOM      3  O   UNL     1       1.429   2.843  22.497  0.00  0.00    +0.000 OA
BRANCH   2   4
ATOM      4  C   UNL     1       1.308   4.372  20.593  0.00  0.00    +0.000 C 
BRANCH   4   5
ATOM      5  O   UNL     1       1.788   5.594  21.114  0.00  0.00    +0.000 OA
BRANCH   5   6
ATOM      6  C   UNL     1       1.898   6.637  20.221  0.00  0.00    +0.000 A 
ATOM      7  C   UNL     1       2.463   6.271  18.990  0.00  0.00    +0.000 A 
ATOM      8  C   UNL     1       2.617   7.201  17.957  0.00  0.00    +0.000 A 
ATOM      9  C   UNL     1       2.212   8.520  18.140  0.00  0.00    +0.000 A 
ATOM     10  C   UNL     1       1.665   8.910  19.360  0.00  0.00    +0.000 A 
ATOM     11  C   UNL     1       1.507   7.976  20.392  0.00  0.00    +0.000 A 
BRANCH  11  12
ATOM     12  O   UNL     1       0.959   8.422  21.564  0.00  0.00    +0.000 OA
ATOM     13  H   UNL     1       0.012   8.206  21.569  0.00  0.00    +0.000 HD
ENDBRANCH  11  12
ENDBRANCH   5   6
ENDBRANCH   4   5
ENDBRANCH   2   4
ENDBRANCH   1   2
BRANCH   1  14
ATOM     14  C   UNL     1       2.369   2.443  19.156  0.00  0.00    +0.000 C 
BRANCH  14  15
ATOM     15  C   UNL     1       3.610   2.280  18.284  0.00  0.00    +0.000 C 
ATOM     16  O   UNL     1       3.889   1.222  17.724  0.00  0.00    +0.000 OA
BRANCH  15  21
ATOM     17  C   UNL     1       6.995   6.951  17.414  0.00  0.00    +0.000 C 
ATOM     18  C   UNL     1       6.117   5.747  17.627  0.00  0.00    +0.000 A 
ATOM     19  C   UNL     1       6.017   5.184  18.907  0.00  0.00    +0.000 A 
ATOM     20  C   UNL     1       5.215   4.062  19.141  0.00  0.00    +0.000 A 
ATOM     21  C   UNL     1       4.494   3.479  18.093  0.00  0.00    +0.000 A 
ATOM     22  C   UNL     1       4.587   4.043  16.813  0.00  0.00    +0.000 A 
ATOM     23  C   UNL     1       5.391   5.171  16.567  0.00  0.00    +0.000 A 
ATOM     24  C   UNL     1       5.459   5.733  15.173  0.00  0.00    +0.000 C 
ENDBRANCH  15  21
ENDBRANCH  14  15
ENDBRANCH   1  14
TORSDOF 8
ENDMDL
MODEL 3
REMARK VINA RESULT:      -7.1      3.276      6.373
REMARK  Name = 
REMARK  10 active torsions:
REMARK  status: ('A' for Active; 'I' for Inactive)
REMARK    1  A    between atoms: C_1  and  C_2
REMARK    2  A    between atoms: C_5  and  C_6
REMARK    3  A    between atoms: C_6  and  C_8
REMARK    4  A    between atoms: C_8  and  O_9
REMARK    5  A    between atoms: O_9  and  C_10
REMARK    6  A    between atoms: C_10  and  C_12
REMARK    7  A    between atoms: C_12  and  O_13
REMARK    8  A    between atoms: O_13  and  C_14
REMARK    9  A    between atoms: C_19  and  O_20
REMARK   10  A    between atoms: C_22  and  C_23
REMARK                            x       y       z     vdW  Elec       q    Type
REMARK                         _______ _______ _______ _____ _____    ______ ____
ROOT
ATOM      1  O   UNL     1       5.786   6.641  17.603  0.00  0.00    +0.000 OA
ENDROOT
BRANCH   1   2
ATOM      2  C   UNL     1       5.192   5.815  18.513  0.00  0.00    +0.000 C 
ATOM      3  O   UNL     1       5.679   5.491  19.587  0.00  0.00    +0.000 OA
BRANCH   2   4
ATOM      4  C   UNL     1       3.741   5.553  18.099  0.00  0.00    +0.000 C 
BRANCH   4   5
ATOM      5  O   UNL     1       3.315   4.208  18.041  0.00  0.00    +0.000 OA
BRANCH   5   6
ATOM      6  C   UNL     1       2.875   3.656  19.224  0.00  0.00    +0.000 A 
ATOM      7  C   UNL     1       1.539   3.957  19.526  0.00  0.00    +0.000 A 
ATOM      8  C   UNL     1       0.922   3.447  20.674  0.00  0.00    +0.000 A 
ATOM      9  C   UNL     1       1.637   2.631  21.546  0.00  0.00    +0.000 A 
ATOM     10  C   UNL     1       2.971   2.335  21.274  0.00  0.00    +0.000 A 
ATOM     11  C   UNL     1       3.585   2.841  20.122  0.00  0.00    +0.000 A 
BRANCH  11  12
ATOM     12  O   UNL     1       4.896   2.509  19.911  0.00  0.00    +0.000 OA
ATOM     13  H   UNL     1       5.312   3.203  19.375  0.00  0.00    +0.000 HD
ENDBRANCH  11  12
ENDBRANCH   5   6
ENDBRANCH   4   5
ENDBRANCH   2   4
ENDBRANCH   1   2
BRANCH   1  14
ATOM     14  C   UNL     1       7.160   6.370  17.326  0.00  0.00    +0.000 C 
BRANCH  14  15
ATOM     15  C   UNL     1       7.477   4.967  16.817  0.00  0.00    +0.000 C 
ATOM     16  O   UNL     1       8.215   4.196  17.426  0.00  0.00    +0.000 OA
BRANCH  15  21
ATOM     17  C   UNL     1       5.069   3.290  11.775  0.00  0.00    +0.000 C 
ATOM     18  C   UNL     1       5.701   3.726  13.070  0.00  0.00    +0.000 A 
ATOM     19  C   UNL     1       5.115   3.346  14.286  0.00  0.00    +0.000 A 
ATOM     20  C   UNL     1       5.671   3.738  15.508  0.00  0.00    +0.000 A 
ATOM     21  C   UNL     1       6.829   4.523  15.537  0.00  0.00    +0.000 A 
ATOM     22  C   UNL     1       7.420   4.900  14.324  0.00  0.00    +0.000 A 
ATOM     23  C   UNL     1       6.869   4.512  13.089  0.00  0.00    +0.000 A 
ATOM     24  C   UNL     1       7.541   4.949  11.816  0.00  0.00    +0.000 C 
ENDBRANCH  15  21
ENDBRANCH  14  15
ENDBRANCH   1  14
TORSDOF 8
ENDMDL
MODEL 4
REMARK VINA RESULT:      -7.1      1.854      4.056
REMARK  Name = 
REMARK  10 active torsions:
REMARK  status: ('A' for Active; 'I' for Inactive)
REMARK    1  A    between atoms: C_1  and  C_2
REMARK    2  A    between atoms: C_5  and  C_6
REMARK    3  A    between atoms: C_6  and  C_8
REMARK    4  A    between atoms: C_8  and  O_9
REMARK    5  A    between atoms: O_9  and  C_10
REMARK    6  A    between atoms: C_10  and  C_12
REMARK    7  A    between atoms: C_12  and  O_13
REMARK    8  A    between atoms: O_13  and  C_14
REMARK    9  A    between atoms: C_19  and  O_20
REMARK   10  A    between atoms: C_22  and  C_23
REMARK                            x       y       z     vdW  Elec       q    Type
REMARK                         _______ _______ _______ _____ _____    ______ ____
ROOT
ATOM      1  O   UNL     1       3.008   2.493  19.942  0.00  0.00    +0.000 OA
ENDROOT
BRANCH   1   2
ATOM      2  C   UNL     1       4.372   2.517  19.964  0.00  0.00    +0.000 C 
ATOM      3  O   UNL     1       5.078   1.684  20.516  0.00  0.00    +0.000 OA
BRANCH   2   4
ATOM      4  C   UNL     1       4.883   3.596  19.004  0.00  0.00    +0.000 C 
BRANCH   4   5
ATOM      5  O   UNL     1       6.275   3.833  18.976  0.00  0.00    +0.000 OA
BRANCH   5   6
ATOM      6  C   UNL     1       6.675   5.067  18.515  0.00  0.00    +0.000 A 
ATOM      7  C   UNL     1       5.893   5.557  17.459  0.00  0.00    +0.000 A 
ATOM      8  C   UNL     1       6.141   6.813  16.894  0.00  0.00    +0.000 A 
ATOM      9  C   UNL     1       7.184   7.599  17.373  0.00  0.00    +0.000 A 
ATOM     10  C   UNL     1       7.985   7.125  18.408  0.00  0.00    +0.000 A 
ATOM     11  C   UNL     1       7.733   5.869  18.977  0.00  0.00    +0.000 A 
BRANCH  11  12
ATOM     12  O   UNL     1       8.554   5.463  19.994  0.00  0.00    +0.000 OA
ATOM     13  H   UNL     1       9.469   5.452  19.671  0.00  0.00    +0.000 HD
ENDBRANCH  11  12
ENDBRANCH   5   6
ENDBRANCH   4   5
ENDBRANCH   2   4
ENDBRANCH   1   2
BRANCH   1  14
ATOM     14  C   UNL     1       2.377   3.663  19.421  0.00  0.00    +0.000 C 
BRANCH  14  15
ATOM     15  C   UNL     1       2.214   4.827  20.392  0.00  0.00    +0.000 C 
ATOM     16  O   UNL     1       2.212   4.673  21.612  0.00  0.00    +0.000 OA
BRANCH  15  21
ATOM     17  C   UNL     1       1.664  10.237  18.279  0.00  0.00    +0.000 C 
ATOM     18  C   UNL     1       1.804   8.845  18.836  0.00  0.00    +0.000 A 
ATOM     19  C   UNL     1       2.344   7.831  18.032  0.00  0.00    +0.000 A 
ATOM     20  C   UNL     1       2.483   6.525  18.514  0.00  0.00    +0.000 A 
ATOM     21  C   UNL     1       2.082   6.207  19.816  0.00  0.00    +0.000 A 
ATOM     22  C   UNL     1       1.546   7.219  20.624  0.00  0.00    +0.000 A 
ATOM     23  C   UNL     1       1.402   8.536  20.149  0.00  0.00    +0.000 A 
ATOM     24  C   UNL     1       0.816   9.583  21.058  0.00  0.00    +0.000 C 
ENDBRANCH  15  21
ENDBRANCH  14  15
ENDBRANCH   1  14
TORSDOF 8
ENDMDL
MODEL 5
REMARK VINA RESULT:      -7.0      1.846      6.042
REMARK  Name = 
REMARK  10 active torsions:
REMARK  status: ('A' for Active; 'I' for Inactive)
REMARK    1  A    between atoms: C_1  and  C_2
REMARK    2  A    between atoms: C_5  and  C_6
REMARK    3  A    between atoms: C_6  and  C_8
REMARK    4  A    between atoms: C_8  and  O_9
REMARK    5  A    between atoms: O_9  and  C_10
REMARK    6  A    between atoms: C_10  and  C_12
REMARK    7  A    between atoms: C_12  and  O_13
REMARK    8  A    between atoms: O_13  and  C_14
REMARK    9  A    between atoms: C_19  and  O_20
REMARK   10  A    between atoms: C_22  and  C_23
REMARK                            x       y       z     vdW  Elec       q    Type
REMARK                         _______ _______ _______ _____ _____    ______ ____
ROOT
ATOM      1  O   UNL     1       1.932   3.581  18.862  0.00  0.00    +0.000 OA
ENDROOT
BRANCH   1   2
ATOM      2  C   UNL     1       1.422   3.641  20.126  0.00  0.00    +0.000 C 
ATOM      3  O   UNL     1       1.051   2.675  20.778  0.00  0.00    +0.000 OA
BRANCH   2   4
ATOM      4  C   UNL     1       1.606   5.054  20.688  0.00  0.00    +0.000 C 
BRANCH   4   5
ATOM      5  O   UNL     1       2.651   5.836  20.149  0.00  0.00    +0.000 OA
BRANCH   5   6
ATOM      6  C   UNL     1       2.293   7.060  19.629  0.00  0.00    +0.000 A 
ATOM      7  C   UNL     1       2.552   7.188  18.256  0.00  0.00    +0.000 A 
ATOM      8  C   UNL     1       2.217   8.356  17.561  0.00  0.00    +0.000 A 
ATOM      9  C   UNL     1       1.623   9.420  18.232  0.00  0.00    +0.000 A 
ATOM     10  C   UNL     1       1.373   9.321  19.598  0.00  0.00    +0.000 A 
ATOM     11  C   UNL     1       1.704   8.150  20.292  0.00  0.00    +0.000 A 
BRANCH  11  12
ATOM     12  O   UNL     1       1.429   8.114  21.632  0.00  0.00    +0.000 OA
ATOM     13  H   UNL     1       1.576   7.211  21.958  0.00  0.00    +0.000 HD
ENDBRANCH  11  12
ENDBRANCH   5   6
ENDBRANCH   4   5
ENDBRANCH   2   4
ENDBRANCH   1   2
BRANCH   1  14
ATOM     14  C   UNL     1       2.915   2.570  18.640  0.00  0.00    +0.000 C 
BRANCH  14  15
ATOM     15  C   UNL     1       4.292   2.829  19.244  0.00  0.00    +0.000 C 
ATOM     16  O   UNL     1       4.781   2.103  20.107  0.00  0.00    +0.000 OA
BRANCH  15  21
ATOM     17  C   UNL     1       7.253   7.388  17.127  0.00  0.00    +0.000 C 
ATOM     18  C   UNL     1       6.482   6.212  17.663  0.00  0.00    +0.000 A 
ATOM     19  C   UNL     1       6.688   5.796  18.986  0.00  0.00    +0.000 A 
ATOM     20  C   UNL     1       5.993   4.704  19.516  0.00  0.00    +0.000 A 
ATOM     21  C   UNL     1       5.074   4.003  18.728  0.00  0.00    +0.000 A 
ATOM     22  C   UNL     1       4.861   4.418  17.407  0.00  0.00    +0.000 A 
ATOM     23  C   UNL     1       5.555   5.516  16.864  0.00  0.00    +0.000 A 
ATOM     24  C   UNL     1       5.292   5.916  15.437  0.00  0.00    +0.000 C 
ENDBRANCH  15  21
ENDBRANCH  14  15
ENDBRANCH   1  14
TORSDOF 8
ENDMDL
MODEL 6
REMARK VINA RESULT:      -7.0      1.886      2.820
REMARK  Name = 
REMARK  10 active torsions:
REMARK  status: ('A' for Active; 'I' for Inactive)
REMARK    1  A    between atoms: C_1  and  C_2
REMARK    2  A    between atoms: C_5  and  C_6
REMARK    3  A    between atoms: C_6  and  C_8
REMARK    4  A    between atoms: C_8  and  O_9
REMARK    5  A    between atoms: O_9  and  C_10
REMARK    6  A    between atoms: C_10  and  C_12
REMARK    7  A    between atoms: C_12  and  O_13
REMARK    8  A    between atoms: O_13  and  C_14
REMARK    9  A    between atoms: C_19  and  O_20
REMARK   10  A    between atoms: C_22  and  C_23
REMARK                            x       y       z     vdW  Elec       q    Type
REMARK                         _______ _______ _______ _____ _____    ______ ____
ROOT
ATOM      1  O   UNL     1       6.978   4.194  16.654  0.00  0.00    +0.000 OA
ENDROOT
BRANCH   1   2
ATOM      2  C   UNL     1       6.117   4.462  15.630  0.00  0.00    +0.000 C 
ATOM      3  O   UNL     1       6.427   5.001  14.577  0.00  0.00    +0.000 OA
BRANCH   2   4
ATOM      4  C   UNL     1       4.772   3.779  15.897  0.00  0.00    +0.000 C 
BRANCH   4   5
ATOM      5  O   UNL     1       4.741   2.771  16.886  0.00  0.00    +0.000 OA
BRANCH   5   6
ATOM      6  C   UNL     1       3.751   2.880  17.838  0.00  0.00    +0.000 A 
ATOM      7  C   UNL     1       2.543   3.393  17.341  0.00  0.00    +0.000 A 
ATOM      8  C   UNL     1       1.423   3.537  18.167  0.00  0.00    +0.000 A 
ATOM      9  C   UNL     1       1.494   3.176  19.508  0.00  0.00    +0.000 A 
ATOM     10  C   UNL     1       2.688   2.682  20.027  0.00  0.00    +0.000 A 
ATOM     11  C   UNL     1       3.808   2.533  19.198  0.00  0.00    +0.000 A 
BRANCH  11  12
ATOM     12  O   UNL     1       4.950   2.038  19.768  0.00  0.00    +0.000 OA
ATOM     13  H   UNL     1       5.697   2.605  19.516  0.00  0.00    +0.000 HD
ENDBRANCH  11  12
ENDBRANCH   5   6
ENDBRANCH   4   5
ENDBRANCH   2   4
ENDBRANCH   1   2
BRANCH   1  14
ATOM     14  C   UNL     1       7.200   5.264  17.571  0.00  0.00    +0.000 C 
BRANCH  14  15
ATOM     15  C   UNL     1       6.207   5.378  18.723  0.00  0.00    +0.000 C 
ATOM     16  O   UNL     1       6.400   4.847  19.816  0.00  0.00    +0.000 OA
BRANCH  15  21
ATOM     17  C   UNL     1       1.349   8.523  17.990  0.00  0.00    +0.000 C 
ATOM     18  C   UNL     1       2.599   7.709  18.191  0.00  0.00    +0.000 A 
ATOM     19  C   UNL     1       3.630   7.781  17.243  0.00  0.00    +0.000 A 
ATOM     20  C   UNL     1       4.803   7.034  17.394  0.00  0.00    +0.000 A 
ATOM     21  C   UNL     1       4.968   6.196  18.502  0.00  0.00    +0.000 A 
ATOM     22  C   UNL     1       3.942   6.125  19.454  0.00  0.00    +0.000 A 
ATOM     23  C   UNL     1       2.758   6.872  19.312  0.00  0.00    +0.000 A 
ATOM     24  C   UNL     1       1.686   6.754  20.361  0.00  0.00    +0.000 C 
ENDBRANCH  15  21
ENDBRANCH  14  15
ENDBRANCH   1  14
TORSDOF 8
ENDMDL
MODEL 7
REMARK VINA RESULT:      -6.9      1.178      2.096
REMARK  Name = 
REMARK  10 active torsions:
REMARK  status: ('A' for Active; 'I' for Inactive)
REMARK    1  A    between atoms: C_1  and  C_2
REMARK    2  A    between atoms: C_5  and  C_6
REMARK    3  A    between atoms: C_6  and  C_8
REMARK    4  A    between atoms: C_8  and  O_9
REMARK    5  A    between atoms: O_9  and  C_10
REMARK    6  A    between atoms: C_10  and  C_12
REMARK    7  A    between atoms: C_12  and  O_13
REMARK    8  A    between atoms: O_13  and  C_14
REMARK    9  A    between atoms: C_19  and  O_20
REMARK   10  A    between atoms: C_22  and  C_23
REMARK                            x       y       z     vdW  Elec       q    Type
REMARK                         _______ _______ _______ _____ _____    ______ ____
ROOT
ATOM      1  O   UNL     1       4.718   5.689  17.105  0.00  0.00    +0.000 OA
ENDROOT
BRANCH   1   2
ATOM      2  C   UNL     1       5.044   4.391  17.371  0.00  0.00    +0.000 C 
ATOM      3  O   UNL     1       5.221   3.526  16.525  0.00  0.00    +0.000 OA
BRANCH   2   4
ATOM      4  C   UNL     1       5.386   4.241  18.856  0.00  0.00    +0.000 C 
BRANCH   4   5
ATOM      5  O   UNL     1       4.879   3.107  19.528  0.00  0.00    +0.000 OA
BRANCH   5   6
ATOM      6  C   UNL     1       3.507   3.008  19.610  0.00  0.00    +0.000 A 
ATOM      7  C   UNL     1       2.946   3.767  20.648  0.00  0.00    +0.000 A 
ATOM      8  C   UNL     1       1.563   3.808  20.851  0.00  0.00    +0.000 A 
ATOM      9  C   UNL     1       0.715   3.080  20.022  0.00  0.00    +0.000 A 
ATOM     10  C   UNL     1       1.251   2.305  18.997  0.00  0.00    +0.000 A 
ATOM     11  C   UNL     1       2.636   2.270  18.790  0.00  0.00    +0.000 A 
BRANCH  11  12
ATOM     12  O   UNL     1       3.099   1.492  17.764  0.00  0.00    +0.000 OA
ATOM     13  H   UNL     1       3.859   0.977  18.080  0.00  0.00    +0.000 HD
ENDBRANCH  11  12
ENDBRANCH   5   6
ENDBRANCH   4   5
ENDBRANCH   2   4
ENDBRANCH   1   2
BRANCH   1  14
ATOM     14  C   UNL     1       4.189   6.432  18.202  0.00  0.00    +0.000 C 
BRANCH  14  15
ATOM     15  C   UNL     1       2.668   6.460  18.323  0.00  0.00    +0.000 C 
ATOM     16  O   UNL     1       1.948   5.623  17.781  0.00  0.00    +0.000 OA
BRANCH  15  21
ATOM     17  C   UNL     1       0.248  10.732  21.472  0.00  0.00    +0.000 C 
ATOM     18  C   UNL     1       0.870   9.636  20.649  0.00  0.00    +0.000 A 
ATOM     19  C   UNL     1       1.199   8.417  21.259  0.00  0.00    +0.000 A 
ATOM     20  C   UNL     1       1.783   7.378  20.526  0.00  0.00    +0.000 A 
ATOM     21  C   UNL     1       2.051   7.541  19.163  0.00  0.00    +0.000 A 
ATOM     22  C   UNL     1       1.719   8.756  18.549  0.00  0.00    +0.000 A 
ATOM     23  C   UNL     1       1.131   9.807  19.276  0.00  0.00    +0.000 A 
ATOM     24  C   UNL     1       0.800  11.093  18.568  0.00  0.00    +0.000 C 
ENDBRANCH  15  21
ENDBRANCH  14  15
ENDBRANCH   1  14
TORSDOF 8
ENDMDL
MODEL 8
REMARK VINA RESULT:      -6.9      2.957      4.920
REMARK  Name = 
REMARK  10 active torsions:
REMARK  status: ('A' for Active; 'I' for Inactive)
REMARK    1  A    between atoms: C_1  and  C_2
REMARK    2  A    between atoms: C_5  and  C_6
REMARK    3  A    between atoms: C_6  and  C_8
REMARK    4  A    between atoms: C_8  and  O_9
REMARK    5  A    between atoms: O_9  and  C_10
REMARK    6  A    between atoms: C_10  and  C_12
REMARK    7  A    between atoms: C_12  and  O_13
REMARK    8  A    between atoms: O_13  and  C_14
REMARK    9  A    between atoms: C_19  and  O_20
REMARK   10  A    between atoms: C_22  and  C_23
REMARK                            x       y       z     vdW  Elec       q    Type
REMARK                         _______ _______ _______ _____ _____    ______ ____
ROOT
ATOM      1  O   UNL     1       5.413   5.700  17.718  0.00  0.00    +0.000 OA
ENDROOT
BRANCH   1   2
ATOM      2  C   UNL     1       6.528   4.975  18.021  0.00  0.00    +0.000 C 
ATOM      3  O   UNL     1       6.731   4.419  19.092  0.00  0.00    +0.000 OA
BRANCH   2   4
ATOM      4  C   UNL     1       7.365   4.766  16.757  0.00  0.00    +0.000 C 
BRANCH   4   5
ATOM      5  O   UNL     1       7.113   5.622  15.662  0.00  0.00    +0.000 OA
BRANCH   5   6
ATOM      6  C   UNL     1       6.972   5.017  14.433  0.00  0.00    +0.000 A 
ATOM      7  C   UNL     1       5.848   4.182  14.340  0.00  0.00    +0.000 A 
ATOM      8  C   UNL     1       5.536   3.515  13.150  0.00  0.00    +0.000 A 
ATOM      9  C   UNL     1       6.350   3.668  12.031  0.00  0.00    +0.000 A 
ATOM     10  C   UNL     1       7.480   4.478  12.107  0.00  0.00    +0.000 A 
ATOM     11  C   UNL     1       7.789   5.149  13.297  0.00  0.00    +0.000 A 
BRANCH  11  12
ATOM     12  O   UNL     1       8.911   5.932  13.305  0.00  0.00    +0.000 OA
ATOM     13  H   UNL     1       8.761   6.698  12.727  0.00  0.00    +0.000 HD
ENDBRANCH  11  12
ENDBRANCH   5   6
ENDBRANCH   4   5
ENDBRANCH   2   4
ENDBRANCH   1   2
BRANCH   1  14
ATOM     14  C   UNL     1       4.528   5.960  18.808  0.00  0.00    +0.000 C 
BRANCH  14  15
ATOM     15  C   UNL     1       3.045   6.048  18.463  0.00  0.00    +0.000 C 
ATOM     16  O   UNL     1       2.428   5.111  17.961  0.00  0.00    +0.000 OA
BRANCH  15  21
ATOM     17  C   UNL     1       0.258  10.984  19.841  0.00  0.00    +0.000 C 
ATOM     18  C   UNL     1       0.979   9.708  19.497  0.00  0.00    +0.000 A 
ATOM     19  C   UNL     1       1.382   9.478  18.175  0.00  0.00    +0.000 A 
ATOM     20  C   UNL     1       2.049   8.301  17.818  0.00  0.00    +0.000 A 
ATOM     21  C   UNL     1       2.326   7.327  18.783  0.00  0.00    +0.000 A 
ATOM     22  C   UNL     1       1.929   7.556  20.107  0.00  0.00    +0.000 A 
ATOM     23  C   UNL     1       1.257   8.736  20.477  0.00  0.00    +0.000 A 
ATOM     24  C   UNL     1       0.849   8.928  21.913  0.00  0.00    +0.000 C 
ENDBRANCH  15  21
ENDBRANCH  14  15
ENDBRANCH   1  14
TORSDOF 8
ENDMDL
MODEL 9
REMARK VINA RESULT:      -6.9      1.291      2.429
REMARK  Name = 
REMARK  10 active torsions:
REMARK  status: ('A' for Active; 'I' for Inactive)
REMARK    1  A    between atoms: C_1  and  C_2
REMARK    2  A    between atoms: C_5  and  C_6
REMARK    3  A    between atoms: C_6  and  C_8
REMARK    4  A    between atoms: C_8  and  O_9
REMARK    5  A    between atoms: O_9  and  C_10
REMARK    6  A    between atoms: C_10  and  C_12
REMARK    7  A    between atoms: C_12  and  O_13
REMARK    8  A    between atoms: O_13  and  C_14
REMARK    9  A    between atoms: C_19  and  O_20
REMARK   10  A    between atoms: C_22  and  C_23
REMARK                            x       y       z     vdW  Elec       q    Type
REMARK                         _______ _______ _______ _____ _____    ______ ____
ROOT
ATOM      1  O   UNL     1       4.225   6.720  17.916  0.00  0.00    +0.000 OA
ENDROOT
BRANCH   1   2
ATOM      2  C   UNL     1       4.562   5.549  17.301  0.00  0.00    +0.000 C 
ATOM      3  O   UNL     1       4.711   5.410  16.095  0.00  0.00    +0.000 OA
BRANCH   2   4
ATOM      4  C   UNL     1       4.955   4.509  18.354  0.00  0.00    +0.000 C 
BRANCH   4   5
ATOM      5  O   UNL     1       4.278   3.270  18.327  0.00  0.00    +0.000 OA
BRANCH   5   6
ATOM      6  C   UNL     1       3.175   3.158  19.145  0.00  0.00    +0.000 A 
ATOM      7  C   UNL     1       3.485   2.810  20.468  0.00  0.00    +0.000 A 
ATOM      8  C   UNL     1       2.486   2.688  21.440  0.00  0.00    +0.000 A 
ATOM      9  C   UNL     1       1.154   2.905  21.101  0.00  0.00    +0.000 A 
ATOM     10  C   UNL     1       0.821   3.234  19.789  0.00  0.00    +0.000 A 
ATOM     11  C   UNL     1       1.823   3.362  18.819  0.00  0.00    +0.000 A 
BRANCH  11  12
ATOM     12  O   UNL     1       1.431   3.692  17.549  0.00  0.00    +0.000 OA
ATOM     13  H   UNL     1       0.603   3.226  17.348  0.00  0.00    +0.000 HD
ENDBRANCH  11  12
ENDBRANCH   5   6
ENDBRANCH   4   5
ENDBRANCH   2   4
ENDBRANCH   1   2
BRANCH   1  14
ATOM     14  C   UNL     1       2.882   6.806  18.389  0.00  0.00    +0.000 C 
BRANCH  14  15
ATOM     15  C   UNL     1       2.218   8.175  18.281  0.00  0.00    +0.000 C 
ATOM     16  O   UNL     1       2.251   8.844  17.250  0.00  0.00    +0.000 OA
BRANCH  15  21
ATOM     17  C   UNL     1      -0.723  10.275  22.860  0.00  0.00    +0.000 C 
ATOM     18  C   UNL     1       0.030   9.740  21.671  0.00  0.00    +0.000 A 
ATOM     19  C   UNL     1       0.835   8.603  21.818  0.00  0.00    +0.000 A 
ATOM     20  C   UNL     1       1.553   8.082  20.737  0.00  0.00    +0.000 A 
ATOM     21  C   UNL     1       1.478   8.693  19.481  0.00  0.00    +0.000 A 
ATOM     22  C   UNL     1       0.670   9.827  19.328  0.00  0.00    +0.000 A 
ATOM     23  C   UNL     1      -0.056  10.360  20.410  0.00  0.00    +0.000 A 
ATOM     24  C   UNL     1      -0.905  11.583  20.192  0.00  0.00    +0.000 C 
ENDBRANCH  15  21
ENDBRANCH  14  15
ENDBRANCH   1  14
TORSDOF 8
ENDMDL
