MODEL 1
REMARK VINA RESULT:      -7.2      0.000      0.000
REMARK  Name = 
REMARK  7 active torsions:
REMARK  status: ('A' for Active; 'I' for Inactive)
REMARK    1  A    between atoms: C_1  and  C_2
REMARK    2  A    between atoms: C_2  and  O_3
REMARK    3  A    between atoms: C_2  and  C_4
REMARK    4  A    between atoms: C_2  and  C_22
REMARK    5  A    between atoms: C_7  and  S_8
REMARK    6  A    between atoms: S_8  and  C_11
REMARK    7  A    between atoms: C_14  and  C_15
REMARK                            x       y       z     vdW  Elec       q    Type
REMARK                         _______ _______ _______ _____ _____    ______ ____
ROOT
ATOM      1  C   UNL     1       2.534   6.785  18.562  0.00  0.00    +0.000 A 
ATOM      2  C   UNL     1       2.511   7.844  17.636  0.00  0.00    +0.000 A 
ATOM      3  C   UNL     1       2.036   9.110  17.992  0.00  0.00    +0.000 A 
ATOM      4  C   UNL     1       1.562   9.334  19.284  0.00  0.00    +0.000 A 
ATOM      5  C   UNL     1       1.490   8.279  20.194  0.00  0.00    +0.000 A 
ATOM      6  C   UNL     1       1.998   7.024  19.844  0.00  0.00    +0.000 A 
ENDROOT
BRANCH   4   7
ATOM      7  S   UNL     1       0.966  10.947  19.732  0.00  0.00    +0.000 S 
ATOM      8  O   UNL     1       0.940  10.972  21.186  0.00  0.00    +0.000 OA
ATOM      9  O   UNL     1       1.750  11.940  19.022  0.00  0.00    +0.000 OA
BRANCH   7  10
ATOM     10  C   UNL     1      -0.723  11.122  19.183  0.00  0.00    +0.000 A 
ATOM     11  C   UNL     1      -1.230  10.156  18.297  0.00  0.00    +0.000 A 
ATOM     12  C   UNL     1      -2.564  10.207  17.880  0.00  0.00    +0.000 A 
ATOM     13  C   UNL     1      -3.402  11.224  18.343  0.00  0.00    +0.000 A 
ATOM     14  C   UNL     1      -2.895  12.187  19.219  0.00  0.00    +0.000 A 
ATOM     15  C   UNL     1      -1.562  12.136  19.649  0.00  0.00    +0.000 A 
ATOM     16 CL   UNL     1      -1.091  13.369  20.755  0.00  0.00    +0.000 Cl
BRANCH  13  17
ATOM     17  C   UNL     1      -4.774  11.275  17.935  0.00  0.00    +0.000 C 
ATOM     18  N   UNL     1      -5.885  11.320  17.596  0.00  0.00    +0.000 NA
ENDBRANCH  13  17
ENDBRANCH   7  10
ENDBRANCH   4   7
BRANCH   1  20
ATOM     19  C   UNL     1       4.043   4.833  19.309  0.00  0.00    +0.000 C 
ATOM     20  C   UNL     1       3.112   5.402  18.225  0.00  0.00    +0.000 C 
BRANCH  20  21
ATOM     21  C   UNL     1       1.994   4.340  17.917  0.00  0.00    +0.000 C 
ATOM     22  F   UNL     1       2.442   3.303  17.171  0.00  0.00    +0.000 F 
ATOM     23  F   UNL     1       1.447   3.806  19.035  0.00  0.00    +0.000 F 
ATOM     24  F   UNL     1       0.974   4.917  17.229  0.00  0.00    +0.000 F 
ENDBRANCH  20  21
BRANCH  20  25
ATOM     25  O   UNL     1       3.989   5.617  17.088  0.00  0.00    +0.000 OA
ATOM     26  H   UNL     1       3.616   5.133  16.330  0.00  0.00    +0.000 HD
ENDBRANCH  20  25
ENDBRANCH   1  20
TORSDOF 6
ENDMDL
MODEL 2
REMARK VINA RESULT:      -7.1      6.911      8.435
REMARK  Name = 
REMARK  7 active torsions:
REMARK  status: ('A' for Active; 'I' for Inactive)
REMARK    1  A    between atoms: C_1  and  C_2
REMARK    2  A    between atoms: C_2  and  O_3
REMARK    3  A    between atoms: C_2  and  C_4
REMARK    4  A    between atoms: C_2  and  C_22
REMARK    5  A    between atoms: C_7  and  S_8
REMARK    6  A    between atoms: S_8  and  C_11
REMARK    7  A    between atoms: C_14  and  C_15
REMARK                            x       y       z     vdW  Elec       q    Type
REMARK                         _______ _______ _______ _____ _____    ______ ____
ROOT
ATOM      1  C   UNL     1       2.891   4.158  19.120  0.00  0.00    +0.000 A 
ATOM      2  C   UNL     1       3.414   3.342  18.101  0.00  0.00    +0.000 A 
ATOM      3  C   UNL     1       4.501   3.756  17.324  0.00  0.00    +0.000 A 
ATOM      4  C   UNL     1       5.074   5.007  17.547  0.00  0.00    +0.000 A 
ATOM      5  C   UNL     1       4.519   5.872  18.490  0.00  0.00    +0.000 A 
ATOM      6  C   UNL     1       3.455   5.440  19.287  0.00  0.00    +0.000 A 
ENDROOT
BRANCH   4   7
ATOM      7  S   UNL     1       6.459   5.525  16.561  0.00  0.00    +0.000 S 
ATOM      8  O   UNL     1       7.361   4.385  16.513  0.00  0.00    +0.000 OA
ATOM      9  O   UNL     1       5.956   6.083  15.319  0.00  0.00    +0.000 OA
BRANCH   7  10
ATOM     10  C   UNL     1       7.327   6.833  17.409  0.00  0.00    +0.000 A 
ATOM     11  C   UNL     1       7.250   8.130  16.873  0.00  0.00    +0.000 A 
ATOM     12  C   UNL     1       7.860   9.206  17.528  0.00  0.00    +0.000 A 
ATOM     13  C   UNL     1       8.552   8.994  18.722  0.00  0.00    +0.000 A 
ATOM     14  C   UNL     1       8.633   7.704  19.251  0.00  0.00    +0.000 A 
ATOM     15  C   UNL     1       8.016   6.623  18.606  0.00  0.00    +0.000 A 
ATOM     16 CL   UNL     1       8.172   5.100  19.395  0.00  0.00    +0.000 Cl
BRANCH  13  17
ATOM     17  C   UNL     1       9.165  10.092  19.408  0.00  0.00    +0.000 C 
ATOM     18  N   UNL     1       9.662  10.978  19.972  0.00  0.00    +0.000 NA
ENDBRANCH  13  17
ENDBRANCH   7  10
ENDBRANCH   4   7
BRANCH   1  20
ATOM     19  C   UNL     1       0.788   2.690  19.387  0.00  0.00    +0.000 C 
ATOM     20  C   UNL     1       1.744   3.706  20.037  0.00  0.00    +0.000 C 
BRANCH  20  21
ATOM     21  C   UNL     1       2.258   3.110  21.398  0.00  0.00    +0.000 C 
ATOM     22  F   UNL     1       3.389   2.379  21.261  0.00  0.00    +0.000 F 
ATOM     23  F   UNL     1       2.519   4.059  22.328  0.00  0.00    +0.000 F 
ATOM     24  F   UNL     1       1.316   2.293  21.939  0.00  0.00    +0.000 F 
ENDBRANCH  20  21
BRANCH  20  25
ATOM     25  O   UNL     1       0.919   4.885  20.233  0.00  0.00    +0.000 OA
ATOM     26  H   UNL     1       1.399   5.648  19.866  0.00  0.00    +0.000 HD
ENDBRANCH  20  25
ENDBRANCH   1  20
TORSDOF 6
ENDMDL
MODEL 3
REMARK VINA RESULT:      -7.1      5.217      8.274
REMARK  Name = 
REMARK  7 active torsions:
REMARK  status: ('A' for Active; 'I' for Inactive)
REMARK    1  A    between atoms: C_1  and  C_2
REMARK    2  A    between atoms: C_2  and  O_3
REMARK    3  A    between atoms: C_2  and  C_4
REMARK    4  A    between atoms: C_2  and  C_22
REMARK    5  A    between atoms: C_7  and  S_8
REMARK    6  A    between atoms: S_8  and  C_11
REMARK    7  A    between atoms: C_14  and  C_15
REMARK                            x       y       z     vdW  Elec       q    Type
REMARK                         _______ _______ _______ _____ _____    ______ ____
ROOT
ATOM      1  C   UNL     1       1.247   9.617  19.540  0.00  0.00    +0.000 A 
ATOM      2  C   UNL     1       1.676   9.145  18.287  0.00  0.00    +0.000 A 
ATOM      3  C   UNL     1       2.094   7.822  18.114  0.00  0.00    +0.000 A 
ATOM      4  C   UNL     1       2.103   6.950  19.202  0.00  0.00    +0.000 A 
ATOM      5  C   UNL     1       1.768   7.416  20.473  0.00  0.00    +0.000 A 
ATOM      6  C   UNL     1       1.318   8.730  20.634  0.00  0.00    +0.000 A 
ENDROOT
BRANCH   4   7
ATOM      7  S   UNL     1       2.629   5.268  18.973  0.00  0.00    +0.000 S 
ATOM      8  O   UNL     1       3.309   4.894  20.203  0.00  0.00    +0.000 OA
ATOM      9  O   UNL     1       1.491   4.486  18.527  0.00  0.00    +0.000 OA
BRANCH   7  10
ATOM     10  C   UNL     1       3.848   5.207  17.671  0.00  0.00    +0.000 A 
ATOM     11  C   UNL     1       4.391   6.423  17.221  0.00  0.00    +0.000 A 
ATOM     12  C   UNL     1       5.393   6.434  16.245  0.00  0.00    +0.000 A 
ATOM     13  C   UNL     1       5.861   5.231  15.711  0.00  0.00    +0.000 A 
ATOM     14  C   UNL     1       5.317   4.024  16.155  0.00  0.00    +0.000 A 
ATOM     15  C   UNL     1       4.319   4.005  17.140  0.00  0.00    +0.000 A 
ATOM     16 CL   UNL     1       3.771   2.441  17.612  0.00  0.00    +0.000 Cl
BRANCH  13  17
ATOM     17  C   UNL     1       6.899   5.231  14.724  0.00  0.00    +0.000 C 
ATOM     18  N   UNL     1       7.747   5.227  13.930  0.00  0.00    +0.000 NA
ENDBRANCH  13  17
ENDBRANCH   7  10
ENDBRANCH   4   7
BRANCH   1  20
ATOM     19  C   UNL     1       1.428  12.107  18.896  0.00  0.00    +0.000 C 
ATOM     20  C   UNL     1       0.716  11.044  19.751  0.00  0.00    +0.000 C 
BRANCH  20  21
ATOM     21  C   UNL     1      -0.832  11.155  19.501  0.00  0.00    +0.000 C 
ATOM     22  F   UNL     1      -1.150  12.064  18.549  0.00  0.00    +0.000 F 
ATOM     23  F   UNL     1      -1.395   9.983  19.121  0.00  0.00    +0.000 F 
ATOM     24  F   UNL     1      -1.467  11.532  20.642  0.00  0.00    +0.000 F 
ENDBRANCH  20  21
BRANCH  20  25
ATOM     25  O   UNL     1       1.076  11.392  21.113  0.00  0.00    +0.000 OA
ATOM     26  H   UNL     1       1.725  10.738  21.426  0.00  0.00    +0.000 HD
ENDBRANCH  20  25
ENDBRANCH   1  20
TORSDOF 6
ENDMDL
MODEL 4
REMARK VINA RESULT:      -7.0      0.878      1.018
REMARK  Name = 
REMARK  7 active torsions:
REMARK  status: ('A' for Active; 'I' for Inactive)
REMARK    1  A    between atoms: C_1  and  C_2
REMARK    2  A    between atoms: C_2  and  O_3
REMARK    3  A    between atoms: C_2  and  C_4
REMARK    4  A    between atoms: C_2  and  C_22
REMARK    5  A    between atoms: C_7  and  S_8
REMARK    6  A    between atoms: S_8  and  C_11
REMARK    7  A    between atoms: C_14  and  C_15
REMARK                            x       y       z     vdW  Elec       q    Type
REMARK                         _______ _______ _______ _____ _____    ______ ____
ROOT
ATOM      1  C   UNL     1       2.365   6.560  19.317  0.00  0.00    +0.000 A 
ATOM      2  C   UNL     1       2.506   7.388  18.188  0.00  0.00    +0.000 A 
ATOM      3  C   UNL     1       2.115   8.730  18.220  0.00  0.00    +0.000 A 
ATOM      4  C   UNL     1       1.562   9.264  19.383  0.00  0.00    +0.000 A 
ATOM      5  C   UNL     1       1.329   8.442  20.485  0.00  0.00    +0.000 A 
ATOM      6  C   UNL     1       1.752   7.110  20.461  0.00  0.00    +0.000 A 
ENDROOT
BRANCH   4   7
ATOM      7  S   UNL     1       1.074  10.972  19.418  0.00  0.00    +0.000 S 
ATOM      8  O   UNL     1       1.163  11.383  20.810  0.00  0.00    +0.000 OA
ATOM      9  O   UNL     1       1.841  11.690  18.417  0.00  0.00    +0.000 OA
BRANCH   7  10
ATOM     10  C   UNL     1      -0.644  11.101  18.951  0.00  0.00    +0.000 A 
ATOM     11  C   UNL     1      -1.191  10.072  18.165  0.00  0.00    +0.000 A 
ATOM     12  C   UNL     1      -2.547  10.089  17.819  0.00  0.00    +0.000 A 
ATOM     13  C   UNL     1      -3.366  11.132  18.255  0.00  0.00    +0.000 A 
ATOM     14  C   UNL     1      -2.820  12.157  19.032  0.00  0.00    +0.000 A 
ATOM     15  C   UNL     1      -1.465  12.142  19.390  0.00  0.00    +0.000 A 
ATOM     16 CL   UNL     1      -0.944  13.452  20.379  0.00  0.00    +0.000 Cl
BRANCH  13  17
ATOM     17  C   UNL     1      -4.759  11.148  17.921  0.00  0.00    +0.000 C 
ATOM     18  N   UNL     1      -5.886  11.164  17.641  0.00  0.00    +0.000 NA
ENDBRANCH  13  17
ENDBRANCH   7  10
ENDBRANCH   4   7
BRANCH   1  20
ATOM     19  C   UNL     1       2.390   4.311  20.578  0.00  0.00    +0.000 C 
ATOM     20  C   UNL     1       2.847   5.101  19.339  0.00  0.00    +0.000 C 
BRANCH  20  21
ATOM     21  C   UNL     1       2.419   4.305  18.053  0.00  0.00    +0.000 C 
ATOM     22  F   UNL     1       2.294   2.975  18.272  0.00  0.00    +0.000 F 
ATOM     23  F   UNL     1       1.241   4.725  17.534  0.00  0.00    +0.000 F 
ATOM     24  F   UNL     1       3.347   4.463  17.072  0.00  0.00    +0.000 F 
ENDBRANCH  20  21
BRANCH  20  25
ATOM     25  O   UNL     1       4.290   5.173  19.483  0.00  0.00    +0.000 OA
ATOM     26  H   UNL     1       4.595   5.972  19.018  0.00  0.00    +0.000 HD
ENDBRANCH  20  25
ENDBRANCH   1  20
TORSDOF 6
ENDMDL
MODEL 5
REMARK VINA RESULT:      -7.0      6.836      8.409
REMARK  Name = 
REMARK  7 active torsions:
REMARK  status: ('A' for Active; 'I' for Inactive)
REMARK    1  A    between atoms: C_1  and  C_2
REMARK    2  A    between atoms: C_2  and  O_3
REMARK    3  A    between atoms: C_2  and  C_4
REMARK    4  A    between atoms: C_2  and  C_22
REMARK    5  A    between atoms: C_7  and  S_8
REMARK    6  A    between atoms: S_8  and  C_11
REMARK    7  A    between atoms: C_14  and  C_15
REMARK                            x       y       z     vdW  Elec       q    Type
REMARK                         _______ _______ _______ _____ _____    ______ ____
ROOT
ATOM      1  C   UNL     1       2.821   4.087  19.237  0.00  0.00    +0.000 A 
ATOM      2  C   UNL     1       3.166   5.450  19.200  0.00  0.00    +0.000 A 
ATOM      3  C   UNL     1       4.170   5.922  18.349  0.00  0.00    +0.000 A 
ATOM      4  C   UNL     1       4.859   5.030  17.528  0.00  0.00    +0.000 A 
ATOM      5  C   UNL     1       4.598   3.663  17.610  0.00  0.00    +0.000 A 
ATOM      6  C   UNL     1       3.570   3.200  18.437  0.00  0.00    +0.000 A 
ENDROOT
BRANCH   4   7
ATOM      7  S   UNL     1       6.129   5.638  16.444  0.00  0.00    +0.000 S 
ATOM      8  O   UNL     1       7.009   4.508  16.190  0.00  0.00    +0.000 OA
ATOM      9  O   UNL     1       5.497   6.309  15.324  0.00  0.00    +0.000 OA
BRANCH   7  10
ATOM     10  C   UNL     1       7.100   6.862  17.308  0.00  0.00    +0.000 A 
ATOM     11  C   UNL     1       7.050   8.188  16.843  0.00  0.00    +0.000 A 
ATOM     12  C   UNL     1       7.742   9.201  17.516  0.00  0.00    +0.000 A 
ATOM     13  C   UNL     1       8.489   8.897  18.657  0.00  0.00    +0.000 A 
ATOM     14  C   UNL     1       8.542   7.579  19.113  0.00  0.00    +0.000 A 
ATOM     15  C   UNL     1       7.843   6.560  18.451  0.00  0.00    +0.000 A 
ATOM     16 CL   UNL     1       7.975   4.992  19.151  0.00  0.00    +0.000 Cl
BRANCH  13  17
ATOM     17  C   UNL     1       9.187   9.931  19.362  0.00  0.00    +0.000 C 
ATOM     18  N   UNL     1       9.753  10.764  19.941  0.00  0.00    +0.000 NA
ENDBRANCH  13  17
ENDBRANCH   7  10
ENDBRANCH   4   7
BRANCH   1  20
ATOM     19  C   UNL     1       0.862   2.423  19.441  0.00  0.00    +0.000 C 
ATOM     20  C   UNL     1       1.677   3.545  20.108  0.00  0.00    +0.000 C 
BRANCH  20  21
ATOM     21  C   UNL     1       2.175   3.037  21.510  0.00  0.00    +0.000 C 
ATOM     22  F   UNL     1       2.479   4.046  22.360  0.00  0.00    +0.000 F 
ATOM     23  F   UNL     1       1.271   2.254  22.143  0.00  0.00    +0.000 F 
ATOM     24  F   UNL     1       3.298   2.284  21.365  0.00  0.00    +0.000 F 
ENDBRANCH  20  21
BRANCH  20  25
ATOM     25  O   UNL     1       0.731   4.640  20.228  0.00  0.00    +0.000 OA
ATOM     26  H   UNL     1       0.053   4.376  20.876  0.00  0.00    +0.000 HD
ENDBRANCH  20  25
ENDBRANCH   1  20
TORSDOF 6
ENDMDL
MODEL 6
REMARK VINA RESULT:      -6.9      5.416      8.382
REMARK  Name = 
REMARK  7 active torsions:
REMARK  status: ('A' for Active; 'I' for Inactive)
REMARK    1  A    between atoms: C_1  and  C_2
REMARK    2  A    between atoms: C_2  and  O_3
REMARK    3  A    between atoms: C_2  and  C_4
REMARK    4  A    between atoms: C_2  and  C_22
REMARK    5  A    between atoms: C_7  and  S_8
REMARK    6  A    between atoms: S_8  and  C_11
REMARK    7  A    between atoms: C_14  and  C_15
REMARK                            x       y       z     vdW  Elec       q    Type
REMARK                         _______ _______ _______ _____ _____    ______ ____
ROOT
ATOM      1  C   UNL     1       1.069   9.756  19.045  0.00  0.00    +0.000 A 
ATOM      2  C   UNL     1       1.515   9.175  17.845  0.00  0.00    +0.000 A 
ATOM      3  C   UNL     1       2.030   7.875  17.814  0.00  0.00    +0.000 A 
ATOM      4  C   UNL     1       2.119   7.137  18.994  0.00  0.00    +0.000 A 
ATOM      5  C   UNL     1       1.767   7.721  20.210  0.00  0.00    +0.000 A 
ATOM      6  C   UNL     1       1.222   9.008  20.231  0.00  0.00    +0.000 A 
ENDROOT
BRANCH   4   7
ATOM      7  S   UNL     1       2.767   5.483  18.946  0.00  0.00    +0.000 S 
ATOM      8  O   UNL     1       3.502   5.309  20.189  0.00  0.00    +0.000 OA
ATOM      9  O   UNL     1       1.682   4.573  18.632  0.00  0.00    +0.000 OA
BRANCH   7  10
ATOM     10  C   UNL     1       3.957   5.358  17.622  0.00  0.00    +0.000 A 
ATOM     11  C   UNL     1       4.542   6.545  17.149  0.00  0.00    +0.000 A 
ATOM     12  C   UNL     1       5.525   6.504  16.154  0.00  0.00    +0.000 A 
ATOM     13  C   UNL     1       5.930   5.276  15.623  0.00  0.00    +0.000 A 
ATOM     14  C   UNL     1       5.343   4.099  16.090  0.00  0.00    +0.000 A 
ATOM     15  C   UNL     1       4.365   4.131  17.093  0.00  0.00    +0.000 A 
ATOM     16 CL   UNL     1       3.759   2.598  17.591  0.00  0.00    +0.000 Cl
BRANCH  13  17
ATOM     17  C   UNL     1       6.947   5.223  14.617  0.00  0.00    +0.000 C 
ATOM     18  N   UNL     1       7.773   5.170  13.801  0.00  0.00    +0.000 NA
ENDBRANCH  13  17
ENDBRANCH   7  10
ENDBRANCH   4   7
BRANCH   1  20
ATOM     19  C   UNL     1      -0.593  11.327  20.236  0.00  0.00    +0.000 C 
ATOM     20  C   UNL     1       0.435  11.154  19.104  0.00  0.00    +0.000 C 
BRANCH  20  21
ATOM     21  C   UNL     1       1.508  12.298  19.223  0.00  0.00    +0.000 C 
ATOM     22  F   UNL     1       2.572  12.112  18.407  0.00  0.00    +0.000 F 
ATOM     23  F   UNL     1       1.010  13.525  18.938  0.00  0.00    +0.000 F 
ATOM     24  F   UNL     1       1.985  12.365  20.494  0.00  0.00    +0.000 F 
ENDBRANCH  20  21
BRANCH  20  25
ATOM     25  O   UNL     1      -0.356  11.271  17.892  0.00  0.00    +0.000 OA
ATOM     26  H   UNL     1      -1.236  11.605  18.143  0.00  0.00    +0.000 HD
ENDBRANCH  20  25
ENDBRANCH   1  20
TORSDOF 6
ENDMDL
MODEL 7
REMARK VINA RESULT:      -6.9      5.404      8.414
REMARK  Name = 
REMARK  7 active torsions:
REMARK  status: ('A' for Active; 'I' for Inactive)
REMARK    1  A    between atoms: C_1  and  C_2
REMARK    2  A    between atoms: C_2  and  O_3
REMARK    3  A    between atoms: C_2  and  C_4
REMARK    4  A    between atoms: C_2  and  C_22
REMARK    5  A    between atoms: C_7  and  S_8
REMARK    6  A    between atoms: S_8  and  C_11
REMARK    7  A    between atoms: C_14  and  C_15
REMARK                            x       y       z     vdW  Elec       q    Type
REMARK                         _______ _______ _______ _____ _____    ______ ____
ROOT
ATOM      1  C   UNL     1       1.112   9.852  19.033  0.00  0.00    +0.000 A 
ATOM      2  C   UNL     1       1.275   9.105  20.213  0.00  0.00    +0.000 A 
ATOM      3  C   UNL     1       1.774   7.799  20.182  0.00  0.00    +0.000 A 
ATOM      4  C   UNL     1       2.106   7.213  18.962  0.00  0.00    +0.000 A 
ATOM      5  C   UNL     1       1.870   7.899  17.771  0.00  0.00    +0.000 A 
ATOM      6  C   UNL     1       1.403   9.216  17.809  0.00  0.00    +0.000 A 
ENDROOT
BRANCH   4   7
ATOM      7  S   UNL     1       2.747   5.555  18.930  0.00  0.00    +0.000 S 
ATOM      8  O   UNL     1       3.478   5.388  20.176  0.00  0.00    +0.000 OA
ATOM      9  O   UNL     1       1.658   4.647  18.621  0.00  0.00    +0.000 OA
BRANCH   7  10
ATOM     10  C   UNL     1       3.940   5.412  17.610  0.00  0.00    +0.000 A 
ATOM     11  C   UNL     1       4.512   6.595  17.111  0.00  0.00    +0.000 A 
ATOM     12  C   UNL     1       5.497   6.541  16.118  0.00  0.00    +0.000 A 
ATOM     13  C   UNL     1       5.916   5.306  15.616  0.00  0.00    +0.000 A 
ATOM     14  C   UNL     1       5.341   4.133  16.109  0.00  0.00    +0.000 A 
ATOM     15  C   UNL     1       4.362   4.179  17.111  0.00  0.00    +0.000 A 
ATOM     16 CL   UNL     1       3.773   2.650  17.643  0.00  0.00    +0.000 Cl
BRANCH  13  17
ATOM     17  C   UNL     1       6.935   5.241  14.612  0.00  0.00    +0.000 C 
ATOM     18  N   UNL     1       7.768   5.183  13.803  0.00  0.00    +0.000 NA
ENDBRANCH  13  17
ENDBRANCH   7  10
ENDBRANCH   4   7
BRANCH   1  20
ATOM     19  C   UNL     1      -0.139  11.712  20.308  0.00  0.00    +0.000 C 
ATOM     20  C   UNL     1       0.631  11.311  19.037  0.00  0.00    +0.000 C 
BRANCH  20  21
ATOM     21  C   UNL     1       1.805  12.334  18.820  0.00  0.00    +0.000 C 
ATOM     22  F   UNL     1       2.366  12.748  19.980  0.00  0.00    +0.000 F 
ATOM     23  F   UNL     1       2.809  11.837  18.059  0.00  0.00    +0.000 F 
ATOM     24  F   UNL     1       1.351  13.443  18.178  0.00  0.00    +0.000 F 
ENDBRANCH  20  21
BRANCH  20  25
ATOM     25  O   UNL     1      -0.366  11.393  17.984  0.00  0.00    +0.000 OA
ATOM     26  H   UNL     1      -0.758  12.283  18.015  0.00  0.00    +0.000 HD
ENDBRANCH  20  25
ENDBRANCH   1  20
TORSDOF 6
ENDMDL
MODEL 8
REMARK VINA RESULT:      -6.9      5.347      8.501
REMARK  Name = 
REMARK  7 active torsions:
REMARK  status: ('A' for Active; 'I' for Inactive)
REMARK    1  A    between atoms: C_1  and  C_2
REMARK    2  A    between atoms: C_2  and  O_3
REMARK    3  A    between atoms: C_2  and  C_4
REMARK    4  A    between atoms: C_2  and  C_22
REMARK    5  A    between atoms: C_7  and  S_8
REMARK    6  A    between atoms: S_8  and  C_11
REMARK    7  A    between atoms: C_14  and  C_15
REMARK                            x       y       z     vdW  Elec       q    Type
REMARK                         _______ _______ _______ _____ _____    ______ ____
ROOT
ATOM      1  C   UNL     1       1.783   8.613  18.793  0.00  0.00    +0.000 A 
ATOM      2  C   UNL     1       1.801   7.708  19.869  0.00  0.00    +0.000 A 
ATOM      3  C   UNL     1       2.688   6.627  19.895  0.00  0.00    +0.000 A 
ATOM      4  C   UNL     1       3.566   6.426  18.831  0.00  0.00    +0.000 A 
ATOM      5  C   UNL     1       3.507   7.255  17.711  0.00  0.00    +0.000 A 
ATOM      6  C   UNL     1       2.643   8.354  17.705  0.00  0.00    +0.000 A 
ENDROOT
BRANCH   4   7
ATOM      7  S   UNL     1       4.695   5.054  18.874  0.00  0.00    +0.000 S 
ATOM      8  O   UNL     1       5.808   5.481  19.707  0.00  0.00    +0.000 OA
ATOM      9  O   UNL     1       3.955   3.860  19.237  0.00  0.00    +0.000 OA
BRANCH   7  10
ATOM     10  C   UNL     1       5.352   4.785  17.236  0.00  0.00    +0.000 A 
ATOM     11  C   UNL     1       4.690   3.864  16.406  0.00  0.00    +0.000 A 
ATOM     12  C   UNL     1       5.123   3.656  15.091  0.00  0.00    +0.000 A 
ATOM     13  C   UNL     1       6.221   4.365  14.598  0.00  0.00    +0.000 A 
ATOM     14  C   UNL     1       6.881   5.275  15.426  0.00  0.00    +0.000 A 
ATOM     15  C   UNL     1       6.447   5.496  16.740  0.00  0.00    +0.000 A 
ATOM     16 CL   UNL     1       7.337   6.672  17.629  0.00  0.00    +0.000 Cl
BRANCH  13  17
ATOM     17  C   UNL     1       6.661   4.171  13.248  0.00  0.00    +0.000 C 
ATOM     18  N   UNL     1       7.026   4.014  12.157  0.00  0.00    +0.000 NA
ENDBRANCH  13  17
ENDBRANCH   7  10
ENDBRANCH   4   7
BRANCH   1  20
ATOM     19  C   UNL     1      -0.335   9.712  17.817  0.00  0.00    +0.000 C 
ATOM     20  C   UNL     1       0.871   9.848  18.764  0.00  0.00    +0.000 C 
BRANCH  20  21
ATOM     21  C   UNL     1       0.344  10.243  20.192  0.00  0.00    +0.000 C 
ATOM     22  F   UNL     1      -0.458   9.300  20.738  0.00  0.00    +0.000 F 
ATOM     23  F   UNL     1       1.339  10.470  21.081  0.00  0.00    +0.000 F 
ATOM     24  F   UNL     1      -0.378  11.393  20.125  0.00  0.00    +0.000 F 
ENDBRANCH  20  21
BRANCH  20  25
ATOM     25  O   UNL     1       1.668  10.904  18.164  0.00  0.00    +0.000 OA
ATOM     26  H   UNL     1       1.118  11.346  17.493  0.00  0.00    +0.000 HD
ENDBRANCH  20  25
ENDBRANCH   1  20
TORSDOF 6
ENDMDL
MODEL 9
REMARK VINA RESULT:      -6.9      0.945      1.361
REMARK  Name = 
REMARK  7 active torsions:
REMARK  status: ('A' for Active; 'I' for Inactive)
REMARK    1  A    between atoms: C_1  and  C_2
REMARK    2  A    between atoms: C_2  and  O_3
REMARK    3  A    between atoms: C_2  and  C_4
REMARK    4  A    between atoms: C_2  and  C_22
REMARK    5  A    between atoms: C_7  and  S_8
REMARK    6  A    between atoms: S_8  and  C_11
REMARK    7  A    between atoms: C_14  and  C_15
REMARK                            x       y       z     vdW  Elec       q    Type
REMARK                         _______ _______ _______ _____ _____    ______ ____
ROOT
ATOM      1  C   UNL     1       2.224   6.444  19.378  0.00  0.00    +0.000 A 
ATOM      2  C   UNL     1       1.640   7.059  20.500  0.00  0.00    +0.000 A 
ATOM      3  C   UNL     1       1.292   8.414  20.487  0.00  0.00    +0.000 A 
ATOM      4  C   UNL     1       1.536   9.181  19.349  0.00  0.00    +0.000 A 
ATOM      5  C   UNL     1       2.195   8.618  18.256  0.00  0.00    +0.000 A 
ATOM      6  C   UNL     1       2.510   7.256  18.261  0.00  0.00    +0.000 A 
ENDROOT
BRANCH   4   7
ATOM      7  S   UNL     1       1.085  10.900  19.337  0.00  0.00    +0.000 S 
ATOM      8  O   UNL     1       1.204  11.352  20.714  0.00  0.00    +0.000 OA
ATOM      9  O   UNL     1       1.852  11.570  18.303  0.00  0.00    +0.000 OA
BRANCH   7  10
ATOM     10  C   UNL     1      -0.637  11.051  18.892  0.00  0.00    +0.000 A 
ATOM     11  C   UNL     1      -1.205  10.033  18.106  0.00  0.00    +0.000 A 
ATOM     12  C   UNL     1      -2.564  10.066  17.777  0.00  0.00    +0.000 A 
ATOM     13  C   UNL     1      -3.366  11.117  18.229  0.00  0.00    +0.000 A 
ATOM     14  C   UNL     1      -2.799  12.130  19.004  0.00  0.00    +0.000 A 
ATOM     15  C   UNL     1      -1.440  12.098  19.347  0.00  0.00    +0.000 A 
ATOM     16 CL   UNL     1      -0.893  13.397  20.337  0.00  0.00    +0.000 Cl
BRANCH  13  17
ATOM     17  C   UNL     1      -4.762  11.151  17.911  0.00  0.00    +0.000 C 
ATOM     18  N   UNL     1      -5.895  11.187  17.652  0.00  0.00    +0.000 NA
ENDBRANCH  13  17
ENDBRANCH   7  10
ENDBRANCH   4   7
BRANCH   1  20
ATOM     19  C   UNL     1       1.867   4.120  20.436  0.00  0.00    +0.000 C 
ATOM     20  C   UNL     1       2.555   4.945  19.334  0.00  0.00    +0.000 C 
BRANCH  20  21
ATOM     21  C   UNL     1       2.223   4.294  17.941  0.00  0.00    +0.000 C 
ATOM     22  F   UNL     1       3.218   4.448  17.036  0.00  0.00    +0.000 F 
ATOM     23  F   UNL     1       1.973   2.966  18.022  0.00  0.00    +0.000 F 
ATOM     24  F   UNL     1       1.108   4.863  17.411  0.00  0.00    +0.000 F 
ENDBRANCH  20  21
BRANCH  20  25
ATOM     25  O   UNL     1       3.967   4.852  19.657  0.00  0.00    +0.000 OA
ATOM     26  H   UNL     1       4.296   5.754  19.817  0.00  0.00    +0.000 HD
ENDBRANCH  20  25
ENDBRANCH   1  20
TORSDOF 6
ENDMDL
