MODEL 1
REMARK VINA RESULT:      -6.3      0.000      0.000
REMARK  Name = 
REMARK  9 active torsions:
REMARK  status: ('A' for Active; 'I' for Inactive)
REMARK    1  A    between atoms: C_1  and  N_2
REMARK    2  A    between atoms: N_2  and  C_3
REMARK    3  A    between atoms: N_2  and  C_4
REMARK    4  A    between atoms: C_4  and  C_5
REMARK    5  A    between atoms: C_5  and  N_6
REMARK    6  A    between atoms: C_7  and  C_9
REMARK    7  A    between atoms: C_9  and  N_10
REMARK    8  A    between atoms: C_9  and  C_11
REMARK    9  A    between atoms: C_11  and  C_12
REMARK                            x       y       z     vdW  Elec       q    Type
REMARK                         _______ _______ _______ _____ _____    ______ ____
ROOT
ATOM      1  C   UNL     1       5.808   4.564  18.705  0.00  0.00    +0.000 C 
ENDROOT
BRANCH   1   3
ATOM      2  N   UNL     1       5.909   3.985  16.322  0.00  0.00    +0.000 N 
ATOM      3  C   UNL     1       6.624   4.473  17.397  0.00  0.00    +0.000 C 
ATOM      4  O   UNL     1       7.829   4.706  17.341  0.00  0.00    +0.000 OA
ATOM      5  H   UNL     1       4.895   4.012  16.340  0.00  0.00    +0.000 HD
BRANCH   2   6
ATOM      6  C   UNL     1       6.529   3.843  15.018  0.00  0.00    +0.000 C 
BRANCH   6   7
ATOM      7  C   UNL     1       5.525   4.071  13.874  0.00  0.00    +0.000 C 
BRANCH   7   9
ATOM      8  C   UNL     1       4.674   3.303  11.723  0.00  0.00    +0.000 C 
ATOM      9  N   UNL     1       5.818   3.304  12.639  0.00  0.00    +0.000 NA
ATOM     10  C   UNL     1       6.976   3.904  11.964  0.00  0.00    +0.000 C 
ENDBRANCH   7   9
ENDBRANCH   6   7
ENDBRANCH   2   6
ENDBRANCH   1   3
BRANCH   1  11
ATOM     11  N   UNL     1       6.674   5.195  19.729  0.00  0.00    +0.000 NA
ATOM     12  H   UNL     1       7.599   4.764  19.673  0.00  0.00    +0.000 HD
ATOM     13  H   UNL     1       6.314   4.957  20.654  0.00  0.00    +0.000 HD
ENDBRANCH   1  11
BRANCH   1  14
ATOM     14  C   UNL     1       4.513   5.359  18.443  0.00  0.00    +0.000 C 
BRANCH  14  15
ATOM     15  C   UNL     1       3.248   4.662  18.891  0.00  0.00    +0.000 A 
ATOM     16  C   UNL     1       2.659   3.690  18.070  0.00  0.00    +0.000 A 
ATOM     17  C   UNL     1       1.489   3.039  18.463  0.00  0.00    +0.000 A 
ATOM     18  C   UNL     1       0.898   3.353  19.689  0.00  0.00    +0.000 A 
ATOM     19  C   UNL     1       1.477   4.318  20.512  0.00  0.00    +0.000 A 
ATOM     20  C   UNL     1       2.648   4.972  20.116  0.00  0.00    +0.000 A 
ENDBRANCH  14  15
ENDBRANCH   1  14
TORSDOF 7
ENDMDL
MODEL 2
REMARK VINA RESULT:      -6.1      2.033      6.453
REMARK  Name = 
REMARK  9 active torsions:
REMARK  status: ('A' for Active; 'I' for Inactive)
REMARK    1  A    between atoms: C_1  and  N_2
REMARK    2  A    between atoms: N_2  and  C_3
REMARK    3  A    between atoms: N_2  and  C_4
REMARK    4  A    between atoms: C_4  and  C_5
REMARK    5  A    between atoms: C_5  and  N_6
REMARK    6  A    between atoms: C_7  and  C_9
REMARK    7  A    between atoms: C_9  and  N_10
REMARK    8  A    between atoms: C_9  and  C_11
REMARK    9  A    between atoms: C_11  and  C_12
REMARK                            x       y       z     vdW  Elec       q    Type
REMARK                         _______ _______ _______ _____ _____    ______ ____
ROOT
ATOM      1  C   UNL     1       6.815   4.865  17.107  0.00  0.00    +0.000 C 
ENDROOT
BRANCH   1   3
ATOM      2  N   UNL     1       4.688   5.410  18.202  0.00  0.00    +0.000 N 
ATOM      3  C   UNL     1       6.013   5.082  18.408  0.00  0.00    +0.000 C 
ATOM      4  O   UNL     1       6.527   5.077  19.523  0.00  0.00    +0.000 OA
ATOM      5  H   UNL     1       4.250   5.195  17.312  0.00  0.00    +0.000 HD
BRANCH   2   6
ATOM      6  C   UNL     1       3.795   5.641  19.322  0.00  0.00    +0.000 C 
BRANCH   6   7
ATOM      7  C   UNL     1       2.793   4.487  19.509  0.00  0.00    +0.000 C 
BRANCH   7   9
ATOM      8  C   UNL     1       2.442   2.867  21.296  0.00  0.00    +0.000 C 
ATOM      9  N   UNL     1       3.341   3.311  20.226  0.00  0.00    +0.000 NA
ATOM     10  C   UNL     1       3.532   2.211  19.271  0.00  0.00    +0.000 C 
ENDBRANCH   7   9
ENDBRANCH   6   7
ENDBRANCH   2   6
ENDBRANCH   1   3
BRANCH   1  11
ATOM     11  N   UNL     1       8.036   4.101  17.459  0.00  0.00    +0.000 NA
ATOM     12  H   UNL     1       7.848   3.109  17.300  0.00  0.00    +0.000 HD
ATOM     13  H   UNL     1       8.201   4.193  18.462  0.00  0.00    +0.000 HD
ENDBRANCH   1  11
BRANCH   1  14
ATOM     14  C   UNL     1       5.929   4.136  16.078  0.00  0.00    +0.000 C 
BRANCH  14  15
ATOM     15  C   UNL     1       6.401   4.261  14.646  0.00  0.00    +0.000 A 
ATOM     16  C   UNL     1       5.829   3.456  13.650  0.00  0.00    +0.000 A 
ATOM     17  C   UNL     1       6.253   3.554  12.325  0.00  0.00    +0.000 A 
ATOM     18  C   UNL     1       7.256   4.463  11.982  0.00  0.00    +0.000 A 
ATOM     19  C   UNL     1       7.831   5.266  12.965  0.00  0.00    +0.000 A 
ATOM     20  C   UNL     1       7.407   5.166  14.294  0.00  0.00    +0.000 A 
ENDBRANCH  14  15
ENDBRANCH   1  14
TORSDOF 7
ENDMDL
MODEL 3
REMARK VINA RESULT:      -6.0      1.959      6.624
REMARK  Name = 
REMARK  9 active torsions:
REMARK  status: ('A' for Active; 'I' for Inactive)
REMARK    1  A    between atoms: C_1  and  N_2
REMARK    2  A    between atoms: N_2  and  C_3
REMARK    3  A    between atoms: N_2  and  C_4
REMARK    4  A    between atoms: C_4  and  C_5
REMARK    5  A    between atoms: C_5  and  N_6
REMARK    6  A    between atoms: C_7  and  C_9
REMARK    7  A    between atoms: C_9  and  N_10
REMARK    8  A    between atoms: C_9  and  C_11
REMARK    9  A    between atoms: C_11  and  C_12
REMARK                            x       y       z     vdW  Elec       q    Type
REMARK                         _______ _______ _______ _____ _____    ______ ____
ROOT
ATOM      1  C   UNL     1       6.500   4.705  16.946  0.00  0.00    +0.000 C 
ENDROOT
BRANCH   1   3
ATOM      2  N   UNL     1       5.322   3.314  18.589  0.00  0.00    +0.000 N 
ATOM      3  C   UNL     1       5.705   4.600  18.265  0.00  0.00    +0.000 C 
ATOM      4  O   UNL     1       5.346   5.580  18.912  0.00  0.00    +0.000 OA
ATOM      5  H   UNL     1       5.805   2.526  18.171  0.00  0.00    +0.000 HD
BRANCH   2   6
ATOM      6  C   UNL     1       4.572   3.043  19.801  0.00  0.00    +0.000 C 
BRANCH   6   7
ATOM      7  C   UNL     1       3.123   2.618  19.500  0.00  0.00    +0.000 C 
BRANCH   7   9
ATOM      8  C   UNL     1       0.761   3.215  19.578  0.00  0.00    +0.000 C 
ATOM      9  N   UNL     1       2.136   3.723  19.556  0.00  0.00    +0.000 NA
ATOM     10  C   UNL     1       2.374   4.520  20.767  0.00  0.00    +0.000 C 
ENDBRANCH   7   9
ENDBRANCH   6   7
ENDBRANCH   2   6
ENDBRANCH   1   3
BRANCH   1  11
ATOM     11  N   UNL     1       7.864   4.183  17.205  0.00  0.00    +0.000 NA
ATOM     12  H   UNL     1       8.386   4.208  16.327  0.00  0.00    +0.000 HD
ATOM     13  H   UNL     1       7.794   3.197  17.457  0.00  0.00    +0.000 HD
ENDBRANCH   1  11
BRANCH   1  14
ATOM     14  C   UNL     1       5.761   3.923  15.841  0.00  0.00    +0.000 C 
BRANCH  14  15
ATOM     15  C   UNL     1       6.316   4.129  14.450  0.00  0.00    +0.000 A 
ATOM     16  C   UNL     1       7.276   5.125  14.222  0.00  0.00    +0.000 A 
ATOM     17  C   UNL     1       7.797   5.334  12.944  0.00  0.00    +0.000 A 
ATOM     18  C   UNL     1       7.361   4.542  11.879  0.00  0.00    +0.000 A 
ATOM     19  C   UNL     1       6.406   3.551  12.096  0.00  0.00    +0.000 A 
ATOM     20  C   UNL     1       5.883   3.344  13.376  0.00  0.00    +0.000 A 
ENDBRANCH  14  15
ENDBRANCH   1  14
TORSDOF 7
ENDMDL
MODEL 4
REMARK VINA RESULT:      -6.0      1.986      6.431
REMARK  Name = 
REMARK  9 active torsions:
REMARK  status: ('A' for Active; 'I' for Inactive)
REMARK    1  A    between atoms: C_1  and  N_2
REMARK    2  A    between atoms: N_2  and  C_3
REMARK    3  A    between atoms: N_2  and  C_4
REMARK    4  A    between atoms: C_4  and  C_5
REMARK    5  A    between atoms: C_5  and  N_6
REMARK    6  A    between atoms: C_7  and  C_9
REMARK    7  A    between atoms: C_9  and  N_10
REMARK    8  A    between atoms: C_9  and  C_11
REMARK    9  A    between atoms: C_11  and  C_12
REMARK                            x       y       z     vdW  Elec       q    Type
REMARK                         _______ _______ _______ _____ _____    ______ ____
ROOT
ATOM      1  C   UNL     1       6.748   5.053  17.061  0.00  0.00    +0.000 C 
ENDROOT
BRANCH   1   3
ATOM      2  N   UNL     1       5.134   3.636  18.249  0.00  0.00    +0.000 N 
ATOM      3  C   UNL     1       6.107   4.604  18.392  0.00  0.00    +0.000 C 
ATOM      4  O   UNL     1       6.356   5.137  19.471  0.00  0.00    +0.000 OA
ATOM      5  H   UNL     1       5.107   3.073  17.405  0.00  0.00    +0.000 HD
BRANCH   2   6
ATOM      6  C   UNL     1       4.439   3.102  19.405  0.00  0.00    +0.000 C 
BRANCH   6   7
ATOM      7  C   UNL     1       3.247   2.214  19.001  0.00  0.00    +0.000 C 
BRANCH   7   9
ATOM      8  C   UNL     1       2.078   3.702  20.537  0.00  0.00    +0.000 C 
ATOM      9  N   UNL     1       2.020   2.434  19.803  0.00  0.00    +0.000 NA
ATOM     10  C   UNL     1       0.856   2.449  18.907  0.00  0.00    +0.000 C 
ENDBRANCH   7   9
ENDBRANCH   6   7
ENDBRANCH   2   6
ENDBRANCH   1   3
BRANCH   1  11
ATOM     11  N   UNL     1       7.883   4.141  16.783  0.00  0.00    +0.000 NA
ATOM     12  H   UNL     1       7.510   3.199  16.652  0.00  0.00    +0.000 HD
ATOM     13  H   UNL     1       8.473   4.092  17.614  0.00  0.00    +0.000 HD
ENDBRANCH   1  11
BRANCH   1  14
ATOM     14  C   UNL     1       5.679   5.035  15.950  0.00  0.00    +0.000 C 
BRANCH  14  15
ATOM     15  C   UNL     1       6.217   4.728  14.570  0.00  0.00    +0.000 A 
ATOM     16  C   UNL     1       5.599   3.746  13.783  0.00  0.00    +0.000 A 
ATOM     17  C   UNL     1       6.082   3.445  12.509  0.00  0.00    +0.000 A 
ATOM     18  C   UNL     1       7.192   4.129  12.008  0.00  0.00    +0.000 A 
ATOM     19  C   UNL     1       7.814   5.107  12.784  0.00  0.00    +0.000 A 
ATOM     20  C   UNL     1       7.330   5.406  14.062  0.00  0.00    +0.000 A 
ENDBRANCH  14  15
ENDBRANCH   1  14
TORSDOF 7
ENDMDL
MODEL 5
REMARK VINA RESULT:      -6.0      1.892      6.145
REMARK  Name = 
REMARK  9 active torsions:
REMARK  status: ('A' for Active; 'I' for Inactive)
REMARK    1  A    between atoms: C_1  and  N_2
REMARK    2  A    between atoms: N_2  and  C_3
REMARK    3  A    between atoms: N_2  and  C_4
REMARK    4  A    between atoms: C_4  and  C_5
REMARK    5  A    between atoms: C_5  and  N_6
REMARK    6  A    between atoms: C_7  and  C_9
REMARK    7  A    between atoms: C_9  and  N_10
REMARK    8  A    between atoms: C_9  and  C_11
REMARK    9  A    between atoms: C_11  and  C_12
REMARK                            x       y       z     vdW  Elec       q    Type
REMARK                         _______ _______ _______ _____ _____    ______ ____
ROOT
ATOM      1  C   UNL     1       6.960   5.200  17.201  0.00  0.00    +0.000 C 
ENDROOT
BRANCH   1   3
ATOM      2  N   UNL     1       5.199   3.823  18.214  0.00  0.00    +0.000 N 
ATOM      3  C   UNL     1       6.221   4.715  18.467  0.00  0.00    +0.000 C 
ATOM      4  O   UNL     1       6.445   5.165  19.588  0.00  0.00    +0.000 OA
ATOM      5  H   UNL     1       5.182   3.315  17.336  0.00  0.00    +0.000 HD
BRANCH   2   6
ATOM      6  C   UNL     1       4.410   3.267  19.297  0.00  0.00    +0.000 C 
BRANCH   6   7
ATOM      7  C   UNL     1       3.193   4.147  19.635  0.00  0.00    +0.000 C 
BRANCH   7   9
ATOM      8  C   UNL     1       1.609   4.223  17.784  0.00  0.00    +0.000 C 
ATOM      9  N   UNL     1       1.906   3.644  19.098  0.00  0.00    +0.000 NA
ATOM     10  C   UNL     1       1.973   2.182  18.976  0.00  0.00    +0.000 C 
ENDBRANCH   7   9
ENDBRANCH   6   7
ENDBRANCH   2   6
ENDBRANCH   1   3
BRANCH   1  11
ATOM     11  N   UNL     1       7.926   4.143  16.816  0.00  0.00    +0.000 NA
ATOM     12  H   UNL     1       7.397   3.313  16.541  0.00  0.00    +0.000 HD
ATOM     13  H   UNL     1       8.458   3.870  17.643  0.00  0.00    +0.000 HD
ENDBRANCH   1  11
BRANCH   1  14
ATOM     14  C   UNL     1       5.929   5.501  16.094  0.00  0.00    +0.000 C 
BRANCH  14  15
ATOM     15  C   UNL     1       6.307   4.974  14.727  0.00  0.00    +0.000 A 
ATOM     16  C   UNL     1       7.411   5.513  14.053  0.00  0.00    +0.000 A 
ATOM     17  C   UNL     1       7.773   5.044  12.789  0.00  0.00    +0.000 A 
ATOM     18  C   UNL     1       7.031   4.025  12.189  0.00  0.00    +0.000 A 
ATOM     19  C   UNL     1       5.930   3.484  12.851  0.00  0.00    +0.000 A 
ATOM     20  C   UNL     1       5.567   3.956  14.117  0.00  0.00    +0.000 A 
ENDBRANCH  14  15
ENDBRANCH   1  14
TORSDOF 7
ENDMDL
MODEL 6
REMARK VINA RESULT:      -6.0      2.412      5.315
REMARK  Name = 
REMARK  9 active torsions:
REMARK  status: ('A' for Active; 'I' for Inactive)
REMARK    1  A    between atoms: C_1  and  N_2
REMARK    2  A    between atoms: N_2  and  C_3
REMARK    3  A    between atoms: N_2  and  C_4
REMARK    4  A    between atoms: C_4  and  C_5
REMARK    5  A    between atoms: C_5  and  N_6
REMARK    6  A    between atoms: C_7  and  C_9
REMARK    7  A    between atoms: C_9  and  N_10
REMARK    8  A    between atoms: C_9  and  C_11
REMARK    9  A    between atoms: C_11  and  C_12
REMARK                            x       y       z     vdW  Elec       q    Type
REMARK                         _______ _______ _______ _____ _____    ______ ____
ROOT
ATOM      1  C   UNL     1       6.901   5.549  19.155  0.00  0.00    +0.000 C 
ENDROOT
BRANCH   1   3
ATOM      2  N   UNL     1       4.463   5.541  19.432  0.00  0.00    +0.000 N 
ATOM      3  C   UNL     1       5.593   4.753  19.348  0.00  0.00    +0.000 C 
ATOM      4  O   UNL     1       5.566   3.537  19.524  0.00  0.00    +0.000 OA
ATOM      5  H   UNL     1       4.484   6.489  19.072  0.00  0.00    +0.000 HD
BRANCH   2   6
ATOM      6  C   UNL     1       3.151   4.947  19.608  0.00  0.00    +0.000 C 
BRANCH   6   7
ATOM      7  C   UNL     1       2.237   5.195  18.394  0.00  0.00    +0.000 C 
BRANCH   7   9
ATOM      8  C   UNL     1       3.002   3.305  17.059  0.00  0.00    +0.000 C 
ATOM      9  N   UNL     1       1.842   3.968  17.663  0.00  0.00    +0.000 NA
ATOM     10  C   UNL     1       1.190   3.040  18.596  0.00  0.00    +0.000 C 
ENDBRANCH   7   9
ENDBRANCH   6   7
ENDBRANCH   2   6
ENDBRANCH   1   3
BRANCH   1  11
ATOM     11  N   UNL     1       7.684   5.432  20.409  0.00  0.00    +0.000 NA
ATOM     12  H   UNL     1       8.538   5.982  20.303  0.00  0.00    +0.000 HD
ATOM     13  H   UNL     1       7.989   4.464  20.514  0.00  0.00    +0.000 HD
ENDBRANCH   1  11
BRANCH   1  14
ATOM     14  C   UNL     1       7.654   5.001  17.926  0.00  0.00    +0.000 C 
BRANCH  14  15
ATOM     15  C   UNL     1       6.843   4.986  16.650  0.00  0.00    +0.000 A 
ATOM     16  C   UNL     1       6.020   6.076  16.333  0.00  0.00    +0.000 A 
ATOM     17  C   UNL     1       5.261   6.078  15.162  0.00  0.00    +0.000 A 
ATOM     18  C   UNL     1       5.320   4.987  14.294  0.00  0.00    +0.000 A 
ATOM     19  C   UNL     1       6.134   3.898  14.601  0.00  0.00    +0.000 A 
ATOM     20  C   UNL     1       6.894   3.895  15.776  0.00  0.00    +0.000 A 
ENDBRANCH  14  15
ENDBRANCH   1  14
TORSDOF 7
ENDMDL
MODEL 7
REMARK VINA RESULT:      -6.0      2.592      3.813
REMARK  Name = 
REMARK  9 active torsions:
REMARK  status: ('A' for Active; 'I' for Inactive)
REMARK    1  A    between atoms: C_1  and  N_2
REMARK    2  A    between atoms: N_2  and  C_3
REMARK    3  A    between atoms: N_2  and  C_4
REMARK    4  A    between atoms: C_4  and  C_5
REMARK    5  A    between atoms: C_5  and  N_6
REMARK    6  A    between atoms: C_7  and  C_9
REMARK    7  A    between atoms: C_9  and  N_10
REMARK    8  A    between atoms: C_9  and  C_11
REMARK    9  A    between atoms: C_11  and  C_12
REMARK                            x       y       z     vdW  Elec       q    Type
REMARK                         _______ _______ _______ _____ _____    ______ ____
ROOT
ATOM      1  C   UNL     1       4.057   3.409  16.888  0.00  0.00    +0.000 C 
ENDROOT
BRANCH   1   3
ATOM      2  N   UNL     1       6.221   4.183  17.750  0.00  0.00    +0.000 N 
ATOM      3  C   UNL     1       5.470   3.967  16.612  0.00  0.00    +0.000 C 
ATOM      4  O   UNL     1       5.855   4.297  15.493  0.00  0.00    +0.000 OA
ATOM      5  H   UNL     1       5.973   3.709  18.612  0.00  0.00    +0.000 HD
BRANCH   2   6
ATOM      6  C   UNL     1       7.574   4.700  17.663  0.00  0.00    +0.000 C 
BRANCH   6   7
ATOM      7  C   UNL     1       7.686   6.120  18.245  0.00  0.00    +0.000 C 
BRANCH   7   9
ATOM      8  C   UNL     1       5.954   7.403  17.109  0.00  0.00    +0.000 C 
ATOM      9  N   UNL     1       7.396   7.205  17.277  0.00  0.00    +0.000 NA
ATOM     10  C   UNL     1       8.001   8.454  17.757  0.00  0.00    +0.000 C 
ENDBRANCH   7   9
ENDBRANCH   6   7
ENDBRANCH   2   6
ENDBRANCH   1   3
BRANCH   1  11
ATOM     11  N   UNL     1       4.211   2.216  17.756  0.00  0.00    +0.000 NA
ATOM     12  H   UNL     1       3.761   1.425  17.293  0.00  0.00    +0.000 HD
ATOM     13  H   UNL     1       3.683   2.369  18.617  0.00  0.00    +0.000 HD
ENDBRANCH   1  11
BRANCH   1  14
ATOM     14  C   UNL     1       3.191   4.510  17.532  0.00  0.00    +0.000 C 
BRANCH  14  15
ATOM     15  C   UNL     1       2.475   4.085  18.795  0.00  0.00    +0.000 A 
ATOM     16  C   UNL     1       2.970   4.482  20.045  0.00  0.00    +0.000 A 
ATOM     17  C   UNL     1       2.327   4.097  21.221  0.00  0.00    +0.000 A 
ATOM     18  C   UNL     1       1.175   3.310  21.157  0.00  0.00    +0.000 A 
ATOM     19  C   UNL     1       0.676   2.909  19.918  0.00  0.00    +0.000 A 
ATOM     20  C   UNL     1       1.323   3.294  18.740  0.00  0.00    +0.000 A 
ENDBRANCH  14  15
ENDBRANCH   1  14
TORSDOF 7
ENDMDL
MODEL 8
REMARK VINA RESULT:      -5.9      1.214      1.901
REMARK  Name = 
REMARK  9 active torsions:
REMARK  status: ('A' for Active; 'I' for Inactive)
REMARK    1  A    between atoms: C_1  and  N_2
REMARK    2  A    between atoms: N_2  and  C_3
REMARK    3  A    between atoms: N_2  and  C_4
REMARK    4  A    between atoms: C_4  and  C_5
REMARK    5  A    between atoms: C_5  and  N_6
REMARK    6  A    between atoms: C_7  and  C_9
REMARK    7  A    between atoms: C_9  and  N_10
REMARK    8  A    between atoms: C_9  and  C_11
REMARK    9  A    between atoms: C_11  and  C_12
REMARK                            x       y       z     vdW  Elec       q    Type
REMARK                         _______ _______ _______ _____ _____    ______ ____
ROOT
ATOM      1  C   UNL     1       5.457   4.027  16.811  0.00  0.00    +0.000 C 
ENDROOT
BRANCH   1   3
ATOM      2  N   UNL     1       6.012   4.275  14.433  0.00  0.00    +0.000 N 
ATOM      3  C   UNL     1       6.445   4.502  15.723  0.00  0.00    +0.000 C 
ATOM      4  O   UNL     1       7.565   4.939  15.978  0.00  0.00    +0.000 OA
ATOM      5  H   UNL     1       5.024   4.123  14.254  0.00  0.00    +0.000 HD
BRANCH   2   6
ATOM      6  C   UNL     1       6.821   4.667  13.295  0.00  0.00    +0.000 C 
BRANCH   6   7
ATOM      7  C   UNL     1       6.799   3.608  12.178  0.00  0.00    +0.000 C 
BRANCH   7   9
ATOM      8  C   UNL     1       4.462   3.455  11.503  0.00  0.00    +0.000 C 
ATOM      9  N   UNL     1       5.578   2.766  12.156  0.00  0.00    +0.000 NA
ATOM     10  C   UNL     1       5.865   1.520  11.433  0.00  0.00    +0.000 C 
ENDBRANCH   7   9
ENDBRANCH   6   7
ENDBRANCH   2   6
ENDBRANCH   1   3
BRANCH   1  11
ATOM     11  N   UNL     1       6.216   3.902  18.079  0.00  0.00    +0.000 NA
ATOM     12  H   UNL     1       7.009   3.280  17.914  0.00  0.00    +0.000 HD
ATOM     13  H   UNL     1       5.629   3.425  18.764  0.00  0.00    +0.000 HD
ENDBRANCH   1  11
BRANCH   1  14
ATOM     14  C   UNL     1       4.288   5.028  16.909  0.00  0.00    +0.000 C 
BRANCH  14  15
ATOM     15  C   UNL     1       3.183   4.609  17.853  0.00  0.00    +0.000 A 
ATOM     16  C   UNL     1       2.983   5.313  19.049  0.00  0.00    +0.000 A 
ATOM     17  C   UNL     1       1.971   4.939  19.934  0.00  0.00    +0.000 A 
ATOM     18  C   UNL     1       1.146   3.855  19.628  0.00  0.00    +0.000 A 
ATOM     19  C   UNL     1       1.338   3.149  18.441  0.00  0.00    +0.000 A 
ATOM     20  C   UNL     1       2.354   3.523  17.555  0.00  0.00    +0.000 A 
ENDBRANCH  14  15
ENDBRANCH   1  14
TORSDOF 7
ENDMDL
MODEL 9
REMARK VINA RESULT:      -5.9      1.965      6.422
REMARK  Name = 
REMARK  9 active torsions:
REMARK  status: ('A' for Active; 'I' for Inactive)
REMARK    1  A    between atoms: C_1  and  N_2
REMARK    2  A    between atoms: N_2  and  C_3
REMARK    3  A    between atoms: N_2  and  C_4
REMARK    4  A    between atoms: C_4  and  C_5
REMARK    5  A    between atoms: C_5  and  N_6
REMARK    6  A    between atoms: C_7  and  C_9
REMARK    7  A    between atoms: C_9  and  N_10
REMARK    8  A    between atoms: C_9  and  C_11
REMARK    9  A    between atoms: C_11  and  C_12
REMARK                            x       y       z     vdW  Elec       q    Type
REMARK                         _______ _______ _______ _____ _____    ______ ____
ROOT
ATOM      1  C   UNL     1       6.373   4.797  16.948  0.00  0.00    +0.000 C 
ENDROOT
BRANCH   1   3
ATOM      2  N   UNL     1       3.977   5.129  17.365  0.00  0.00    +0.000 N 
ATOM      3  C   UNL     1       5.234   5.132  17.935  0.00  0.00    +0.000 C 
ATOM      4  O   UNL     1       5.432   5.480  19.097  0.00  0.00    +0.000 OA
ATOM      5  H   UNL     1       3.824   4.636  16.490  0.00  0.00    +0.000 HD
BRANCH   2   6
ATOM      6  C   UNL     1       2.798   5.418  18.158  0.00  0.00    +0.000 C 
BRANCH   6   7
ATOM      7  C   UNL     1       1.649   4.437  17.862  0.00  0.00    +0.000 C 
BRANCH   7   9
ATOM      8  C   UNL     1       1.205   2.250  18.842  0.00  0.00    +0.000 C 
ATOM      9  N   UNL     1       1.151   3.700  19.048  0.00  0.00    +0.000 NA
ATOM     10  C   UNL     1       1.972   4.053  20.213  0.00  0.00    +0.000 C 
ENDBRANCH   7   9
ENDBRANCH   6   7
ENDBRANCH   2   6
ENDBRANCH   1   3
BRANCH   1  11
ATOM     11  N   UNL     1       7.488   4.216  17.735  0.00  0.00    +0.000 NA
ATOM     12  H   UNL     1       7.201   3.288  18.055  0.00  0.00    +0.000 HD
ATOM     13  H   UNL     1       7.616   4.772  18.580  0.00  0.00    +0.000 HD
ENDBRANCH   1  11
BRANCH   1  14
ATOM     14  C   UNL     1       5.842   3.839  15.863  0.00  0.00    +0.000 C 
BRANCH  14  15
ATOM     15  C   UNL     1       6.377   4.108  14.474  0.00  0.00    +0.000 A 
ATOM     16  C   UNL     1       5.884   3.379  13.383  0.00  0.00    +0.000 A 
ATOM     17  C   UNL     1       6.368   3.610  12.095  0.00  0.00    +0.000 A 
ATOM     18  C   UNL     1       7.351   4.579  11.886  0.00  0.00    +0.000 A 
ATOM     19  C   UNL     1       7.848   5.309  12.965  0.00  0.00    +0.000 A 
ATOM     20  C   UNL     1       7.364   5.075  14.256  0.00  0.00    +0.000 A 
ENDBRANCH  14  15
ENDBRANCH   1  14
TORSDOF 7
ENDMDL
