MODEL 1
REMARK VINA RESULT:      -8.4      0.000      0.000
REMARK  Name = 
REMARK  5 active torsions:
REMARK  status: ('A' for Active; 'I' for Inactive)
REMARK    1  A    between atoms: C_2  and  C_3
REMARK    2  A    between atoms: C_3  and  O_4
REMARK    3  A    between atoms: O_4  and  C_5
REMARK    4  A    between atoms: C_5  and  C_6
REMARK    5  A    between atoms: C_5  and  C_12
REMARK                            x       y       z     vdW  Elec       q    Type
REMARK                         _______ _______ _______ _____ _____    ______ ____
ROOT
ATOM      1  O   UNL     1       2.783   7.609  18.769  0.00  0.00    +0.000 OA
ENDROOT
BRANCH   1   2
ATOM      2  C   UNL     1       1.694   8.364  18.238  0.00  0.00    +0.000 C 
BRANCH   2   4
ATOM      3  O   UNL     1       2.339  10.551  17.469  0.00  0.00    +0.000 OA
ATOM      4  C   UNL     1       1.814   9.892  18.361  0.00  0.00    +0.000 C 
ATOM      5  N   UNL     1       1.269  10.463  19.507  0.00  0.00    +0.000 N 
ATOM      6  C   UNL     1       0.669   9.739  20.630  0.00  0.00    +0.000 C 
ATOM      7  C   UNL     1      -0.757  10.214  20.880  0.00  0.00    +0.000 C 
ATOM      8  C   UNL     1      -0.813  11.735  21.027  0.00  0.00    +0.000 C 
ATOM      9  C   UNL     1      -0.109  12.443  19.866  0.00  0.00    +0.000 C 
ATOM     10  C   UNL     1       1.301  11.910  19.663  0.00  0.00    +0.000 C 
ATOM     11  O   UNL     1      -0.195  12.106  22.274  0.00  0.00    +0.000 OA
ATOM     12  C   UNL     1      -1.086  13.058  22.853  0.00  0.00    +0.000 C 
ATOM     13  C   UNL     1      -2.437  12.617  22.364  0.00  0.00    +0.000 C 
ATOM     14  O   UNL     1      -2.187  12.162  21.037  0.00  0.00    +0.000 OA
ENDBRANCH   2   4
ENDBRANCH   1   2
BRANCH   1  15
ATOM     15  C   UNL     1       3.035   6.379  18.063  0.00  0.00    +0.000 C 
BRANCH  15  16
ATOM     16  C   UNL     1       4.536   6.135  18.006  0.00  0.00    +0.000 A 
ATOM     17  C   UNL     1       5.193   5.457  19.043  0.00  0.00    +0.000 A 
ATOM     18  C   UNL     1       6.584   5.372  19.058  0.00  0.00    +0.000 A 
ATOM     19  C   UNL     1       7.333   5.977  18.050  0.00  0.00    +0.000 A 
ATOM     20  C   UNL     1       6.690   6.618  16.994  0.00  0.00    +0.000 A 
ATOM     21  C   UNL     1       5.297   6.681  16.959  0.00  0.00    +0.000 A 
ENDBRANCH  15  16
BRANCH  15  22
ATOM     22  C   UNL     1       2.262   5.221  18.695  0.00  0.00    +0.000 A 
ATOM     23  C   UNL     1       1.864   5.213  20.043  0.00  0.00    +0.000 A 
ATOM     24  C   UNL     1       1.182   4.115  20.581  0.00  0.00    +0.000 A 
ATOM     25  C   UNL     1       0.878   3.017  19.781  0.00  0.00    +0.000 A 
ATOM     26  C   UNL     1       1.234   3.023  18.436  0.00  0.00    +0.000 A 
ATOM     27  C   UNL     1       1.907   4.120  17.896  0.00  0.00    +0.000 A 
ENDBRANCH  15  22
ENDBRANCH   1  15
TORSDOF 5
ENDMDL
MODEL 2
REMARK VINA RESULT:      -8.3      1.113      1.185
REMARK  Name = 
REMARK  5 active torsions:
REMARK  status: ('A' for Active; 'I' for Inactive)
REMARK    1  A    between atoms: C_2  and  C_3
REMARK    2  A    between atoms: C_3  and  O_4
REMARK    3  A    between atoms: O_4  and  C_5
REMARK    4  A    between atoms: C_5  and  C_6
REMARK    5  A    between atoms: C_5  and  C_12
REMARK                            x       y       z     vdW  Elec       q    Type
REMARK                         _______ _______ _______ _____ _____    ______ ____
ROOT
ATOM      1  O   UNL     1       3.155   7.013  18.518  0.00  0.00    +0.000 OA
ENDROOT
BRANCH   1   2
ATOM      2  C   UNL     1       1.888   7.638  18.724  0.00  0.00    +0.000 C 
BRANCH   2   4
ATOM      3  O   UNL     1       2.105   9.559  17.292  0.00  0.00    +0.000 OA
ATOM      4  C   UNL     1       1.823   9.141  18.410  0.00  0.00    +0.000 C 
ATOM      5  N   UNL     1       1.398   9.970  19.445  0.00  0.00    +0.000 N 
ATOM      6  C   UNL     1       1.088   9.550  20.813  0.00  0.00    +0.000 C 
ATOM      7  C   UNL     1      -0.330   9.958  21.196  0.00  0.00    +0.000 C 
ATOM      8  C   UNL     1      -0.562  11.447  20.941  0.00  0.00    +0.000 C 
ATOM      9  C   UNL     1      -0.154  11.849  19.520  0.00  0.00    +0.000 C 
ATOM     10  C   UNL     1       1.263  11.398  19.201  0.00  0.00    +0.000 C 
ATOM     11  O   UNL     1       0.194  12.209  21.901  0.00  0.00    +0.000 OA
ATOM     12  C   UNL     1      -0.710  13.210  22.365  0.00  0.00    +0.000 C 
ATOM     13  C   UNL     1      -2.052  12.538  22.280  0.00  0.00    +0.000 C 
ATOM     14  O   UNL     1      -1.961  11.745  21.099  0.00  0.00    +0.000 OA
ENDBRANCH   2   4
ENDBRANCH   1   2
BRANCH   1  15
ATOM     15  C   UNL     1       3.063   5.677  17.986  0.00  0.00    +0.000 C 
BRANCH  15  16
ATOM     16  C   UNL     1       4.444   5.224  17.537  0.00  0.00    +0.000 A 
ATOM     17  C   UNL     1       5.599   5.861  18.013  0.00  0.00    +0.000 A 
ATOM     18  C   UNL     1       6.849   5.543  17.482  0.00  0.00    +0.000 A 
ATOM     19  C   UNL     1       6.955   4.601  16.461  0.00  0.00    +0.000 A 
ATOM     20  C   UNL     1       5.820   3.933  16.007  0.00  0.00    +0.000 A 
ATOM     21  C   UNL     1       4.572   4.226  16.556  0.00  0.00    +0.000 A 
ENDBRANCH  15  16
BRANCH  15  22
ATOM     22  C   UNL     1       2.421   4.731  19.001  0.00  0.00    +0.000 A 
ATOM     23  C   UNL     1       2.762   4.726  20.364  0.00  0.00    +0.000 A 
ATOM     24  C   UNL     1       2.165   3.819  21.248  0.00  0.00    +0.000 A 
ATOM     25  C   UNL     1       1.212   2.915  20.788  0.00  0.00    +0.000 A 
ATOM     26  C   UNL     1       0.837   2.929  19.448  0.00  0.00    +0.000 A 
ATOM     27  C   UNL     1       1.426   3.837  18.567  0.00  0.00    +0.000 A 
ENDBRANCH  15  22
ENDBRANCH   1  15
TORSDOF 5
ENDMDL
MODEL 3
REMARK VINA RESULT:      -8.3      0.975      3.595
REMARK  Name = 
REMARK  5 active torsions:
REMARK  status: ('A' for Active; 'I' for Inactive)
REMARK    1  A    between atoms: C_2  and  C_3
REMARK    2  A    between atoms: C_3  and  O_4
REMARK    3  A    between atoms: O_4  and  C_5
REMARK    4  A    between atoms: C_5  and  C_6
REMARK    5  A    between atoms: C_5  and  C_12
REMARK                            x       y       z     vdW  Elec       q    Type
REMARK                         _______ _______ _______ _____ _____    ______ ____
ROOT
ATOM      1  O   UNL     1       2.329   7.201  18.675  0.00  0.00    +0.000 OA
ENDROOT
BRANCH   1   2
ATOM      2  C   UNL     1       1.713   8.060  19.634  0.00  0.00    +0.000 C 
BRANCH   2   4
ATOM      3  O   UNL     1       1.160   9.636  17.903  0.00  0.00    +0.000 OA
ATOM      4  C   UNL     1       1.247   9.428  19.108  0.00  0.00    +0.000 C 
ATOM      5  N   UNL     1       0.907  10.375  20.070  0.00  0.00    +0.000 N 
ATOM      6  C   UNL     1       1.027  10.213  21.520  0.00  0.00    +0.000 C 
ATOM      7  C   UNL     1      -0.314  10.448  22.204  0.00  0.00    +0.000 C 
ATOM      8  C   UNL     1      -0.921  11.786  21.781  0.00  0.00    +0.000 C 
ATOM      9  C   UNL     1      -0.957  11.936  20.257  0.00  0.00    +0.000 C 
ATOM     10  C   UNL     1       0.408  11.674  19.641  0.00  0.00    +0.000 C 
ATOM     11  O   UNL     1      -0.146  12.853  22.360  0.00  0.00    +0.000 OA
ATOM     12  C   UNL     1      -1.113  13.763  22.883  0.00  0.00    +0.000 C 
ATOM     13  C   UNL     1      -2.256  12.871  23.279  0.00  0.00    +0.000 C 
ATOM     14  O   UNL     1      -2.273  11.869  22.265  0.00  0.00    +0.000 OA
ENDBRANCH   2   4
ENDBRANCH   1   2
BRANCH   1  15
ATOM     15  C   UNL     1       3.113   6.145  19.263  0.00  0.00    +0.000 C 
BRANCH  15  16
ATOM     16  C   UNL     1       2.229   4.923  19.466  0.00  0.00    +0.000 A 
ATOM     17  C   UNL     1       1.954   4.442  20.755  0.00  0.00    +0.000 A 
ATOM     18  C   UNL     1       1.273   3.237  20.927  0.00  0.00    +0.000 A 
ATOM     19  C   UNL     1       0.875   2.495  19.817  0.00  0.00    +0.000 A 
ATOM     20  C   UNL     1       1.107   2.982  18.533  0.00  0.00    +0.000 A 
ATOM     21  C   UNL     1       1.762   4.200  18.356  0.00  0.00    +0.000 A 
ENDBRANCH  15  16
BRANCH  15  22
ATOM     22  C   UNL     1       4.354   5.854  18.419  0.00  0.00    +0.000 A 
ATOM     23  C   UNL     1       5.387   5.001  18.845  0.00  0.00    +0.000 A 
ATOM     24  C   UNL     1       6.516   4.789  18.046  0.00  0.00    +0.000 A 
ATOM     25  C   UNL     1       6.626   5.414  16.807  0.00  0.00    +0.000 A 
ATOM     26  C   UNL     1       5.597   6.234  16.353  0.00  0.00    +0.000 A 
ATOM     27  C   UNL     1       4.467   6.440  17.146  0.00  0.00    +0.000 A 
ENDBRANCH  15  22
ENDBRANCH   1  15
TORSDOF 5
ENDMDL
MODEL 4
REMARK VINA RESULT:      -8.3      0.801      3.714
REMARK  Name = 
REMARK  5 active torsions:
REMARK  status: ('A' for Active; 'I' for Inactive)
REMARK    1  A    between atoms: C_2  and  C_3
REMARK    2  A    between atoms: C_3  and  O_4
REMARK    3  A    between atoms: O_4  and  C_5
REMARK    4  A    between atoms: C_5  and  C_6
REMARK    5  A    between atoms: C_5  and  C_12
REMARK                            x       y       z     vdW  Elec       q    Type
REMARK                         _______ _______ _______ _____ _____    ______ ____
ROOT
ATOM      1  O   UNL     1       2.785   7.095  17.947  0.00  0.00    +0.000 OA
ENDROOT
BRANCH   1   2
ATOM      2  C   UNL     1       1.867   7.826  18.761  0.00  0.00    +0.000 C 
BRANCH   2   4
ATOM      3  O   UNL     1       2.001   9.763  17.339  0.00  0.00    +0.000 OA
ATOM      4  C   UNL     1       1.756   9.330  18.461  0.00  0.00    +0.000 C 
ATOM      5  N   UNL     1       1.335  10.139  19.511  0.00  0.00    +0.000 N 
ATOM      6  C   UNL     1       1.069   9.702  20.883  0.00  0.00    +0.000 C 
ATOM      7  C   UNL     1      -0.349  10.071  21.303  0.00  0.00    +0.000 C 
ATOM      8  C   UNL     1      -0.625  11.556  21.065  0.00  0.00    +0.000 C 
ATOM      9  C   UNL     1      -0.262  11.978  19.638  0.00  0.00    +0.000 C 
ATOM     10  C   UNL     1       1.158  11.566  19.282  0.00  0.00    +0.000 C 
ATOM     11  O   UNL     1       0.134  12.329  22.013  0.00  0.00    +0.000 OA
ATOM     12  C   UNL     1      -0.785  13.303  22.507  0.00  0.00    +0.000 C 
ATOM     13  C   UNL     1      -2.111  12.598  22.447  0.00  0.00    +0.000 C 
ATOM     14  O   UNL     1      -2.027  11.816  21.258  0.00  0.00    +0.000 OA
ENDBRANCH   2   4
ENDBRANCH   1   2
BRANCH   1  15
ATOM     15  C   UNL     1       3.574   6.138  18.680  0.00  0.00    +0.000 C 
BRANCH  15  16
ATOM     16  C   UNL     1       2.690   4.964  19.078  0.00  0.00    +0.000 A 
ATOM     17  C   UNL     1       2.085   4.159  18.102  0.00  0.00    +0.000 A 
ATOM     18  C   UNL     1       1.158   3.185  18.470  0.00  0.00    +0.000 A 
ATOM     19  C   UNL     1       0.814   3.016  19.810  0.00  0.00    +0.000 A 
ATOM     20  C   UNL     1       1.438   3.783  20.791  0.00  0.00    +0.000 A 
ATOM     21  C   UNL     1       2.388   4.739  20.431  0.00  0.00    +0.000 A 
ENDBRANCH  15  16
BRANCH  15  22
ATOM     22  C   UNL     1       4.804   5.718  17.876  0.00  0.00    +0.000 A 
ATOM     23  C   UNL     1       4.906   5.892  16.485  0.00  0.00    +0.000 A 
ATOM     24  C   UNL     1       6.044   5.465  15.792  0.00  0.00    +0.000 A 
ATOM     25  C   UNL     1       7.100   4.869  16.475  0.00  0.00    +0.000 A 
ATOM     26  C   UNL     1       7.031   4.720  17.857  0.00  0.00    +0.000 A 
ATOM     27  C   UNL     1       5.901   5.153  18.551  0.00  0.00    +0.000 A 
ENDBRANCH  15  22
ENDBRANCH   1  15
TORSDOF 5
ENDMDL
MODEL 5
REMARK VINA RESULT:      -8.3      0.156      1.321
REMARK  Name = 
REMARK  5 active torsions:
REMARK  status: ('A' for Active; 'I' for Inactive)
REMARK    1  A    between atoms: C_2  and  C_3
REMARK    2  A    between atoms: C_3  and  O_4
REMARK    3  A    between atoms: O_4  and  C_5
REMARK    4  A    between atoms: C_5  and  C_6
REMARK    5  A    between atoms: C_5  and  C_12
REMARK                            x       y       z     vdW  Elec       q    Type
REMARK                         _______ _______ _______ _____ _____    ______ ____
ROOT
ATOM      1  O   UNL     1       2.562   7.568  18.728  0.00  0.00    +0.000 OA
ENDROOT
BRANCH   1   2
ATOM      2  C   UNL     1       1.666   8.403  17.995  0.00  0.00    +0.000 C 
BRANCH   2   4
ATOM      3  O   UNL     1       2.396  10.606  17.362  0.00  0.00    +0.000 OA
ATOM      4  C   UNL     1       1.836   9.916  18.207  0.00  0.00    +0.000 C 
ATOM      5  N   UNL     1       1.292  10.440  19.376  0.00  0.00    +0.000 N 
ATOM      6  C   UNL     1       0.651   9.674  20.447  0.00  0.00    +0.000 C 
ATOM      7  C   UNL     1      -0.762  10.184  20.705  0.00  0.00    +0.000 C 
ATOM      8  C   UNL     1      -0.769  11.695  20.938  0.00  0.00    +0.000 C 
ATOM      9  C   UNL     1      -0.024  12.443  19.829  0.00  0.00    +0.000 C 
ATOM     10  C   UNL     1       1.370  11.874  19.615  0.00  0.00    +0.000 C 
ATOM     11  O   UNL     1      -0.159  11.973  22.212  0.00  0.00    +0.000 OA
ATOM     12  C   UNL     1      -1.026  12.921  22.833  0.00  0.00    +0.000 C 
ATOM     13  C   UNL     1      -2.384  12.555  22.301  0.00  0.00    +0.000 C 
ATOM     14  O   UNL     1      -2.128  12.167  20.953  0.00  0.00    +0.000 OA
ENDBRANCH   2   4
ENDBRANCH   1   2
BRANCH   1  15
ATOM     15  C   UNL     1       2.942   6.368  18.026  0.00  0.00    +0.000 C 
BRANCH  15  16
ATOM     16  C   UNL     1       4.458   6.237  18.046  0.00  0.00    +0.000 A 
ATOM     17  C   UNL     1       5.230   6.661  16.955  0.00  0.00    +0.000 A 
ATOM     18  C   UNL     1       6.599   6.398  16.916  0.00  0.00    +0.000 A 
ATOM     19  C   UNL     1       7.206   5.696  17.957  0.00  0.00    +0.000 A 
ATOM     20  C   UNL     1       6.457   5.306  19.064  0.00  0.00    +0.000 A 
ATOM     21  C   UNL     1       5.093   5.592  19.121  0.00  0.00    +0.000 A 
ENDBRANCH  15  16
BRANCH  15  22
ATOM     22  C   UNL     1       2.226   5.148  18.606  0.00  0.00    +0.000 A 
ATOM     23  C   UNL     1       1.953   3.992  17.855  0.00  0.00    +0.000 A 
ATOM     24  C   UNL     1       1.270   2.913  18.426  0.00  0.00    +0.000 A 
ATOM     25  C   UNL     1       0.860   2.965  19.755  0.00  0.00    +0.000 A 
ATOM     26  C   UNL     1       1.152   4.088  20.524  0.00  0.00    +0.000 A 
ATOM     27  C   UNL     1       1.840   5.162  19.959  0.00  0.00    +0.000 A 
ENDBRANCH  15  22
ENDBRANCH   1  15
TORSDOF 5
ENDMDL
MODEL 6
REMARK VINA RESULT:      -8.2      0.881      1.418
REMARK  Name = 
REMARK  5 active torsions:
REMARK  status: ('A' for Active; 'I' for Inactive)
REMARK    1  A    between atoms: C_2  and  C_3
REMARK    2  A    between atoms: C_3  and  O_4
REMARK    3  A    between atoms: O_4  and  C_5
REMARK    4  A    between atoms: C_5  and  C_6
REMARK    5  A    between atoms: C_5  and  C_12
REMARK                            x       y       z     vdW  Elec       q    Type
REMARK                         _______ _______ _______ _____ _____    ______ ____
ROOT
ATOM      1  O   UNL     1       2.875   7.315  18.410  0.00  0.00    +0.000 OA
ENDROOT
BRANCH   1   2
ATOM      2  C   UNL     1       1.690   8.058  18.125  0.00  0.00    +0.000 C 
BRANCH   2   4
ATOM      3  O   UNL     1       2.320  10.213  17.260  0.00  0.00    +0.000 OA
ATOM      4  C   UNL     1       1.826   9.588  18.193  0.00  0.00    +0.000 C 
ATOM      5  N   UNL     1       1.331  10.201  19.340  0.00  0.00    +0.000 N 
ATOM      6  C   UNL     1       0.771   9.519  20.509  0.00  0.00    +0.000 C 
ATOM      7  C   UNL     1      -0.641  10.015  20.799  0.00  0.00    +0.000 C 
ATOM      8  C   UNL     1      -0.680  11.540  20.899  0.00  0.00    +0.000 C 
ATOM      9  C   UNL     1      -0.017  12.204  19.688  0.00  0.00    +0.000 C 
ATOM     10  C   UNL     1       1.380  11.652  19.447  0.00  0.00    +0.000 C 
ATOM     11  O   UNL     1      -0.010  11.946  22.107  0.00  0.00    +0.000 OA
ATOM     12  C   UNL     1      -0.870  12.924  22.689  0.00  0.00    +0.000 C 
ATOM     13  C   UNL     1      -2.243  12.479  22.269  0.00  0.00    +0.000 C 
ATOM     14  O   UNL     1      -2.049  11.978  20.948  0.00  0.00    +0.000 OA
ENDBRANCH   2   4
ENDBRANCH   1   2
BRANCH   1  15
ATOM     15  C   UNL     1       2.876   5.989  17.847  0.00  0.00    +0.000 C 
BRANCH  15  16
ATOM     16  C   UNL     1       4.285   5.645  17.386  0.00  0.00    +0.000 A 
ATOM     17  C   UNL     1       5.307   6.605  17.421  0.00  0.00    +0.000 A 
ATOM     18  C   UNL     1       6.552   6.331  16.857  0.00  0.00    +0.000 A 
ATOM     19  C   UNL     1       6.783   5.104  16.237  0.00  0.00    +0.000 A 
ATOM     20  C   UNL     1       5.790   4.128  16.230  0.00  0.00    +0.000 A 
ATOM     21  C   UNL     1       4.552   4.387  16.820  0.00  0.00    +0.000 A 
ENDBRANCH  15  16
BRANCH  15  22
ATOM     22  C   UNL     1       2.306   4.975  18.840  0.00  0.00    +0.000 A 
ATOM     23  C   UNL     1       1.450   3.928  18.457  0.00  0.00    +0.000 A 
ATOM     24  C   UNL     1       0.933   3.043  19.409  0.00  0.00    +0.000 A 
ATOM     25  C   UNL     1       1.269   3.182  20.753  0.00  0.00    +0.000 A 
ATOM     26  C   UNL     1       2.142   4.192  21.145  0.00  0.00    +0.000 A 
ATOM     27  C   UNL     1       2.666   5.070  20.196  0.00  0.00    +0.000 A 
ENDBRANCH  15  22
ENDBRANCH   1  15
TORSDOF 5
ENDMDL
MODEL 7
REMARK VINA RESULT:      -8.2      1.540      2.362
REMARK  Name = 
REMARK  5 active torsions:
REMARK  status: ('A' for Active; 'I' for Inactive)
REMARK    1  A    between atoms: C_2  and  C_3
REMARK    2  A    between atoms: C_3  and  O_4
REMARK    3  A    between atoms: O_4  and  C_5
REMARK    4  A    between atoms: C_5  and  C_6
REMARK    5  A    between atoms: C_5  and  C_12
REMARK                            x       y       z     vdW  Elec       q    Type
REMARK                         _______ _______ _______ _____ _____    ______ ____
ROOT
ATOM      1  O   UNL     1       3.334   7.023  18.583  0.00  0.00    +0.000 OA
ENDROOT
BRANCH   1   2
ATOM      2  C   UNL     1       2.233   7.918  18.418  0.00  0.00    +0.000 C 
BRANCH   2   4
ATOM      3  O   UNL     1       1.629   7.678  20.734  0.00  0.00    +0.000 OA
ATOM      4  C   UNL     1       1.515   8.342  19.709  0.00  0.00    +0.000 C 
ATOM      5  N   UNL     1       0.775   9.519  19.645  0.00  0.00    +0.000 N 
ATOM      6  C   UNL     1       0.558  10.337  18.450  0.00  0.00    +0.000 C 
ATOM      7  C   UNL     1       1.015  11.772  18.687  0.00  0.00    +0.000 C 
ATOM      8  C   UNL     1       0.381  12.349  19.953  0.00  0.00    +0.000 C 
ATOM      9  C   UNL     1       0.573  11.422  21.157  0.00  0.00    +0.000 C 
ATOM     10  C   UNL     1       0.112  10.006  20.846  0.00  0.00    +0.000 C 
ATOM     11  O   UNL     1      -1.023  12.561  19.717  0.00  0.00    +0.000 OA
ATOM     12  C   UNL     1      -1.289  13.862  20.241  0.00  0.00    +0.000 C 
ATOM     13  C   UNL     1       0.004  14.598  20.025  0.00  0.00    +0.000 C 
ATOM     14  O   UNL     1       1.003  13.609  20.264  0.00  0.00    +0.000 OA
ENDBRANCH   2   4
ENDBRANCH   1   2
BRANCH   1  15
ATOM     15  C   UNL     1       3.166   5.767  17.897  0.00  0.00    +0.000 C 
BRANCH  15  16
ATOM     16  C   UNL     1       4.518   5.299  17.378  0.00  0.00    +0.000 A 
ATOM     17  C   UNL     1       5.689   6.007  17.685  0.00  0.00    +0.000 A 
ATOM     18  C   UNL     1       6.899   5.663  17.082  0.00  0.00    +0.000 A 
ATOM     19  C   UNL     1       6.948   4.622  16.157  0.00  0.00    +0.000 A 
ATOM     20  C   UNL     1       5.799   3.886  15.874  0.00  0.00    +0.000 A 
ATOM     21  C   UNL     1       4.593   4.207  16.496  0.00  0.00    +0.000 A 
ENDBRANCH  15  16
BRANCH  15  22
ATOM     22  C   UNL     1       2.483   4.740  18.802  0.00  0.00    +0.000 A 
ATOM     23  C   UNL     1       1.454   3.894  18.356  0.00  0.00    +0.000 A 
ATOM     24  C   UNL     1       0.841   2.990  19.231  0.00  0.00    +0.000 A 
ATOM     25  C   UNL     1       1.254   2.909  20.558  0.00  0.00    +0.000 A 
ATOM     26  C   UNL     1       2.295   3.715  21.008  0.00  0.00    +0.000 A 
ATOM     27  C   UNL     1       2.912   4.611  20.134  0.00  0.00    +0.000 A 
ENDBRANCH  15  22
ENDBRANCH   1  15
TORSDOF 5
ENDMDL
MODEL 8
REMARK VINA RESULT:      -8.1      0.938      3.567
REMARK  Name = 
REMARK  5 active torsions:
REMARK  status: ('A' for Active; 'I' for Inactive)
REMARK    1  A    between atoms: C_2  and  C_3
REMARK    2  A    between atoms: C_3  and  O_4
REMARK    3  A    between atoms: O_4  and  C_5
REMARK    4  A    between atoms: C_5  and  C_6
REMARK    5  A    between atoms: C_5  and  C_12
REMARK                            x       y       z     vdW  Elec       q    Type
REMARK                         _______ _______ _______ _____ _____    ______ ____
ROOT
ATOM      1  O   UNL     1       2.701   7.337  17.998  0.00  0.00    +0.000 OA
ENDROOT
BRANCH   1   2
ATOM      2  C   UNL     1       1.885   8.218  18.770  0.00  0.00    +0.000 C 
BRANCH   2   4
ATOM      3  O   UNL     1       2.319  10.000  17.213  0.00  0.00    +0.000 OA
ATOM      4  C   UNL     1       1.844   9.681  18.298  0.00  0.00    +0.000 C 
ATOM      5  N   UNL     1       1.216  10.586  19.147  0.00  0.00    +0.000 N 
ATOM      6  C   UNL     1       0.667  10.288  20.472  0.00  0.00    +0.000 C 
ATOM      7  C   UNL     1      -0.806  10.671  20.546  0.00  0.00    +0.000 C 
ATOM      8  C   UNL     1      -1.022  12.118  20.102  0.00  0.00    +0.000 C 
ATOM      9  C   UNL     1      -0.367  12.398  18.746  0.00  0.00    +0.000 C 
ATOM     10  C   UNL     1       1.095  11.978  18.738  0.00  0.00    +0.000 C 
ATOM     11  O   UNL     1      -0.476  12.999  21.101  0.00  0.00    +0.000 OA
ATOM     12  C   UNL     1      -1.474  14.002  21.287  0.00  0.00    +0.000 C 
ATOM     13  C   UNL     1      -2.760  13.268  21.028  0.00  0.00    +0.000 C 
ATOM     14  O   UNL     1      -2.432  12.370  19.971  0.00  0.00    +0.000 OA
ENDBRANCH   2   4
ENDBRANCH   1   2
BRANCH   1  15
ATOM     15  C   UNL     1       3.371   6.331  18.782  0.00  0.00    +0.000 C 
BRANCH  15  16
ATOM     16  C   UNL     1       2.392   5.209  19.094  0.00  0.00    +0.000 A 
ATOM     17  C   UNL     1       2.045   4.907  20.418  0.00  0.00    +0.000 A 
ATOM     18  C   UNL     1       1.270   3.783  20.705  0.00  0.00    +0.000 A 
ATOM     19  C   UNL     1       0.849   2.943  19.675  0.00  0.00    +0.000 A 
ATOM     20  C   UNL     1       1.154   3.255  18.353  0.00  0.00    +0.000 A 
ATOM     21  C   UNL     1       1.904   4.393  18.059  0.00  0.00    +0.000 A 
ENDBRANCH  15  16
BRANCH  15  22
ATOM     22  C   UNL     1       4.636   5.845  18.075  0.00  0.00    +0.000 A 
ATOM     23  C   UNL     1       5.652   5.129  18.732  0.00  0.00    +0.000 A 
ATOM     24  C   UNL     1       6.804   4.730  18.046  0.00  0.00    +0.000 A 
ATOM     25  C   UNL     1       6.955   5.027  16.695  0.00  0.00    +0.000 A 
ATOM     26  C   UNL     1       5.945   5.705  16.020  0.00  0.00    +0.000 A 
ATOM     27  C   UNL     1       4.791   6.096  16.701  0.00  0.00    +0.000 A 
ENDBRANCH  15  22
ENDBRANCH   1  15
TORSDOF 5
ENDMDL
MODEL 9
REMARK VINA RESULT:      -8.1      1.475      2.239
REMARK  Name = 
REMARK  5 active torsions:
REMARK  status: ('A' for Active; 'I' for Inactive)
REMARK    1  A    between atoms: C_2  and  C_3
REMARK    2  A    between atoms: C_3  and  O_4
REMARK    3  A    between atoms: O_4  and  C_5
REMARK    4  A    between atoms: C_5  and  C_6
REMARK    5  A    between atoms: C_5  and  C_12
REMARK                            x       y       z     vdW  Elec       q    Type
REMARK                         _______ _______ _______ _____ _____    ______ ____
ROOT
ATOM      1  O   UNL     1       3.325   7.146  18.594  0.00  0.00    +0.000 OA
ENDROOT
BRANCH   1   2
ATOM      2  C   UNL     1       2.209   8.029  18.486  0.00  0.00    +0.000 C 
BRANCH   2   4
ATOM      3  O   UNL     1       1.725   7.727  20.823  0.00  0.00    +0.000 OA
ATOM      4  C   UNL     1       1.489   8.365  19.802  0.00  0.00    +0.000 C 
ATOM      5  N   UNL     1       0.603   9.437  19.764  0.00  0.00    +0.000 N 
ATOM      6  C   UNL     1       0.239  10.214  18.577  0.00  0.00    +0.000 C 
ATOM      7  C   UNL     1       0.515  11.696  18.795  0.00  0.00    +0.000 C 
ATOM      8  C   UNL     1      -0.140  12.195  20.083  0.00  0.00    +0.000 C 
ATOM      9  C   UNL     1       0.213  11.307  21.280  0.00  0.00    +0.000 C 
ATOM     10  C   UNL     1      -0.073   9.842  20.989  0.00  0.00    +0.000 C 
ATOM     11  O   UNL     1      -1.568  12.224  19.899  0.00  0.00    +0.000 OA
ATOM     12  C   UNL     1      -1.979  13.482  20.431  0.00  0.00    +0.000 C 
ATOM     13  C   UNL     1      -0.800  14.377  20.166  0.00  0.00    +0.000 C 
ATOM     14  O   UNL     1       0.325  13.527  20.369  0.00  0.00    +0.000 OA
ENDBRANCH   2   4
ENDBRANCH   1   2
BRANCH   1  15
ATOM     15  C   UNL     1       3.186   5.937  17.823  0.00  0.00    +0.000 C 
BRANCH  15  16
ATOM     16  C   UNL     1       4.544   5.547  17.258  0.00  0.00    +0.000 A 
ATOM     17  C   UNL     1       4.681   4.422  16.432  0.00  0.00    +0.000 A 
ATOM     18  C   UNL     1       5.946   3.983  16.044  0.00  0.00    +0.000 A 
ATOM     19  C   UNL     1       7.086   4.651  16.491  0.00  0.00    +0.000 A 
ATOM     20  C   UNL     1       6.960   5.792  17.280  0.00  0.00    +0.000 A 
ATOM     21  C   UNL     1       5.696   6.252  17.646  0.00  0.00    +0.000 A 
ENDBRANCH  15  16
BRANCH  15  22
ATOM     22  C   UNL     1       2.542   4.830  18.658  0.00  0.00    +0.000 A 
ATOM     23  C   UNL     1       1.528   3.991  18.165  0.00  0.00    +0.000 A 
ATOM     24  C   UNL     1       0.952   3.010  18.980  0.00  0.00    +0.000 A 
ATOM     25  C   UNL     1       1.387   2.843  20.292  0.00  0.00    +0.000 A 
ATOM     26  C   UNL     1       2.413   3.642  20.786  0.00  0.00    +0.000 A 
ATOM     27  C   UNL     1       2.994   4.615  19.972  0.00  0.00    +0.000 A 
ENDBRANCH  15  22
ENDBRANCH   1  15
TORSDOF 5
ENDMDL
