MODEL 1
REMARK VINA RESULT:      -8.3      0.000      0.000
REMARK  Name = 
REMARK  14 active torsions:
REMARK  status: ('A' for Active; 'I' for Inactive)
REMARK    1  A    between atoms: C_1  and  C_2
REMARK    2  A    between atoms: C_2  and  C_3
REMARK    3  A    between atoms: C_3  and  N_4
REMARK    4  A    between atoms: N_4  and  C_5
REMARK    5  A    between atoms: C_6  and  O_8
REMARK    6  A    between atoms: O_8  and  C_9
REMARK    7  A    between atoms: C_9  and  C_10
REMARK    8  A    between atoms: C_11  and  C_12
REMARK    9  A    between atoms: C_15  and  O_16
REMARK   10  A    between atoms: O_16  and  C_17
REMARK   11  A    between atoms: C_21  and  C_22
REMARK   12  A    between atoms: C_22  and  O_24
REMARK   13  A    between atoms: C_26  and  C_27
REMARK   14  A    between atoms: N_31  and  C_32
REMARK                            x       y       z     vdW  Elec       q    Type
REMARK                         _______ _______ _______ _____ _____    ______ ____
ROOT
ATOM      1  C   UNL     1       1.456   8.183  20.373  0.00  0.00    +0.000 A 
ATOM      2  C   UNL     1       1.936   8.452  19.100  0.00  0.00    +0.000 A 
ATOM      3  C   UNL     1       2.575   7.448  18.384  0.00  0.00    +0.000 A 
ATOM      4  C   UNL     1       2.712   6.181  18.939  0.00  0.00    +0.000 A 
ATOM      5  C   UNL     1       2.128   5.956  20.188  0.00  0.00    +0.000 A 
ATOM      6  C   UNL     1       2.182   4.612  20.861  0.00  0.00    +0.000 C 
ATOM      7  N   UNL     1       1.522   6.942  20.910  0.00  0.00    +0.000 NA
ENDROOT
BRANCH   1   9
ATOM      8  C   UNL     1       0.292  10.421  20.784  0.00  0.00    +0.000 A 
ATOM      9  C   UNL     1       0.877   9.232  21.205  0.00  0.00    +0.000 A 
ATOM     10  N   UNL     1       0.868   9.188  22.577  0.00  0.00    +0.000 NA
ATOM     11  N   UNL     1       0.288  10.291  23.027  0.00  0.00    +0.000 NA
ATOM     12  N   UNL     1      -0.034  11.043  21.965  0.00  0.00    +0.000 N 
ATOM     13  C   UNL     1      -0.672  12.319  22.158  0.00  0.00    +0.000 C 
BRANCH   8  14
ATOM     14  C   UNL     1       0.052  11.035  19.458  0.00  0.00    +0.000 C 
BRANCH  14  15
ATOM     15  O   UNL     1      -1.349  10.938  19.169  0.00  0.00    +0.000 OA
BRANCH  15  18
ATOM     16  N   UNL     1      -2.688  10.643  17.345  0.00  0.00    +0.000 N 
ATOM     17  C   UNL     1      -3.216   9.446  17.975  0.00  0.00    +0.000 C 
ATOM     18  C   UNL     1      -1.713  11.415  17.948  0.00  0.00    +0.000 C 
ATOM     19  O   UNL     1      -1.239  12.430  17.451  0.00  0.00    +0.000 OA
BRANCH  16  20
ATOM     20  C   UNL     1      -3.156  11.008  16.013  0.00  0.00    +0.000 C 
BRANCH  20  22
ATOM     21  C   UNL     1      -3.682  10.114  13.677  0.00  0.00    +0.000 C 
ATOM     22  C   UNL     1      -2.846   9.963  14.939  0.00  0.00    +0.000 C 
ENDBRANCH  20  22
ENDBRANCH  16  20
ENDBRANCH  15  18
ENDBRANCH  14  15
ENDBRANCH   8  14
ENDBRANCH   1   9
BRANCH   4  23
ATOM     23  O   UNL     1       3.373   5.153  18.324  0.00  0.00    +0.000 OA
BRANCH  23  24
ATOM     24  C   UNL     1       4.667   5.448  17.762  0.00  0.00    +0.000 C 
ATOM     25  C   UNL     1       5.695   5.685  18.883  0.00  0.00    +0.000 C 
ATOM     26  C   UNL     1       7.137   5.709  18.396  0.00  0.00    +0.000 C 
ATOM     27  C   UNL     1       7.476   4.476  17.563  0.00  0.00    +0.000 C 
ATOM     28  C   UNL     1       6.509   4.287  16.394  0.00  0.00    +0.000 C 
ATOM     29  C   UNL     1       5.059   4.246  16.890  0.00  0.00    +0.000 C 
BRANCH  28  30
ATOM     30  C   UNL     1       6.732   5.364  15.339  0.00  0.00    +0.000 C 
ATOM     31  O   UNL     1       7.808   5.647  14.844  0.00  0.00    +0.000 OA
BRANCH  30  32
ATOM     32  O   UNL     1       5.587   5.966  14.945  0.00  0.00    +0.000 OA
ATOM     33  H   UNL     1       5.694   6.880  14.624  0.00  0.00    +0.000 HD
ENDBRANCH  30  32
ENDBRANCH  28  30
ENDBRANCH  23  24
ENDBRANCH   4  23
TORSDOF 10
ENDMDL
MODEL 2
REMARK VINA RESULT:      -8.1      2.735      9.024
REMARK  Name = 
REMARK  14 active torsions:
REMARK  status: ('A' for Active; 'I' for Inactive)
REMARK    1  A    between atoms: C_1  and  C_2
REMARK    2  A    between atoms: C_2  and  C_3
REMARK    3  A    between atoms: C_3  and  N_4
REMARK    4  A    between atoms: N_4  and  C_5
REMARK    5  A    between atoms: C_6  and  O_8
REMARK    6  A    between atoms: O_8  and  C_9
REMARK    7  A    between atoms: C_9  and  C_10
REMARK    8  A    between atoms: C_11  and  C_12
REMARK    9  A    between atoms: C_15  and  O_16
REMARK   10  A    between atoms: O_16  and  C_17
REMARK   11  A    between atoms: C_21  and  C_22
REMARK   12  A    between atoms: C_22  and  O_24
REMARK   13  A    between atoms: C_26  and  C_27
REMARK   14  A    between atoms: N_31  and  C_32
REMARK                            x       y       z     vdW  Elec       q    Type
REMARK                         _______ _______ _______ _____ _____    ______ ____
ROOT
ATOM      1  C   UNL     1       2.210   6.420  18.659  0.00  0.00    +0.000 A 
ATOM      2  C   UNL     1       2.379   7.406  17.699  0.00  0.00    +0.000 A 
ATOM      3  C   UNL     1       2.134   8.732  18.030  0.00  0.00    +0.000 A 
ATOM      4  C   UNL     1       1.739   9.063  19.321  0.00  0.00    +0.000 A 
ATOM      5  C   UNL     1       1.672   8.030  20.261  0.00  0.00    +0.000 A 
ATOM      6  C   UNL     1       1.295   8.283  21.694  0.00  0.00    +0.000 C 
ATOM      7  N   UNL     1       1.885   6.723  19.939  0.00  0.00    +0.000 NA
ENDROOT
BRANCH   1   9
ATOM      8  C   UNL     1       3.352   4.136  18.741  0.00  0.00    +0.000 A 
ATOM      9  C   UNL     1       2.349   5.005  18.331  0.00  0.00    +0.000 A 
ATOM     10  N   UNL     1       1.481   4.333  17.506  0.00  0.00    +0.000 NA
ATOM     11  N   UNL     1       1.892   3.078  17.400  0.00  0.00    +0.000 NA
ATOM     12  N   UNL     1       3.022   2.959  18.112  0.00  0.00    +0.000 N 
ATOM     13  C   UNL     1       3.705   1.693  18.165  0.00  0.00    +0.000 C 
BRANCH   8  14
ATOM     14  C   UNL     1       4.559   4.284  19.586  0.00  0.00    +0.000 C 
BRANCH  14  15
ATOM     15  O   UNL     1       5.708   4.269  18.730  0.00  0.00    +0.000 OA
BRANCH  15  18
ATOM     16  N   UNL     1       7.005   5.960  17.911  0.00  0.00    +0.000 N 
ATOM     17  C   UNL     1       6.435   5.708  16.600  0.00  0.00    +0.000 C 
ATOM     18  C   UNL     1       6.646   5.212  19.017  0.00  0.00    +0.000 C 
ATOM     19  O   UNL     1       7.103   5.389  20.140  0.00  0.00    +0.000 OA
BRANCH  16  20
ATOM     20  C   UNL     1       8.029   6.988  18.054  0.00  0.00    +0.000 C 
BRANCH  20  22
ATOM     21  C   UNL     1       8.487   9.500  18.149  0.00  0.00    +0.000 C 
ATOM     22  C   UNL     1       7.552   8.394  17.684  0.00  0.00    +0.000 C 
ENDBRANCH  20  22
ENDBRANCH  16  20
ENDBRANCH  15  18
ENDBRANCH  14  15
ENDBRANCH   8  14
ENDBRANCH   1   9
BRANCH   4  23
ATOM     23  O   UNL     1       1.426  10.335  19.714  0.00  0.00    +0.000 OA
BRANCH  23  24
ATOM     24  C   UNL     1       0.056  10.754  19.554  0.00  0.00    +0.000 C 
ATOM     25  C   UNL     1      -0.507  11.263  20.891  0.00  0.00    +0.000 C 
ATOM     26  C   UNL     1      -1.835  11.995  20.757  0.00  0.00    +0.000 C 
ATOM     27  C   UNL     1      -1.770  13.102  19.708  0.00  0.00    +0.000 C 
ATOM     28  C   UNL     1      -1.295  12.581  18.351  0.00  0.00    +0.000 C 
ATOM     29  C   UNL     1       0.051  11.859  18.487  0.00  0.00    +0.000 C 
BRANCH  28  30
ATOM     30  C   UNL     1      -2.364  11.701  17.714  0.00  0.00    +0.000 C 
ATOM     31  O   UNL     1      -3.541  11.688  18.031  0.00  0.00    +0.000 OA
BRANCH  30  32
ATOM     32  O   UNL     1      -1.894  10.947  16.696  0.00  0.00    +0.000 OA
ATOM     33  H   UNL     1      -1.598  11.451  15.916  0.00  0.00    +0.000 HD
ENDBRANCH  30  32
ENDBRANCH  28  30
ENDBRANCH  23  24
ENDBRANCH   4  23
TORSDOF 10
ENDMDL
MODEL 3
REMARK VINA RESULT:      -8.1      1.134      1.519
REMARK  Name = 
REMARK  14 active torsions:
REMARK  status: ('A' for Active; 'I' for Inactive)
REMARK    1  A    between atoms: C_1  and  C_2
REMARK    2  A    between atoms: C_2  and  C_3
REMARK    3  A    between atoms: C_3  and  N_4
REMARK    4  A    between atoms: N_4  and  C_5
REMARK    5  A    between atoms: C_6  and  O_8
REMARK    6  A    between atoms: O_8  and  C_9
REMARK    7  A    between atoms: C_9  and  C_10
REMARK    8  A    between atoms: C_11  and  C_12
REMARK    9  A    between atoms: C_15  and  O_16
REMARK   10  A    between atoms: O_16  and  C_17
REMARK   11  A    between atoms: C_21  and  C_22
REMARK   12  A    between atoms: C_22  and  O_24
REMARK   13  A    between atoms: C_26  and  C_27
REMARK   14  A    between atoms: N_31  and  C_32
REMARK                            x       y       z     vdW  Elec       q    Type
REMARK                         _______ _______ _______ _____ _____    ______ ____
ROOT
ATOM      1  C   UNL     1       1.488   8.139  20.286  0.00  0.00    +0.000 A 
ATOM      2  C   UNL     1       1.980   8.392  19.014  0.00  0.00    +0.000 A 
ATOM      3  C   UNL     1       2.631   7.382  18.319  0.00  0.00    +0.000 A 
ATOM      4  C   UNL     1       2.768   6.123  18.892  0.00  0.00    +0.000 A 
ATOM      5  C   UNL     1       2.173   5.912  20.138  0.00  0.00    +0.000 A 
ATOM      6  C   UNL     1       2.226   4.578  20.829  0.00  0.00    +0.000 C 
ATOM      7  N   UNL     1       1.555   6.905  20.840  0.00  0.00    +0.000 NA
ENDROOT
BRANCH   1   9
ATOM      8  C   UNL     1       0.080  10.236  20.669  0.00  0.00    +0.000 A 
ATOM      9  C   UNL     1       0.896   9.196  21.098  0.00  0.00    +0.000 A 
ATOM     10  N   UNL     1       1.109   9.319  22.449  0.00  0.00    +0.000 NA
ATOM     11  N   UNL     1       0.447  10.383  22.881  0.00  0.00    +0.000 NA
ATOM     12  N   UNL     1      -0.147  10.950  21.822  0.00  0.00    +0.000 N 
ATOM     13  C   UNL     1      -0.932  12.144  21.995  0.00  0.00    +0.000 C 
BRANCH   8  14
ATOM     14  C   UNL     1      -0.455  10.647  19.350  0.00  0.00    +0.000 C 
BRANCH  14  15
ATOM     15  O   UNL     1      -1.725  10.008  19.166  0.00  0.00    +0.000 OA
BRANCH  15  18
ATOM     16  N   UNL     1      -3.281  11.260  18.061  0.00  0.00    +0.000 N 
ATOM     17  C   UNL     1      -3.596  11.909  19.321  0.00  0.00    +0.000 C 
ATOM     18  C   UNL     1      -2.324  10.266  17.972  0.00  0.00    +0.000 C 
ATOM     19  O   UNL     1      -2.029   9.691  16.931  0.00  0.00    +0.000 OA
BRANCH  16  20
ATOM     20  C   UNL     1      -4.037  11.623  16.869  0.00  0.00    +0.000 C 
BRANCH  20  22
ATOM     21  C   UNL     1      -6.183  13.003  17.012  0.00  0.00    +0.000 C 
ATOM     22  C   UNL     1      -5.554  11.619  17.070  0.00  0.00    +0.000 C 
ENDBRANCH  20  22
ENDBRANCH  16  20
ENDBRANCH  15  18
ENDBRANCH  14  15
ENDBRANCH   8  14
ENDBRANCH   1   9
BRANCH   4  23
ATOM     23  O   UNL     1       3.442   5.091  18.298  0.00  0.00    +0.000 OA
BRANCH  23  24
ATOM     24  C   UNL     1       4.697   5.404  17.664  0.00  0.00    +0.000 C 
ATOM     25  C   UNL     1       5.786   5.641  18.724  0.00  0.00    +0.000 C 
ATOM     26  C   UNL     1       7.197   5.684  18.153  0.00  0.00    +0.000 C 
ATOM     27  C   UNL     1       7.499   4.462  17.291  0.00  0.00    +0.000 C 
ATOM     28  C   UNL     1       6.466   4.274  16.179  0.00  0.00    +0.000 C 
ATOM     29  C   UNL     1       5.048   4.214  16.758  0.00  0.00    +0.000 C 
BRANCH  28  30
ATOM     30  C   UNL     1       6.616   5.363  15.123  0.00  0.00    +0.000 C 
ATOM     31  O   UNL     1       5.761   6.182  14.835  0.00  0.00    +0.000 OA
BRANCH  30  32
ATOM     32  O   UNL     1       7.839   5.380  14.547  0.00  0.00    +0.000 OA
ATOM     33  H   UNL     1       8.221   6.268  14.422  0.00  0.00    +0.000 HD
ENDBRANCH  30  32
ENDBRANCH  28  30
ENDBRANCH  23  24
ENDBRANCH   4  23
TORSDOF 10
ENDMDL
MODEL 4
REMARK VINA RESULT:      -8.0      2.126      3.288
REMARK  Name = 
REMARK  14 active torsions:
REMARK  status: ('A' for Active; 'I' for Inactive)
REMARK    1  A    between atoms: C_1  and  C_2
REMARK    2  A    between atoms: C_2  and  C_3
REMARK    3  A    between atoms: C_3  and  N_4
REMARK    4  A    between atoms: N_4  and  C_5
REMARK    5  A    between atoms: C_6  and  O_8
REMARK    6  A    between atoms: O_8  and  C_9
REMARK    7  A    between atoms: C_9  and  C_10
REMARK    8  A    between atoms: C_11  and  C_12
REMARK    9  A    between atoms: C_15  and  O_16
REMARK   10  A    between atoms: O_16  and  C_17
REMARK   11  A    between atoms: C_21  and  C_22
REMARK   12  A    between atoms: C_22  and  O_24
REMARK   13  A    between atoms: C_26  and  C_27
REMARK   14  A    between atoms: N_31  and  C_32
REMARK                            x       y       z     vdW  Elec       q    Type
REMARK                         _______ _______ _______ _____ _____    ______ ____
ROOT
ATOM      1  C   UNL     1       1.460   8.039  20.358  0.00  0.00    +0.000 A 
ATOM      2  C   UNL     1       1.937   8.291  19.080  0.00  0.00    +0.000 A 
ATOM      3  C   UNL     1       2.597   7.286  18.387  0.00  0.00    +0.000 A 
ATOM      4  C   UNL     1       2.758   6.033  18.967  0.00  0.00    +0.000 A 
ATOM      5  C   UNL     1       2.177   5.822  20.220  0.00  0.00    +0.000 A 
ATOM      6  C   UNL     1       2.256   4.494  20.920  0.00  0.00    +0.000 C 
ATOM      7  N   UNL     1       1.550   6.810  20.920  0.00  0.00    +0.000 NA
ENDROOT
BRANCH   1   9
ATOM      8  C   UNL     1       0.161  10.210  20.721  0.00  0.00    +0.000 A 
ATOM      9  C   UNL     1       0.858   9.093  21.167  0.00  0.00    +0.000 A 
ATOM     10  N   UNL     1       0.940   9.132  22.537  0.00  0.00    +0.000 NA
ATOM     11  N   UNL     1       0.309  10.217  22.963  0.00  0.00    +0.000 NA
ATOM     12  N   UNL     1      -0.135  10.878  21.885  0.00  0.00    +0.000 N 
ATOM     13  C   UNL     1      -0.852  12.115  22.049  0.00  0.00    +0.000 C 
BRANCH   8  14
ATOM     14  C   UNL     1      -0.208  10.724  19.382  0.00  0.00    +0.000 C 
BRANCH  14  15
ATOM     15  O   UNL     1       0.826  11.617  18.947  0.00  0.00    +0.000 OA
BRANCH  15  18
ATOM     16  N   UNL     1       1.217  13.826  19.364  0.00  0.00    +0.000 N 
ATOM     17  C   UNL     1       2.343  13.429  20.191  0.00  0.00    +0.000 C 
ATOM     18  C   UNL     1       0.418  12.896  18.727  0.00  0.00    +0.000 C 
ATOM     19  O   UNL     1      -0.543  13.187  18.023  0.00  0.00    +0.000 OA
BRANCH  16  20
ATOM     20  C   UNL     1       0.884  15.241  19.253  0.00  0.00    +0.000 C 
BRANCH  20  22
ATOM     21  C   UNL     1       2.627  17.100  19.443  0.00  0.00    +0.000 C 
ATOM     22  C   UNL     1       1.952  16.077  18.543  0.00  0.00    +0.000 C 
ENDBRANCH  20  22
ENDBRANCH  16  20
ENDBRANCH  15  18
ENDBRANCH  14  15
ENDBRANCH   8  14
ENDBRANCH   1   9
BRANCH   4  23
ATOM     23  O   UNL     1       3.442   5.006  18.375  0.00  0.00    +0.000 OA
BRANCH  23  24
ATOM     24  C   UNL     1       4.682   5.335  17.719  0.00  0.00    +0.000 C 
ATOM     25  C   UNL     1       5.768   5.656  18.761  0.00  0.00    +0.000 C 
ATOM     26  C   UNL     1       7.173   5.724  18.179  0.00  0.00    +0.000 C 
ATOM     27  C   UNL     1       7.513   4.476  17.368  0.00  0.00    +0.000 C 
ATOM     28  C   UNL     1       6.482   4.204  16.273  0.00  0.00    +0.000 C 
ATOM     29  C   UNL     1       5.070   4.120  16.864  0.00  0.00    +0.000 C 
BRANCH  28  30
ATOM     30  C   UNL     1       6.588   5.250  15.170  0.00  0.00    +0.000 C 
ATOM     31  O   UNL     1       5.656   5.903  14.732  0.00  0.00    +0.000 OA
BRANCH  30  32
ATOM     32  O   UNL     1       7.855   5.440  14.738  0.00  0.00    +0.000 OA
ATOM     33  H   UNL     1       8.295   4.641  14.396  0.00  0.00    +0.000 HD
ENDBRANCH  30  32
ENDBRANCH  28  30
ENDBRANCH  23  24
ENDBRANCH   4  23
TORSDOF 10
ENDMDL
MODEL 5
REMARK VINA RESULT:      -8.0      1.241      1.536
REMARK  Name = 
REMARK  14 active torsions:
REMARK  status: ('A' for Active; 'I' for Inactive)
REMARK    1  A    between atoms: C_1  and  C_2
REMARK    2  A    between atoms: C_2  and  C_3
REMARK    3  A    between atoms: C_3  and  N_4
REMARK    4  A    between atoms: N_4  and  C_5
REMARK    5  A    between atoms: C_6  and  O_8
REMARK    6  A    between atoms: O_8  and  C_9
REMARK    7  A    between atoms: C_9  and  C_10
REMARK    8  A    between atoms: C_11  and  C_12
REMARK    9  A    between atoms: C_15  and  O_16
REMARK   10  A    between atoms: O_16  and  C_17
REMARK   11  A    between atoms: C_21  and  C_22
REMARK   12  A    between atoms: C_22  and  O_24
REMARK   13  A    between atoms: C_26  and  C_27
REMARK   14  A    between atoms: N_31  and  C_32
REMARK                            x       y       z     vdW  Elec       q    Type
REMARK                         _______ _______ _______ _____ _____    ______ ____
ROOT
ATOM      1  C   UNL     1       1.442   8.660  19.816  0.00  0.00    +0.000 A 
ATOM      2  C   UNL     1       1.910   8.778  18.515  0.00  0.00    +0.000 A 
ATOM      3  C   UNL     1       2.530   7.693  17.911  0.00  0.00    +0.000 A 
ATOM      4  C   UNL     1       2.661   6.495  18.603  0.00  0.00    +0.000 A 
ATOM      5  C   UNL     1       2.090   6.418  19.876  0.00  0.00    +0.000 A 
ATOM      6  C   UNL     1       2.139   5.158  20.695  0.00  0.00    +0.000 C 
ATOM      7  N   UNL     1       1.503   7.486  20.489  0.00  0.00    +0.000 NA
ENDROOT
BRANCH   1   9
ATOM      8  C   UNL     1       0.103  10.827  20.011  0.00  0.00    +0.000 A 
ATOM      9  C   UNL     1       0.884   9.802  20.531  0.00  0.00    +0.000 A 
ATOM     10  N   UNL     1       1.101  10.036  21.866  0.00  0.00    +0.000 NA
ATOM     11  N   UNL     1       0.473  11.154  22.202  0.00  0.00    +0.000 NA
ATOM     12  N   UNL     1      -0.102  11.645  21.095  0.00  0.00    +0.000 N 
ATOM     13  C   UNL     1      -0.848  12.875  21.162  0.00  0.00    +0.000 C 
BRANCH   8  14
ATOM     14  C   UNL     1      -0.418  11.137  18.659  0.00  0.00    +0.000 C 
BRANCH  14  15
ATOM     15  O   UNL     1      -1.635  10.403  18.471  0.00  0.00    +0.000 OA
BRANCH  15  18
ATOM     16  N   UNL     1      -3.423  10.877  17.134  0.00  0.00    +0.000 N 
ATOM     17  C   UNL     1      -2.949   9.865  16.208  0.00  0.00    +0.000 C 
ATOM     18  C   UNL     1      -2.744  11.172  18.302  0.00  0.00    +0.000 C 
ATOM     19  O   UNL     1      -3.108  12.019  19.110  0.00  0.00    +0.000 OA
BRANCH  16  20
ATOM     20  C   UNL     1      -4.615  11.645  16.796  0.00  0.00    +0.000 C 
BRANCH  20  22
ATOM     21  C   UNL     1      -6.937  12.351  17.599  0.00  0.00    +0.000 C 
ATOM     22  C   UNL     1      -5.840  11.298  17.646  0.00  0.00    +0.000 C 
ENDBRANCH  20  22
ENDBRANCH  16  20
ENDBRANCH  15  18
ENDBRANCH  14  15
ENDBRANCH   8  14
ENDBRANCH   1   9
BRANCH   4  23
ATOM     23  O   UNL     1       3.305   5.397  18.101  0.00  0.00    +0.000 OA
BRANCH  23  24
ATOM     24  C   UNL     1       4.623   5.601  17.555  0.00  0.00    +0.000 C 
ATOM     25  C   UNL     1       5.627   5.902  18.681  0.00  0.00    +0.000 C 
ATOM     26  C   UNL     1       7.082   5.838  18.238  0.00  0.00    +0.000 C 
ATOM     27  C   UNL     1       7.402   4.528  17.524  0.00  0.00    +0.000 C 
ATOM     28  C   UNL     1       6.461   4.269  16.347  0.00  0.00    +0.000 C 
ATOM     29  C   UNL     1       4.997   4.317  16.801  0.00  0.00    +0.000 C 
BRANCH  28  30
ATOM     30  C   UNL     1       6.748   5.244  15.211  0.00  0.00    +0.000 C 
ATOM     31  O   UNL     1       7.843   5.429  14.708  0.00  0.00    +0.000 OA
BRANCH  30  32
ATOM     32  O   UNL     1       5.640   5.869  14.755  0.00  0.00    +0.000 OA
ATOM     33  H   UNL     1       5.669   6.118  13.813  0.00  0.00    +0.000 HD
ENDBRANCH  30  32
ENDBRANCH  28  30
ENDBRANCH  23  24
ENDBRANCH   4  23
TORSDOF 10
ENDMDL
MODEL 6
REMARK VINA RESULT:      -8.0      2.593      8.991
REMARK  Name = 
REMARK  14 active torsions:
REMARK  status: ('A' for Active; 'I' for Inactive)
REMARK    1  A    between atoms: C_1  and  C_2
REMARK    2  A    between atoms: C_2  and  C_3
REMARK    3  A    between atoms: C_3  and  N_4
REMARK    4  A    between atoms: N_4  and  C_5
REMARK    5  A    between atoms: C_6  and  O_8
REMARK    6  A    between atoms: O_8  and  C_9
REMARK    7  A    between atoms: C_9  and  C_10
REMARK    8  A    between atoms: C_11  and  C_12
REMARK    9  A    between atoms: C_15  and  O_16
REMARK   10  A    between atoms: O_16  and  C_17
REMARK   11  A    between atoms: C_21  and  C_22
REMARK   12  A    between atoms: C_22  and  O_24
REMARK   13  A    between atoms: C_26  and  C_27
REMARK   14  A    between atoms: N_31  and  C_32
REMARK                            x       y       z     vdW  Elec       q    Type
REMARK                         _______ _______ _______ _____ _____    ______ ____
ROOT
ATOM      1  C   UNL     1       2.165   6.790  18.732  0.00  0.00    +0.000 A 
ATOM      2  C   UNL     1       2.236   7.808  17.793  0.00  0.00    +0.000 A 
ATOM      3  C   UNL     1       1.916   9.106  18.167  0.00  0.00    +0.000 A 
ATOM      4  C   UNL     1       1.546   9.379  19.478  0.00  0.00    +0.000 A 
ATOM      5  C   UNL     1       1.579   8.322  20.392  0.00  0.00    +0.000 A 
ATOM      6  C   UNL     1       1.236   8.515  21.844  0.00  0.00    +0.000 C 
ATOM      7  N   UNL     1       1.866   7.039  20.030  0.00  0.00    +0.000 NA
ENDROOT
BRANCH   1   9
ATOM      8  C   UNL     1       3.505   4.617  18.625  0.00  0.00    +0.000 A 
ATOM      9  C   UNL     1       2.385   5.396  18.362  0.00  0.00    +0.000 A 
ATOM     10  N   UNL     1       1.481   4.654  17.643  0.00  0.00    +0.000 NA
ATOM     11  N   UNL     1       1.984   3.442  17.462  0.00  0.00    +0.000 NA
ATOM     12  N   UNL     1       3.202   3.420  18.021  0.00  0.00    +0.000 N 
ATOM     13  C   UNL     1       3.996   2.220  17.963  0.00  0.00    +0.000 C 
BRANCH   8  14
ATOM     14  C   UNL     1       4.794   4.867  19.312  0.00  0.00    +0.000 C 
BRANCH  14  15
ATOM     15  O   UNL     1       5.583   5.727  18.479  0.00  0.00    +0.000 OA
BRANCH  15  18
ATOM     16  N   UNL     1       6.156   5.436  16.290  0.00  0.00    +0.000 N 
ATOM     17  C   UNL     1       5.115   6.383  15.933  0.00  0.00    +0.000 C 
ATOM     18  C   UNL     1       6.398   5.080  17.604  0.00  0.00    +0.000 C 
ATOM     19  O   UNL     1       7.264   4.284  17.948  0.00  0.00    +0.000 OA
BRANCH  16  20
ATOM     20  C   UNL     1       6.928   4.797  15.230  0.00  0.00    +0.000 C 
BRANCH  20  22
ATOM     21  C   UNL     1       6.582   3.860  12.878  0.00  0.00    +0.000 C 
ATOM     22  C   UNL     1       6.098   3.889  14.319  0.00  0.00    +0.000 C 
ENDBRANCH  20  22
ENDBRANCH  16  20
ENDBRANCH  15  18
ENDBRANCH  14  15
ENDBRANCH   8  14
ENDBRANCH   1   9
BRANCH   4  23
ATOM     23  O   UNL     1       1.164  10.618  19.914  0.00  0.00    +0.000 OA
BRANCH  23  24
ATOM     24  C   UNL     1      -0.244  10.923  19.874  0.00  0.00    +0.000 C 
ATOM     25  C   UNL     1      -0.692  11.555  21.204  0.00  0.00    +0.000 C 
ATOM     26  C   UNL     1      -2.080  12.177  21.149  0.00  0.00    +0.000 C 
ATOM     27  C   UNL     1      -2.222  13.148  19.981  0.00  0.00    +0.000 C 
ATOM     28  C   UNL     1      -1.863  12.497  18.645  0.00  0.00    +0.000 C 
ATOM     29  C   UNL     1      -0.457  11.887  18.697  0.00  0.00    +0.000 C 
BRANCH  28  30
ATOM     30  C   UNL     1      -2.924  11.478  18.246  0.00  0.00    +0.000 C 
ATOM     31  O   UNL     1      -4.089  11.506  18.600  0.00  0.00    +0.000 OA
BRANCH  30  32
ATOM     32  O   UNL     1      -2.461  10.536  17.394  0.00  0.00    +0.000 OA
ATOM     33  H   UNL     1      -2.653   9.617  17.656  0.00  0.00    +0.000 HD
ENDBRANCH  30  32
ENDBRANCH  28  30
ENDBRANCH  23  24
ENDBRANCH   4  23
TORSDOF 10
ENDMDL
MODEL 7
REMARK VINA RESULT:      -7.9      3.332      9.017
REMARK  Name = 
REMARK  14 active torsions:
REMARK  status: ('A' for Active; 'I' for Inactive)
REMARK    1  A    between atoms: C_1  and  C_2
REMARK    2  A    between atoms: C_2  and  C_3
REMARK    3  A    between atoms: C_3  and  N_4
REMARK    4  A    between atoms: N_4  and  C_5
REMARK    5  A    between atoms: C_6  and  O_8
REMARK    6  A    between atoms: O_8  and  C_9
REMARK    7  A    between atoms: C_9  and  C_10
REMARK    8  A    between atoms: C_11  and  C_12
REMARK    9  A    between atoms: C_15  and  O_16
REMARK   10  A    between atoms: O_16  and  C_17
REMARK   11  A    between atoms: C_21  and  C_22
REMARK   12  A    between atoms: C_22  and  O_24
REMARK   13  A    between atoms: C_26  and  C_27
REMARK   14  A    between atoms: N_31  and  C_32
REMARK                            x       y       z     vdW  Elec       q    Type
REMARK                         _______ _______ _______ _____ _____    ______ ____
ROOT
ATOM      1  C   UNL     1       2.013   5.514  19.270  0.00  0.00    +0.000 A 
ATOM      2  C   UNL     1       1.627   5.746  20.581  0.00  0.00    +0.000 A 
ATOM      3  C   UNL     1       1.531   7.050  21.045  0.00  0.00    +0.000 A 
ATOM      4  C   UNL     1       1.802   8.112  20.191  0.00  0.00    +0.000 A 
ATOM      5  C   UNL     1       2.100   7.809  18.859  0.00  0.00    +0.000 A 
ATOM      6  C   UNL     1       2.371   8.883  17.841  0.00  0.00    +0.000 C 
ATOM      7  N   UNL     1       2.224   6.531  18.401  0.00  0.00    +0.000 NA
ENDROOT
BRANCH   1   9
ATOM      8  C   UNL     1       3.336   3.345  18.994  0.00  0.00    +0.000 A 
ATOM      9  C   UNL     1       2.235   4.162  18.768  0.00  0.00    +0.000 A 
ATOM     10  N   UNL     1       1.353   3.509  17.942  0.00  0.00    +0.000 NA
ATOM     11  N   UNL     1       1.852   2.315  17.659  0.00  0.00    +0.000 NA
ATOM     12  N   UNL     1       3.047   2.220  18.260  0.00  0.00    +0.000 N 
ATOM     13  C   UNL     1       3.830   1.022  18.111  0.00  0.00    +0.000 C 
BRANCH   8  14
ATOM     14  C   UNL     1       4.598   3.508  19.752  0.00  0.00    +0.000 C 
BRANCH  14  15
ATOM     15  O   UNL     1       5.642   3.818  18.820  0.00  0.00    +0.000 OA
BRANCH  15  18
ATOM     16  N   UNL     1       5.747   5.762  17.629  0.00  0.00    +0.000 N 
ATOM     17  C   UNL     1       5.115   5.070  16.520  0.00  0.00    +0.000 C 
ATOM     18  C   UNL     1       6.036   5.121  18.820  0.00  0.00    +0.000 C 
ATOM     19  O   UNL     1       6.570   5.665  19.779  0.00  0.00    +0.000 OA
BRANCH  16  20
ATOM     20  C   UNL     1       6.143   7.156  17.463  0.00  0.00    +0.000 C 
BRANCH  20  22
ATOM     21  C   UNL     1       8.110   8.732  17.882  0.00  0.00    +0.000 C 
ATOM     22  C   UNL     1       7.657   7.366  17.390  0.00  0.00    +0.000 C 
ENDBRANCH  20  22
ENDBRANCH  16  20
ENDBRANCH  15  18
ENDBRANCH  14  15
ENDBRANCH   8  14
ENDBRANCH   1   9
BRANCH   4  23
ATOM     23  O   UNL     1       1.783   9.423  20.582  0.00  0.00    +0.000 OA
BRANCH  23  24
ATOM     24  C   UNL     1       0.500   9.993  20.904  0.00  0.00    +0.000 C 
ATOM     25  C   UNL     1       0.177   9.778  22.393  0.00  0.00    +0.000 C 
ATOM     26  C   UNL     1      -1.008  10.596  22.887  0.00  0.00    +0.000 C 
ATOM     27  C   UNL     1      -0.859  12.076  22.545  0.00  0.00    +0.000 C 
ATOM     28  C   UNL     1      -0.626  12.300  21.050  0.00  0.00    +0.000 C 
ATOM     29  C   UNL     1       0.578  11.488  20.559  0.00  0.00    +0.000 C 
BRANCH  28  30
ATOM     30  C   UNL     1      -1.894  11.993  20.262  0.00  0.00    +0.000 C 
ATOM     31  O   UNL     1      -1.940  11.335  19.238  0.00  0.00    +0.000 OA
BRANCH  30  32
ATOM     32  O   UNL     1      -3.013  12.482  20.844  0.00  0.00    +0.000 OA
ATOM     33  H   UNL     1      -3.156  13.437  20.715  0.00  0.00    +0.000 HD
ENDBRANCH  30  32
ENDBRANCH  28  30
ENDBRANCH  23  24
ENDBRANCH   4  23
TORSDOF 10
ENDMDL
MODEL 8
REMARK VINA RESULT:      -7.7      2.599      3.734
REMARK  Name = 
REMARK  14 active torsions:
REMARK  status: ('A' for Active; 'I' for Inactive)
REMARK    1  A    between atoms: C_1  and  C_2
REMARK    2  A    between atoms: C_2  and  C_3
REMARK    3  A    between atoms: C_3  and  N_4
REMARK    4  A    between atoms: N_4  and  C_5
REMARK    5  A    between atoms: C_6  and  O_8
REMARK    6  A    between atoms: O_8  and  C_9
REMARK    7  A    between atoms: C_9  and  C_10
REMARK    8  A    between atoms: C_11  and  C_12
REMARK    9  A    between atoms: C_15  and  O_16
REMARK   10  A    between atoms: O_16  and  C_17
REMARK   11  A    between atoms: C_21  and  C_22
REMARK   12  A    between atoms: C_22  and  O_24
REMARK   13  A    between atoms: C_26  and  C_27
REMARK   14  A    between atoms: N_31  and  C_32
REMARK                            x       y       z     vdW  Elec       q    Type
REMARK                         _______ _______ _______ _____ _____    ______ ____
ROOT
ATOM      1  C   UNL     1       0.851   9.246  20.840  0.00  0.00    +0.000 A 
ATOM      2  C   UNL     1       1.150   8.010  21.395  0.00  0.00    +0.000 A 
ATOM      3  C   UNL     1       1.779   7.046  20.619  0.00  0.00    +0.000 A 
ATOM      4  C   UNL     1       2.120   7.330  19.302  0.00  0.00    +0.000 A 
ATOM      5  C   UNL     1       1.869   8.623  18.834  0.00  0.00    +0.000 A 
ATOM      6  C   UNL     1       2.234   9.048  17.439  0.00  0.00    +0.000 C 
ATOM      7  N   UNL     1       1.228   9.567  19.579  0.00  0.00    +0.000 NA
ENDROOT
BRANCH   1   9
ATOM      8  C   UNL     1      -0.596  11.339  21.063  0.00  0.00    +0.000 A 
ATOM      9  C   UNL     1       0.095  10.250  21.579  0.00  0.00    +0.000 A 
ATOM     10  N   UNL     1      -0.005  10.263  22.949  0.00  0.00    +0.000 NA
ATOM     11  N   UNL     1      -0.742  11.305  23.305  0.00  0.00    +0.000 NA
ATOM     12  N   UNL     1      -1.076  11.966  22.188  0.00  0.00    +0.000 N 
ATOM     13  C   UNL     1      -1.874  13.162  22.275  0.00  0.00    +0.000 C 
BRANCH   8  14
ATOM     14  C   UNL     1      -0.814  11.864  19.695  0.00  0.00    +0.000 C 
BRANCH  14  15
ATOM     15  O   UNL     1      -2.192  12.242  19.577  0.00  0.00    +0.000 OA
BRANCH  15  18
ATOM     16  N   UNL     1      -4.270  11.745  18.774  0.00  0.00    +0.000 N 
ATOM     17  C   UNL     1      -4.823  12.673  19.745  0.00  0.00    +0.000 C 
ATOM     18  C   UNL     1      -2.911  11.505  18.688  0.00  0.00    +0.000 C 
ATOM     19  O   UNL     1      -2.403  10.729  17.887  0.00  0.00    +0.000 OA
BRANCH  16  20
ATOM     20  C   UNL     1      -5.176  11.001  17.909  0.00  0.00    +0.000 C 
BRANCH  20  22
ATOM     21  C   UNL     1      -6.909   9.651  19.215  0.00  0.00    +0.000 C 
ATOM     22  C   UNL     1      -6.612  10.922  18.434  0.00  0.00    +0.000 C 
ENDBRANCH  20  22
ENDBRANCH  16  20
ENDBRANCH  15  18
ENDBRANCH  14  15
ENDBRANCH   8  14
ENDBRANCH   1   9
BRANCH   4  23
ATOM     23  O   UNL     1       2.692   6.420  18.455  0.00  0.00    +0.000 OA
BRANCH  23  24
ATOM     24  C   UNL     1       2.649   5.036  18.853  0.00  0.00    +0.000 C 
ATOM     25  C   UNL     1       1.422   4.341  18.237  0.00  0.00    +0.000 C 
ATOM     26  C   UNL     1       1.454   2.823  18.357  0.00  0.00    +0.000 C 
ATOM     27  C   UNL     1       2.763   2.240  17.831  0.00  0.00    +0.000 C 
ATOM     28  C   UNL     1       3.984   2.866  18.505  0.00  0.00    +0.000 C 
ATOM     29  C   UNL     1       3.957   4.393  18.369  0.00  0.00    +0.000 C 
BRANCH  28  30
ATOM     30  C   UNL     1       4.080   2.415  19.958  0.00  0.00    +0.000 C 
ATOM     31  O   UNL     1       3.245   2.637  20.817  0.00  0.00    +0.000 OA
BRANCH  30  32
ATOM     32  O   UNL     1       5.182   1.674  20.212  0.00  0.00    +0.000 OA
ATOM     33  H   UNL     1       5.009   0.814  20.636  0.00  0.00    +0.000 HD
ENDBRANCH  30  32
ENDBRANCH  28  30
ENDBRANCH  23  24
ENDBRANCH   4  23
TORSDOF 10
ENDMDL
MODEL 9
REMARK VINA RESULT:      -7.7      3.096      8.759
REMARK  Name = 
REMARK  14 active torsions:
REMARK  status: ('A' for Active; 'I' for Inactive)
REMARK    1  A    between atoms: C_1  and  C_2
REMARK    2  A    between atoms: C_2  and  C_3
REMARK    3  A    between atoms: C_3  and  N_4
REMARK    4  A    between atoms: N_4  and  C_5
REMARK    5  A    between atoms: C_6  and  O_8
REMARK    6  A    between atoms: O_8  and  C_9
REMARK    7  A    between atoms: C_9  and  C_10
REMARK    8  A    between atoms: C_11  and  C_12
REMARK    9  A    between atoms: C_15  and  O_16
REMARK   10  A    between atoms: O_16  and  C_17
REMARK   11  A    between atoms: C_21  and  C_22
REMARK   12  A    between atoms: C_22  and  O_24
REMARK   13  A    between atoms: C_26  and  C_27
REMARK   14  A    between atoms: N_31  and  C_32
REMARK                            x       y       z     vdW  Elec       q    Type
REMARK                         _______ _______ _______ _____ _____    ______ ____
ROOT
ATOM      1  C   UNL     1       2.242   7.219  19.344  0.00  0.00    +0.000 A 
ATOM      2  C   UNL     1       2.492   7.812  18.115  0.00  0.00    +0.000 A 
ATOM      3  C   UNL     1       2.024   9.094  17.866  0.00  0.00    +0.000 A 
ATOM      4  C   UNL     1       1.327   9.782  18.853  0.00  0.00    +0.000 A 
ATOM      5  C   UNL     1       1.187   9.160  20.097  0.00  0.00    +0.000 A 
ATOM      6  C   UNL     1       0.486   9.830  21.246  0.00  0.00    +0.000 C 
ATOM      7  N   UNL     1       1.619   7.890  20.342  0.00  0.00    +0.000 NA
ENDROOT
BRANCH   1   9
ATOM      8  C   UNL     1       3.416   5.008  18.833  0.00  0.00    +0.000 A 
ATOM      9  C   UNL     1       2.617   5.836  19.613  0.00  0.00    +0.000 A 
ATOM     10  N   UNL     1       2.177   5.133  20.707  0.00  0.00    +0.000 NA
ATOM     11  N   UNL     1       2.682   3.909  20.650  0.00  0.00    +0.000 NA
ATOM     12  N   UNL     1       3.400   3.819  19.521  0.00  0.00    +0.000 N 
ATOM     13  C   UNL     1       4.059   2.583  19.189  0.00  0.00    +0.000 C 
BRANCH   8  14
ATOM     14  C   UNL     1       4.130   5.183  17.546  0.00  0.00    +0.000 C 
BRANCH  14  15
ATOM     15  O   UNL     1       5.516   5.407  17.832  0.00  0.00    +0.000 OA
BRANCH  15  18
ATOM     16  N   UNL     1       7.226   6.917  17.905  0.00  0.00    +0.000 N 
ATOM     17  C   UNL     1       7.828   6.125  18.962  0.00  0.00    +0.000 C 
ATOM     18  C   UNL     1       6.023   6.562  17.323  0.00  0.00    +0.000 C 
ATOM     19  O   UNL     1       5.479   7.203  16.431  0.00  0.00    +0.000 OA
BRANCH  16  20
ATOM     20  C   UNL     1       7.876   8.154  17.488  0.00  0.00    +0.000 C 
BRANCH  20  22
ATOM     21  C   UNL     1       9.012  10.312  18.252  0.00  0.00    +0.000 C 
ATOM     22  C   UNL     1       8.568   8.906  18.627  0.00  0.00    +0.000 C 
ENDBRANCH  20  22
ENDBRANCH  16  20
ENDBRANCH  15  18
ENDBRANCH  14  15
ENDBRANCH   8  14
ENDBRANCH   1   9
BRANCH   4  23
ATOM     23  O   UNL     1       0.786  11.025  18.671  0.00  0.00    +0.000 OA
BRANCH  23  24
ATOM     24  C   UNL     1       1.563  12.151  19.125  0.00  0.00    +0.000 C 
ATOM     25  C   UNL     1       2.576  12.571  18.046  0.00  0.00    +0.000 C 
ATOM     26  C   UNL     1       3.229  13.920  18.311  0.00  0.00    +0.000 C 
ATOM     27  C   UNL     1       2.193  15.010  18.574  0.00  0.00    +0.000 C 
ATOM     28  C   UNL     1       1.238  14.634  19.707  0.00  0.00    +0.000 C 
ATOM     29  C   UNL     1       0.570  13.283  19.429  0.00  0.00    +0.000 C 
BRANCH  28  30
ATOM     30  C   UNL     1       1.964  14.658  21.047  0.00  0.00    +0.000 C 
ATOM     31  O   UNL     1       2.970  15.304  21.287  0.00  0.00    +0.000 OA
BRANCH  30  32
ATOM     32  O   UNL     1       1.350  13.919  21.997  0.00  0.00    +0.000 OA
ATOM     33  H   UNL     1       0.602  14.360  22.439  0.00  0.00    +0.000 HD
ENDBRANCH  30  32
ENDBRANCH  28  30
ENDBRANCH  23  24
ENDBRANCH   4  23
TORSDOF 10
ENDMDL
