MODEL 1
REMARK VINA RESULT:      -8.1      0.000      0.000
REMARK  Name = 
REMARK  12 active torsions:
REMARK  status: ('A' for Active; 'I' for Inactive)
REMARK    1  A    between atoms: C_1  and  C_2
REMARK    2  A    between atoms: C_2  and  C_3
REMARK    3  A    between atoms: C_5  and  C_6
REMARK    4  A    between atoms: N_8  and  C_9
REMARK    5  A    between atoms: C_9  and  C_10
REMARK    6  A    between atoms: C_24  and  C_25
REMARK    7  A    between atoms: C_25  and  N_26
REMARK    8  A    between atoms: N_26  and  C_27
REMARK    9  A    between atoms: N_26  and  C_29
REMARK   10  A    between atoms: C_27  and  C_28
REMARK   11  A    between atoms: C_29  and  C_30
REMARK   12  A    between atoms: C_30  and  O_31
REMARK                            x       y       z     vdW  Elec       q    Type
REMARK                         _______ _______ _______ _____ _____    ______ ____
ROOT
ATOM      1  C   UNL     1       2.357   6.575  19.079  0.00  0.00    +0.000 A 
ATOM      2  C   UNL     1       3.212   6.478  18.006  0.00  0.00    +0.000 A 
ATOM      3  N   UNL     1       3.548   5.156  17.836  0.00  0.00    +0.000 N 
ATOM      4  C   UNL     1       2.878   4.369  18.755  0.00  0.00    +0.000 A 
ATOM      5  C   UNL     1       2.801   2.972  18.971  0.00  0.00    +0.000 A 
ATOM      6 CL   UNL     1       3.647   1.810  18.022  0.00  0.00    +0.000 Cl
ATOM      7  C   UNL     1       2.007   2.486  20.016  0.00  0.00    +0.000 A 
ATOM      8  C   UNL     1       1.297   3.345  20.843  0.00  0.00    +0.000 A 
ATOM      9  C   UNL     1       1.359   4.725  20.621  0.00  0.00    +0.000 A 
ATOM     10  C   UNL     1       2.136   5.252  19.568  0.00  0.00    +0.000 A 
ENDROOT
BRANCH   1  13
ATOM     11  C   UNL     1       0.722   9.624  20.915  0.00  0.00    +0.000 A 
ATOM     12  S   UNL     1       1.469   8.121  21.296  0.00  0.00    +0.000 S 
ATOM     13  C   UNL     1       1.810   7.858  19.632  0.00  0.00    +0.000 A 
ATOM     14  N   UNL     1       1.485   8.857  18.843  0.00  0.00    +0.000 NA
ATOM     15  C   UNL     1       0.767   9.819  19.542  0.00  0.00    +0.000 A 
BRANCH  11  17
ATOM     16  C   UNL     1      -0.338   9.653  23.202  0.00  0.00    +0.000 C 
ATOM     17  C   UNL     1       0.121  10.464  21.999  0.00  0.00    +0.000 C 
ENDBRANCH  11  17
BRANCH  15  18
ATOM     18  C   UNL     1       0.012  10.816  18.710  0.00  0.00    +0.000 C 
BRANCH  18  19
ATOM     19  N   UNL     1      -1.454  10.746  18.810  0.00  0.00    +0.000 NA
BRANCH  19  20
ATOM     20  C   UNL     1      -2.076  12.073  19.031  0.00  0.00    +0.000 C 
ATOM     21  C   UNL     1      -1.290  13.088  19.861  0.00  0.00    +0.000 C 
ENDBRANCH  19  20
BRANCH  19  22
ATOM     22  C   UNL     1      -2.013  10.103  17.592  0.00  0.00    +0.000 C 
BRANCH  22  23
ATOM     23  C   UNL     1      -2.971  10.981  16.760  0.00  0.00    +0.000 C 
BRANCH  23  24
ATOM     24  O   UNL     1      -2.380  11.397  15.536  0.00  0.00    +0.000 OA
ATOM     25  H   UNL     1      -1.416  11.356  15.673  0.00  0.00    +0.000 HD
ENDBRANCH  23  24
ENDBRANCH  22  23
ENDBRANCH  19  22
ENDBRANCH  18  19
ENDBRANCH  15  18
ENDBRANCH   1  13
BRANCH   3  26
ATOM     26  C   UNL     1       4.451   4.721  16.771  0.00  0.00    +0.000 C 
BRANCH  26  27
ATOM     27  C   UNL     1       5.946   5.029  17.012  0.00  0.00    +0.000 C 
ATOM     28  C   UNL     1       6.360   4.708  18.460  0.00  0.00    +0.000 C 
ATOM     29  C   UNL     1       7.661   5.378  18.877  0.00  0.00    +0.000 C 
ATOM     30  O   UNL     1       7.606   6.776  18.611  0.00  0.00    +0.000 OA
ATOM     31  C   UNL     1       7.538   7.028  17.212  0.00  0.00    +0.000 C 
ATOM     32  C   UNL     1       6.232   6.498  16.637  0.00  0.00    +0.000 C 
ENDBRANCH  26  27
ENDBRANCH   3  26
TORSDOF 10
ENDMDL
MODEL 2
REMARK VINA RESULT:      -8.0      1.313      1.703
REMARK  Name = 
REMARK  12 active torsions:
REMARK  status: ('A' for Active; 'I' for Inactive)
REMARK    1  A    between atoms: C_1  and  C_2
REMARK    2  A    between atoms: C_2  and  C_3
REMARK    3  A    between atoms: C_5  and  C_6
REMARK    4  A    between atoms: N_8  and  C_9
REMARK    5  A    between atoms: C_9  and  C_10
REMARK    6  A    between atoms: C_24  and  C_25
REMARK    7  A    between atoms: C_25  and  N_26
REMARK    8  A    between atoms: N_26  and  C_27
REMARK    9  A    between atoms: N_26  and  C_29
REMARK   10  A    between atoms: C_27  and  C_28
REMARK   11  A    between atoms: C_29  and  C_30
REMARK   12  A    between atoms: C_30  and  O_31
REMARK                            x       y       z     vdW  Elec       q    Type
REMARK                         _______ _______ _______ _____ _____    ______ ____
ROOT
ATOM      1  C   UNL     1       2.618   6.444  19.594  0.00  0.00    +0.000 A 
ATOM      2  C   UNL     1       3.852   6.327  18.998  0.00  0.00    +0.000 A 
ATOM      3  N   UNL     1       4.169   4.992  18.914  0.00  0.00    +0.000 N 
ATOM      4  C   UNL     1       3.129   4.220  19.398  0.00  0.00    +0.000 A 
ATOM      5  C   UNL     1       2.903   2.825  19.475  0.00  0.00    +0.000 A 
ATOM      6 CL   UNL     1       4.027   1.643  18.923  0.00  0.00    +0.000 Cl
ATOM      7  C   UNL     1       1.709   2.357  20.037  0.00  0.00    +0.000 A 
ATOM      8  C   UNL     1       0.746   3.233  20.520  0.00  0.00    +0.000 A 
ATOM      9  C   UNL     1       0.961   4.613  20.430  0.00  0.00    +0.000 A 
ATOM     10  C   UNL     1       2.145   5.122  19.857  0.00  0.00    +0.000 A 
ENDROOT
BRANCH   1  13
ATOM     11  C   UNL     1       0.609   9.559  20.861  0.00  0.00    +0.000 A 
ATOM     12  S   UNL     1       1.372   8.153  21.496  0.00  0.00    +0.000 S 
ATOM     13  C   UNL     1       1.940   7.741  19.928  0.00  0.00    +0.000 A 
ATOM     14  N   UNL     1       1.674   8.630  18.999  0.00  0.00    +0.000 NA
ATOM     15  C   UNL     1       0.824   9.613  19.491  0.00  0.00    +0.000 A 
BRANCH  11  17
ATOM     16  C   UNL     1      -0.456   9.859  23.126  0.00  0.00    +0.000 C 
ATOM     17  C   UNL     1      -0.170  10.467  21.761  0.00  0.00    +0.000 C 
ENDBRANCH  11  17
BRANCH  15  18
ATOM     18  C   UNL     1       0.138  10.469  18.466  0.00  0.00    +0.000 C 
BRANCH  18  19
ATOM     19  N   UNL     1      -1.329  10.365  18.431  0.00  0.00    +0.000 NA
BRANCH  19  20
ATOM     20  C   UNL     1      -2.002  11.643  18.765  0.00  0.00    +0.000 C 
ATOM     21  C   UNL     1      -1.111  12.861  19.012  0.00  0.00    +0.000 C 
ENDBRANCH  19  20
BRANCH  19  22
ATOM     22  C   UNL     1      -1.771   9.874  17.099  0.00  0.00    +0.000 C 
BRANCH  22  23
ATOM     23  C   UNL     1      -2.760  10.792  16.350  0.00  0.00    +0.000 C 
BRANCH  23  24
ATOM     24  O   UNL     1      -2.770  10.532  14.953  0.00  0.00    +0.000 OA
ATOM     25  H   UNL     1      -1.970  10.955  14.592  0.00  0.00    +0.000 HD
ENDBRANCH  23  24
ENDBRANCH  22  23
ENDBRANCH  19  22
ENDBRANCH  18  19
ENDBRANCH  15  18
ENDBRANCH   1  13
BRANCH   3  26
ATOM     26  C   UNL     1       5.427   4.535  18.326  0.00  0.00    +0.000 C 
BRANCH  26  27
ATOM     27  C   UNL     1       5.681   5.001  16.874  0.00  0.00    +0.000 C 
ATOM     28  C   UNL     1       4.762   4.267  15.880  0.00  0.00    +0.000 C 
ATOM     29  C   UNL     1       5.246   4.349  14.440  0.00  0.00    +0.000 C 
ATOM     30  O   UNL     1       6.605   3.937  14.349  0.00  0.00    +0.000 OA
ATOM     31  C   UNL     1       7.462   4.842  15.037  0.00  0.00    +0.000 C 
ATOM     32  C   UNL     1       7.174   4.816  16.532  0.00  0.00    +0.000 C 
ENDBRANCH  26  27
ENDBRANCH   3  26
TORSDOF 10
ENDMDL
MODEL 3
REMARK VINA RESULT:      -7.9      1.104      1.257
REMARK  Name = 
REMARK  12 active torsions:
REMARK  status: ('A' for Active; 'I' for Inactive)
REMARK    1  A    between atoms: C_1  and  C_2
REMARK    2  A    between atoms: C_2  and  C_3
REMARK    3  A    between atoms: C_5  and  C_6
REMARK    4  A    between atoms: N_8  and  C_9
REMARK    5  A    between atoms: C_9  and  C_10
REMARK    6  A    between atoms: C_24  and  C_25
REMARK    7  A    between atoms: C_25  and  N_26
REMARK    8  A    between atoms: N_26  and  C_27
REMARK    9  A    between atoms: N_26  and  C_29
REMARK   10  A    between atoms: C_27  and  C_28
REMARK   11  A    between atoms: C_29  and  C_30
REMARK   12  A    between atoms: C_30  and  O_31
REMARK                            x       y       z     vdW  Elec       q    Type
REMARK                         _______ _______ _______ _____ _____    ______ ____
ROOT
ATOM      1  C   UNL     1       2.299   6.299  19.209  0.00  0.00    +0.000 A 
ATOM      2  C   UNL     1       2.764   6.037  17.942  0.00  0.00    +0.000 A 
ATOM      3  N   UNL     1       3.145   4.717  17.883  0.00  0.00    +0.000 N 
ATOM      4  C   UNL     1       2.883   4.088  19.087  0.00  0.00    +0.000 A 
ATOM      5  C   UNL     1       3.007   2.751  19.536  0.00  0.00    +0.000 A 
ATOM      6 CL   UNL     1       3.600   1.465  18.557  0.00  0.00    +0.000 Cl
ATOM      7  C   UNL     1       2.642   2.437  20.850  0.00  0.00    +0.000 A 
ATOM      8  C   UNL     1       2.164   3.408  21.719  0.00  0.00    +0.000 A 
ATOM      9  C   UNL     1       2.026   4.727  21.272  0.00  0.00    +0.000 A 
ATOM     10  C   UNL     1       2.369   5.080  19.949  0.00  0.00    +0.000 A 
ENDROOT
BRANCH   1  13
ATOM     11  C   UNL     1       0.803   9.536  20.830  0.00  0.00    +0.000 A 
ATOM     12  S   UNL     1       1.242   7.935  21.283  0.00  0.00    +0.000 S 
ATOM     13  C   UNL     1       1.848   7.643  19.702  0.00  0.00    +0.000 A 
ATOM     14  N   UNL     1       1.823   8.687  18.905  0.00  0.00    +0.000 NA
ATOM     15  C   UNL     1       1.132   9.737  19.497  0.00  0.00    +0.000 A 
BRANCH  11  17
ATOM     16  C   UNL     1      -0.247   9.744  23.112  0.00  0.00    +0.000 C 
ATOM     17  C   UNL     1       0.136  10.444  21.816  0.00  0.00    +0.000 C 
ENDBRANCH  11  17
BRANCH  15  18
ATOM     18  C   UNL     1       0.698  10.844  18.580  0.00  0.00    +0.000 C 
BRANCH  18  19
ATOM     19  N   UNL     1      -0.679  11.325  18.772  0.00  0.00    +0.000 NA
BRANCH  19  20
ATOM     20  C   UNL     1      -0.836  12.760  18.438  0.00  0.00    +0.000 C 
ATOM     21  C   UNL     1       0.214  13.728  18.985  0.00  0.00    +0.000 C 
ENDBRANCH  19  20
BRANCH  19  22
ATOM     22  C   UNL     1      -1.621  10.496  17.974  0.00  0.00    +0.000 C 
BRANCH  22  23
ATOM     23  C   UNL     1      -2.713  11.280  17.216  0.00  0.00    +0.000 C 
BRANCH  23  24
ATOM     24  O   UNL     1      -2.424  11.385  15.829  0.00  0.00    +0.000 OA
ATOM     25  H   UNL     1      -1.917  12.209  15.719  0.00  0.00    +0.000 HD
ENDBRANCH  23  24
ENDBRANCH  22  23
ENDBRANCH  19  22
ENDBRANCH  18  19
ENDBRANCH  15  18
ENDBRANCH   1  13
BRANCH   3  26
ATOM     26  C   UNL     1       3.689   4.126  16.661  0.00  0.00    +0.000 C 
BRANCH  26  27
ATOM     27  C   UNL     1       5.232   4.092  16.579  0.00  0.00    +0.000 C 
ATOM     28  C   UNL     1       5.867   5.155  17.496  0.00  0.00    +0.000 C 
ATOM     29  C   UNL     1       7.315   5.465  17.145  0.00  0.00    +0.000 C 
ATOM     30  O   UNL     1       7.433   5.780  15.761  0.00  0.00    +0.000 OA
ATOM     31  C   UNL     1       7.131   4.649  14.951  0.00  0.00    +0.000 C 
ATOM     32  C   UNL     1       5.670   4.254  15.109  0.00  0.00    +0.000 C 
ENDBRANCH  26  27
ENDBRANCH   3  26
TORSDOF 10
ENDMDL
MODEL 4
REMARK VINA RESULT:      -7.9      3.066      8.821
REMARK  Name = 
REMARK  12 active torsions:
REMARK  status: ('A' for Active; 'I' for Inactive)
REMARK    1  A    between atoms: C_1  and  C_2
REMARK    2  A    between atoms: C_2  and  C_3
REMARK    3  A    between atoms: C_5  and  C_6
REMARK    4  A    between atoms: N_8  and  C_9
REMARK    5  A    between atoms: C_9  and  C_10
REMARK    6  A    between atoms: C_24  and  C_25
REMARK    7  A    between atoms: C_25  and  N_26
REMARK    8  A    between atoms: N_26  and  C_27
REMARK    9  A    between atoms: N_26  and  C_29
REMARK   10  A    between atoms: C_27  and  C_28
REMARK   11  A    between atoms: C_29  and  C_30
REMARK   12  A    between atoms: C_30  and  O_31
REMARK                            x       y       z     vdW  Elec       q    Type
REMARK                         _______ _______ _______ _____ _____    ______ ____
ROOT
ATOM      1  C   UNL     1       1.170   9.057  19.335  0.00  0.00    +0.000 A 
ATOM      2  C   UNL     1       0.483   9.879  18.472  0.00  0.00    +0.000 A 
ATOM      3  N   UNL     1      -0.397  10.640  19.205  0.00  0.00    +0.000 N 
ATOM      4  C   UNL     1      -0.259  10.367  20.554  0.00  0.00    +0.000 A 
ATOM      5  C   UNL     1      -0.848  10.905  21.724  0.00  0.00    +0.000 A 
ATOM      6 CL   UNL     1      -2.024  12.163  21.710  0.00  0.00    +0.000 Cl
ATOM      7  C   UNL     1      -0.477  10.392  22.972  0.00  0.00    +0.000 A 
ATOM      8  C   UNL     1       0.455   9.369  23.085  0.00  0.00    +0.000 A 
ATOM      9  C   UNL     1       1.050   8.847  21.931  0.00  0.00    +0.000 A 
ATOM     10  C   UNL     1       0.713   9.348  20.656  0.00  0.00    +0.000 A 
ENDROOT
BRANCH   1  13
ATOM     11  C   UNL     1       3.736   6.550  17.762  0.00  0.00    +0.000 A 
ATOM     12  S   UNL     1       3.196   8.169  17.546  0.00  0.00    +0.000 S 
ATOM     13  C   UNL     1       2.179   8.025  18.923  0.00  0.00    +0.000 A 
ATOM     14  N   UNL     1       2.294   6.888  19.571  0.00  0.00    +0.000 NA
ATOM     15  C   UNL     1       3.091   5.999  18.861  0.00  0.00    +0.000 A 
BRANCH  11  17
ATOM     16  C   UNL     1       6.164   6.284  17.141  0.00  0.00    +0.000 C 
ATOM     17  C   UNL     1       4.719   5.948  16.807  0.00  0.00    +0.000 C 
ENDBRANCH  11  17
BRANCH  15  18
ATOM     18  C   UNL     1       3.008   4.558  19.275  0.00  0.00    +0.000 C 
BRANCH  18  19
ATOM     19  N   UNL     1       1.691   3.924  19.107  0.00  0.00    +0.000 NA
BRANCH  19  20
ATOM     20  C   UNL     1       1.768   2.626  18.397  0.00  0.00    +0.000 C 
ATOM     21  C   UNL     1       3.146   1.975  18.270  0.00  0.00    +0.000 C 
ENDBRANCH  19  20
BRANCH  19  22
ATOM     22  C   UNL     1       1.036   3.758  20.431  0.00  0.00    +0.000 C 
BRANCH  22  23
ATOM     23  C   UNL     1       1.995   3.562  21.624  0.00  0.00    +0.000 C 
BRANCH  23  24
ATOM     24  O   UNL     1       1.973   2.225  22.106  0.00  0.00    +0.000 OA
ATOM     25  H   UNL     1       1.124   1.846  21.816  0.00  0.00    +0.000 HD
ENDBRANCH  23  24
ENDBRANCH  22  23
ENDBRANCH  19  22
ENDBRANCH  18  19
ENDBRANCH  15  18
ENDBRANCH   1  13
BRANCH   3  26
ATOM     26  C   UNL     1      -1.281  11.619  18.574  0.00  0.00    +0.000 C 
BRANCH  26  27
ATOM     27  C   UNL     1      -2.611  11.048  18.030  0.00  0.00    +0.000 C 
ATOM     28  C   UNL     1      -2.667  11.123  16.493  0.00  0.00    +0.000 C 
ATOM     29  C   UNL     1      -4.076  10.992  15.935  0.00  0.00    +0.000 C 
ATOM     30  O   UNL     1      -4.949  11.920  16.570  0.00  0.00    +0.000 OA
ATOM     31  C   UNL     1      -5.110  11.611  17.950  0.00  0.00    +0.000 C 
ATOM     32  C   UNL     1      -3.793  11.785  18.693  0.00  0.00    +0.000 C 
ENDBRANCH  26  27
ENDBRANCH   3  26
TORSDOF 10
ENDMDL
MODEL 5
REMARK VINA RESULT:      -7.8      3.073      8.924
REMARK  Name = 
REMARK  12 active torsions:
REMARK  status: ('A' for Active; 'I' for Inactive)
REMARK    1  A    between atoms: C_1  and  C_2
REMARK    2  A    between atoms: C_2  and  C_3
REMARK    3  A    between atoms: C_5  and  C_6
REMARK    4  A    between atoms: N_8  and  C_9
REMARK    5  A    between atoms: C_9  and  C_10
REMARK    6  A    between atoms: C_24  and  C_25
REMARK    7  A    between atoms: C_25  and  N_26
REMARK    8  A    between atoms: N_26  and  C_27
REMARK    9  A    between atoms: N_26  and  C_29
REMARK   10  A    between atoms: C_27  and  C_28
REMARK   11  A    between atoms: C_29  and  C_30
REMARK   12  A    between atoms: C_30  and  O_31
REMARK                            x       y       z     vdW  Elec       q    Type
REMARK                         _______ _______ _______ _____ _____    ______ ____
ROOT
ATOM      1  C   UNL     1       1.213   8.836  19.355  0.00  0.00    +0.000 A 
ATOM      2  C   UNL     1       0.582   9.644  18.439  0.00  0.00    +0.000 A 
ATOM      3  N   UNL     1      -0.269  10.486  19.115  0.00  0.00    +0.000 N 
ATOM      4  C   UNL     1      -0.164  10.280  20.479  0.00  0.00    +0.000 A 
ATOM      5  C   UNL     1      -0.742  10.909  21.608  0.00  0.00    +0.000 A 
ATOM      6 CL   UNL     1      -1.852  12.221  21.507  0.00  0.00    +0.000 Cl
ATOM      7  C   UNL     1      -0.415  10.446  22.888  0.00  0.00    +0.000 A 
ATOM      8  C   UNL     1       0.462   9.386  23.070  0.00  0.00    +0.000 A 
ATOM      9  C   UNL     1       1.047   8.773  21.956  0.00  0.00    +0.000 A 
ATOM     10  C   UNL     1       0.753   9.221  20.651  0.00  0.00    +0.000 A 
ENDROOT
BRANCH   1  13
ATOM     11  C   UNL     1       3.750   6.185  17.984  0.00  0.00    +0.000 A 
ATOM     12  S   UNL     1       3.403   7.862  17.822  0.00  0.00    +0.000 S 
ATOM     13  C   UNL     1       2.174   7.734  19.016  0.00  0.00    +0.000 A 
ATOM     14  N   UNL     1       2.080   6.551  19.580  0.00  0.00    +0.000 NA
ATOM     15  C   UNL     1       2.893   5.633  18.927  0.00  0.00    +0.000 A 
BRANCH  11  17
ATOM     16  C   UNL     1       5.134   6.341  15.884  0.00  0.00    +0.000 C 
ATOM     17  C   UNL     1       4.810   5.547  17.140  0.00  0.00    +0.000 C 
ENDBRANCH  11  17
BRANCH  15  18
ATOM     18  C   UNL     1       2.613   4.184  19.206  0.00  0.00    +0.000 C 
BRANCH  18  19
ATOM     19  N   UNL     1       3.474   3.554  20.219  0.00  0.00    +0.000 NA
BRANCH  19  20
ATOM     20  C   UNL     1       2.700   2.858  21.274  0.00  0.00    +0.000 C 
ATOM     21  C   UNL     1       1.175   2.900  21.170  0.00  0.00    +0.000 C 
ENDBRANCH  19  20
BRANCH  19  22
ATOM     22  C   UNL     1       4.425   2.618  19.564  0.00  0.00    +0.000 C 
BRANCH  22  23
ATOM     23  C   UNL     1       3.913   1.953  18.270  0.00  0.00    +0.000 C 
BRANCH  23  24
ATOM     24  O   UNL     1       3.970   0.535  18.345  0.00  0.00    +0.000 OA
ATOM     25  H   UNL     1       4.867   0.284  18.061  0.00  0.00    +0.000 HD
ENDBRANCH  23  24
ENDBRANCH  22  23
ENDBRANCH  19  22
ENDBRANCH  18  19
ENDBRANCH  15  18
ENDBRANCH   1  13
BRANCH   3  26
ATOM     26  C   UNL     1      -1.093  11.472  18.418  0.00  0.00    +0.000 C 
BRANCH  26  27
ATOM     27  C   UNL     1      -2.453  10.946  17.905  0.00  0.00    +0.000 C 
ATOM     28  C   UNL     1      -2.538  11.013  16.368  0.00  0.00    +0.000 C 
ATOM     29  C   UNL     1      -3.962  10.929  15.840  0.00  0.00    +0.000 C 
ATOM     30  O   UNL     1      -4.788  11.894  16.485  0.00  0.00    +0.000 OA
ATOM     31  C   UNL     1      -4.931  11.600  17.871  0.00  0.00    +0.000 C 
ATOM     32  C   UNL     1      -3.594  11.731  18.585  0.00  0.00    +0.000 C 
ENDBRANCH  26  27
ENDBRANCH   3  26
TORSDOF 10
ENDMDL
MODEL 6
REMARK VINA RESULT:      -7.8      1.111      1.420
REMARK  Name = 
REMARK  12 active torsions:
REMARK  status: ('A' for Active; 'I' for Inactive)
REMARK    1  A    between atoms: C_1  and  C_2
REMARK    2  A    between atoms: C_2  and  C_3
REMARK    3  A    between atoms: C_5  and  C_6
REMARK    4  A    between atoms: N_8  and  C_9
REMARK    5  A    between atoms: C_9  and  C_10
REMARK    6  A    between atoms: C_24  and  C_25
REMARK    7  A    between atoms: C_25  and  N_26
REMARK    8  A    between atoms: N_26  and  C_27
REMARK    9  A    between atoms: N_26  and  C_29
REMARK   10  A    between atoms: C_27  and  C_28
REMARK   11  A    between atoms: C_29  and  C_30
REMARK   12  A    between atoms: C_30  and  O_31
REMARK                            x       y       z     vdW  Elec       q    Type
REMARK                         _______ _______ _______ _____ _____    ______ ____
ROOT
ATOM      1  C   UNL     1       2.469   6.324  19.098  0.00  0.00    +0.000 A 
ATOM      2  C   UNL     1       3.373   6.189  18.070  0.00  0.00    +0.000 A 
ATOM      3  N   UNL     1       3.653   4.852  17.911  0.00  0.00    +0.000 N 
ATOM      4  C   UNL     1       2.898   4.096  18.790  0.00  0.00    +0.000 A 
ATOM      5  C   UNL     1       2.743   2.704  18.995  0.00  0.00    +0.000 A 
ATOM      6 CL   UNL     1       3.579   1.505  18.085  0.00  0.00    +0.000 Cl
ATOM      7  C   UNL     1       1.873   2.255  19.996  0.00  0.00    +0.000 A 
ATOM      8  C   UNL     1       1.163   3.146  20.789  0.00  0.00    +0.000 A 
ATOM      9  C   UNL     1       1.304   4.522  20.577  0.00  0.00    +0.000 A 
ATOM     10  C   UNL     1       2.159   5.012  19.569  0.00  0.00    +0.000 A 
ENDROOT
BRANCH   1  13
ATOM     11  C   UNL     1       0.857   9.442  20.836  0.00  0.00    +0.000 A 
ATOM     12  S   UNL     1       1.432   7.874  21.247  0.00  0.00    +0.000 S 
ATOM     13  C   UNL     1       1.957   7.631  19.629  0.00  0.00    +0.000 A 
ATOM     14  N   UNL     1       1.811   8.675  18.844  0.00  0.00    +0.000 NA
ATOM     15  C   UNL     1       1.087   9.672  19.487  0.00  0.00    +0.000 A 
BRANCH  11  17
ATOM     16  C   UNL     1      -0.171   9.535  23.136  0.00  0.00    +0.000 C 
ATOM     17  C   UNL     1       0.190  10.297  21.870  0.00  0.00    +0.000 C 
ENDBRANCH  11  17
BRANCH  15  18
ATOM     18  C   UNL     1       0.521  10.750  18.608  0.00  0.00    +0.000 C 
BRANCH  18  19
ATOM     19  N   UNL     1       0.724  12.128  19.082  0.00  0.00    +0.000 NA
BRANCH  19  20
ATOM     20  C   UNL     1       2.087  12.636  18.797  0.00  0.00    +0.000 C 
ATOM     21  C   UNL     1       2.212  14.083  18.319  0.00  0.00    +0.000 C 
ENDBRANCH  19  20
BRANCH  19  22
ATOM     22  C   UNL     1      -0.303  13.024  18.489  0.00  0.00    +0.000 C 
BRANCH  22  23
ATOM     23  C   UNL     1      -1.665  12.364  18.191  0.00  0.00    +0.000 C 
BRANCH  23  24
ATOM     24  O   UNL     1      -1.873  12.185  16.796  0.00  0.00    +0.000 OA
ATOM     25  H   UNL     1      -2.740  12.583  16.598  0.00  0.00    +0.000 HD
ENDBRANCH  23  24
ENDBRANCH  22  23
ENDBRANCH  19  22
ENDBRANCH  18  19
ENDBRANCH  15  18
ENDBRANCH   1  13
BRANCH   3  26
ATOM     26  C   UNL     1       4.587   4.376  16.892  0.00  0.00    +0.000 C 
BRANCH  26  27
ATOM     27  C   UNL     1       6.057   4.808  17.096  0.00  0.00    +0.000 C 
ATOM     28  C   UNL     1       6.476   4.694  18.574  0.00  0.00    +0.000 C 
ATOM     29  C   UNL     1       7.727   5.493  18.908  0.00  0.00    +0.000 C 
ATOM     30  O   UNL     1       7.584   6.841  18.473  0.00  0.00    +0.000 OA
ATOM     31  C   UNL     1       7.515   6.916  17.053  0.00  0.00    +0.000 C 
ATOM     32  C   UNL     1       6.251   6.236  16.545  0.00  0.00    +0.000 C 
ENDBRANCH  26  27
ENDBRANCH   3  26
TORSDOF 10
ENDMDL
MODEL 7
REMARK VINA RESULT:      -7.8      1.581      1.976
REMARK  Name = 
REMARK  12 active torsions:
REMARK  status: ('A' for Active; 'I' for Inactive)
REMARK    1  A    between atoms: C_1  and  C_2
REMARK    2  A    between atoms: C_2  and  C_3
REMARK    3  A    between atoms: C_5  and  C_6
REMARK    4  A    between atoms: N_8  and  C_9
REMARK    5  A    between atoms: C_9  and  C_10
REMARK    6  A    between atoms: C_24  and  C_25
REMARK    7  A    between atoms: C_25  and  N_26
REMARK    8  A    between atoms: N_26  and  C_27
REMARK    9  A    between atoms: N_26  and  C_29
REMARK   10  A    between atoms: C_27  and  C_28
REMARK   11  A    between atoms: C_29  and  C_30
REMARK   12  A    between atoms: C_30  and  O_31
REMARK                            x       y       z     vdW  Elec       q    Type
REMARK                         _______ _______ _______ _____ _____    ______ ____
ROOT
ATOM      1  C   UNL     1       2.345   6.225  19.158  0.00  0.00    +0.000 A 
ATOM      2  C   UNL     1       2.801   5.974  17.885  0.00  0.00    +0.000 A 
ATOM      3  N   UNL     1       3.166   4.651  17.808  0.00  0.00    +0.000 N 
ATOM      4  C   UNL     1       2.902   4.010  19.005  0.00  0.00    +0.000 A 
ATOM      5  C   UNL     1       3.011   2.666  19.437  0.00  0.00    +0.000 A 
ATOM      6 CL   UNL     1       3.584   1.385  18.439  0.00  0.00    +0.000 Cl
ATOM      7  C   UNL     1       2.648   2.340  20.749  0.00  0.00    +0.000 A 
ATOM      8  C   UNL     1       2.186   3.306  21.632  0.00  0.00    +0.000 A 
ATOM      9  C   UNL     1       2.062   4.632  21.201  0.00  0.00    +0.000 A 
ATOM     10  C   UNL     1       2.403   4.997  19.882  0.00  0.00    +0.000 A 
ENDROOT
BRANCH   1  13
ATOM     11  C   UNL     1       0.876   9.462  20.805  0.00  0.00    +0.000 A 
ATOM     12  S   UNL     1       1.246   7.836  21.230  0.00  0.00    +0.000 S 
ATOM     13  C   UNL     1       1.913   7.569  19.669  0.00  0.00    +0.000 A 
ATOM     14  N   UNL     1       1.955   8.635  18.902  0.00  0.00    +0.000 NA
ATOM     15  C   UNL     1       1.270   9.690  19.493  0.00  0.00    +0.000 A 
BRANCH  11  17
ATOM     16  C   UNL     1      -0.207   9.654  23.072  0.00  0.00    +0.000 C 
ATOM     17  C   UNL     1       0.193  10.362  21.787  0.00  0.00    +0.000 C 
ENDBRANCH  11  17
BRANCH  15  18
ATOM     18  C   UNL     1       0.910  10.835  18.591  0.00  0.00    +0.000 C 
BRANCH  18  19
ATOM     19  N   UNL     1       1.318  12.167  19.062  0.00  0.00    +0.000 NA
BRANCH  19  20
ATOM     20  C   UNL     1       2.282  12.826  18.150  0.00  0.00    +0.000 C 
ATOM     21  C   UNL     1       3.206  13.887  18.751  0.00  0.00    +0.000 C 
ENDBRANCH  19  20
BRANCH  19  22
ATOM     22  C   UNL     1       0.118  13.022  19.262  0.00  0.00    +0.000 C 
BRANCH  22  23
ATOM     23  C   UNL     1      -1.201  12.455  18.697  0.00  0.00    +0.000 C 
BRANCH  23  24
ATOM     24  O   UNL     1      -1.337  12.716  17.307  0.00  0.00    +0.000 OA
ATOM     25  H   UNL     1      -0.755  12.081  16.853  0.00  0.00    +0.000 HD
ENDBRANCH  23  24
ENDBRANCH  22  23
ENDBRANCH  19  22
ENDBRANCH  18  19
ENDBRANCH  15  18
ENDBRANCH   1  13
BRANCH   3  26
ATOM     26  C   UNL     1       3.696   4.068  16.576  0.00  0.00    +0.000 C 
BRANCH  26  27
ATOM     27  C   UNL     1       5.239   4.018  16.485  0.00  0.00    +0.000 C 
ATOM     28  C   UNL     1       5.894   4.868  17.591  0.00  0.00    +0.000 C 
ATOM     29  C   UNL     1       7.349   5.210  17.304  0.00  0.00    +0.000 C 
ATOM     30  O   UNL     1       7.475   5.789  16.009  0.00  0.00    +0.000 OA
ATOM     31  C   UNL     1       7.152   4.845  14.993  0.00  0.00    +0.000 C 
ATOM     32  C   UNL     1       5.682   4.457  15.074  0.00  0.00    +0.000 C 
ENDBRANCH  26  27
ENDBRANCH   3  26
TORSDOF 10
ENDMDL
MODEL 8
REMARK VINA RESULT:      -7.7      1.078      1.386
REMARK  Name = 
REMARK  12 active torsions:
REMARK  status: ('A' for Active; 'I' for Inactive)
REMARK    1  A    between atoms: C_1  and  C_2
REMARK    2  A    between atoms: C_2  and  C_3
REMARK    3  A    between atoms: C_5  and  C_6
REMARK    4  A    between atoms: N_8  and  C_9
REMARK    5  A    between atoms: C_9  and  C_10
REMARK    6  A    between atoms: C_24  and  C_25
REMARK    7  A    between atoms: C_25  and  N_26
REMARK    8  A    between atoms: N_26  and  C_27
REMARK    9  A    between atoms: N_26  and  C_29
REMARK   10  A    between atoms: C_27  and  C_28
REMARK   11  A    between atoms: C_29  and  C_30
REMARK   12  A    between atoms: C_30  and  O_31
REMARK                            x       y       z     vdW  Elec       q    Type
REMARK                         _______ _______ _______ _____ _____    ______ ____
ROOT
ATOM      1  C   UNL     1       2.250   6.399  19.226  0.00  0.00    +0.000 A 
ATOM      2  C   UNL     1       2.775   6.152  17.979  0.00  0.00    +0.000 A 
ATOM      3  N   UNL     1       3.164   4.834  17.925  0.00  0.00    +0.000 N 
ATOM      4  C   UNL     1       2.849   4.192  19.109  0.00  0.00    +0.000 A 
ATOM      5  C   UNL     1       2.958   2.851  19.551  0.00  0.00    +0.000 A 
ATOM      6 CL   UNL     1       3.602   1.577  18.588  0.00  0.00    +0.000 Cl
ATOM      7  C   UNL     1       2.534   2.522  20.843  0.00  0.00    +0.000 A 
ATOM      8  C   UNL     1       2.011   3.483  21.698  0.00  0.00    +0.000 A 
ATOM      9  C   UNL     1       1.888   4.805  21.258  0.00  0.00    +0.000 A 
ATOM     10  C   UNL     1       2.291   5.172  19.957  0.00  0.00    +0.000 A 
ENDROOT
BRANCH   1  13
ATOM     11  C   UNL     1       0.793   9.623  20.907  0.00  0.00    +0.000 A 
ATOM     12  S   UNL     1       1.496   8.120  21.363  0.00  0.00    +0.000 S 
ATOM     13  C   UNL     1       1.770   7.736  19.710  0.00  0.00    +0.000 A 
ATOM     14  N   UNL     1       1.456   8.693  18.867  0.00  0.00    +0.000 NA
ATOM     15  C   UNL     1       0.798   9.726  19.523  0.00  0.00    +0.000 A 
BRANCH  11  17
ATOM     16  C   UNL     1      -0.588   9.856  23.003  0.00  0.00    +0.000 C 
ATOM     17  C   UNL     1       0.260  10.555  21.951  0.00  0.00    +0.000 C 
ENDBRANCH  11  17
BRANCH  15  18
ATOM     18  C   UNL     1       0.053  10.696  18.651  0.00  0.00    +0.000 C 
BRANCH  18  19
ATOM     19  N   UNL     1      -1.376  10.861  18.962  0.00  0.00    +0.000 NA
BRANCH  19  20
ATOM     20  C   UNL     1      -1.778  12.284  19.062  0.00  0.00    +0.000 C 
ATOM     21  C   UNL     1      -2.418  12.743  20.373  0.00  0.00    +0.000 C 
ENDBRANCH  19  20
BRANCH  19  22
ATOM     22  C   UNL     1      -2.200  10.155  17.946  0.00  0.00    +0.000 C 
BRANCH  22  23
ATOM     23  C   UNL     1      -2.817  11.053  16.854  0.00  0.00    +0.000 C 
BRANCH  23  24
ATOM     24  O   UNL     1      -2.321  10.732  15.562  0.00  0.00    +0.000 OA
ATOM     25  H   UNL     1      -1.353  10.663  15.652  0.00  0.00    +0.000 HD
ENDBRANCH  23  24
ENDBRANCH  22  23
ENDBRANCH  19  22
ENDBRANCH  18  19
ENDBRANCH  15  18
ENDBRANCH   1  13
BRANCH   3  26
ATOM     26  C   UNL     1       3.766   4.257  16.725  0.00  0.00    +0.000 C 
BRANCH  26  27
ATOM     27  C   UNL     1       4.998   5.017  16.178  0.00  0.00    +0.000 C 
ATOM     28  C   UNL     1       5.574   4.325  14.928  0.00  0.00    +0.000 C 
ATOM     29  C   UNL     1       7.000   4.752  14.609  0.00  0.00    +0.000 C 
ATOM     30  O   UNL     1       7.829   4.608  15.757  0.00  0.00    +0.000 OA
ATOM     31  C   UNL     1       7.438   5.509  16.787  0.00  0.00    +0.000 C 
ATOM     32  C   UNL     1       6.047   5.162  17.299  0.00  0.00    +0.000 C 
ENDBRANCH  26  27
ENDBRANCH   3  26
TORSDOF 10
ENDMDL
MODEL 9
REMARK VINA RESULT:      -7.7      1.794      2.350
REMARK  Name = 
REMARK  12 active torsions:
REMARK  status: ('A' for Active; 'I' for Inactive)
REMARK    1  A    between atoms: C_1  and  C_2
REMARK    2  A    between atoms: C_2  and  C_3
REMARK    3  A    between atoms: C_5  and  C_6
REMARK    4  A    between atoms: N_8  and  C_9
REMARK    5  A    between atoms: C_9  and  C_10
REMARK    6  A    between atoms: C_24  and  C_25
REMARK    7  A    between atoms: C_25  and  N_26
REMARK    8  A    between atoms: N_26  and  C_27
REMARK    9  A    between atoms: N_26  and  C_29
REMARK   10  A    between atoms: C_27  and  C_28
REMARK   11  A    between atoms: C_29  and  C_30
REMARK   12  A    between atoms: C_30  and  O_31
REMARK                            x       y       z     vdW  Elec       q    Type
REMARK                         _______ _______ _______ _____ _____    ______ ____
ROOT
ATOM      1  C   UNL     1       2.606   6.211  19.582  0.00  0.00    +0.000 A 
ATOM      2  C   UNL     1       3.849   6.102  19.002  0.00  0.00    +0.000 A 
ATOM      3  N   UNL     1       4.129   4.768  18.824  0.00  0.00    +0.000 N 
ATOM      4  C   UNL     1       3.057   3.994  19.229  0.00  0.00    +0.000 A 
ATOM      5  C   UNL     1       2.788   2.605  19.196  0.00  0.00    +0.000 A 
ATOM      6 CL   UNL     1       3.889   1.433  18.578  0.00  0.00    +0.000 Cl
ATOM      7  C   UNL     1       1.570   2.133  19.699  0.00  0.00    +0.000 A 
ATOM      8  C   UNL     1       0.624   2.999  20.228  0.00  0.00    +0.000 A 
ATOM      9  C   UNL     1       0.880   4.375  20.247  0.00  0.00    +0.000 A 
ATOM     10  C   UNL     1       2.090   4.889  19.736  0.00  0.00    +0.000 A 
ENDROOT
BRANCH   1  13
ATOM     11  C   UNL     1       0.565   9.269  20.933  0.00  0.00    +0.000 A 
ATOM     12  S   UNL     1       1.031   7.690  21.433  0.00  0.00    +0.000 S 
ATOM     13  C   UNL     1       1.960   7.500  20.000  0.00  0.00    +0.000 A 
ATOM     14  N   UNL     1       2.012   8.568  19.236  0.00  0.00    +0.000 NA
ATOM     15  C   UNL     1       1.136   9.542  19.698  0.00  0.00    +0.000 A 
BRANCH  11  17
ATOM     16  C   UNL     1      -0.325   9.696  23.252  0.00  0.00    +0.000 C 
ATOM     17  C   UNL     1      -0.355  10.090  21.783  0.00  0.00    +0.000 C 
ENDBRANCH  11  17
BRANCH  15  18
ATOM     18  C   UNL     1       0.806  10.646  18.734  0.00  0.00    +0.000 C 
BRANCH  18  19
ATOM     19  N   UNL     1       1.325  11.976  19.091  0.00  0.00    +0.000 NA
BRANCH  19  20
ATOM     20  C   UNL     1       2.357  12.459  18.143  0.00  0.00    +0.000 C 
ATOM     21  C   UNL     1       2.615  13.966  18.095  0.00  0.00    +0.000 C 
ENDBRANCH  19  20
BRANCH  19  22
ATOM     22  C   UNL     1       0.205  12.948  19.186  0.00  0.00    +0.000 C 
BRANCH  22  23
ATOM     23  C   UNL     1      -1.129  12.483  18.565  0.00  0.00    +0.000 C 
BRANCH  23  24
ATOM     24  O   UNL     1      -1.178  12.731  17.167  0.00  0.00    +0.000 OA
ATOM     25  H   UNL     1      -1.612  13.596  17.060  0.00  0.00    +0.000 HD
ENDBRANCH  23  24
ENDBRANCH  22  23
ENDBRANCH  19  22
ENDBRANCH  18  19
ENDBRANCH  15  18
ENDBRANCH   1  13
BRANCH   3  26
ATOM     26  C   UNL     1       5.386   4.317  18.227  0.00  0.00    +0.000 C 
BRANCH  26  27
ATOM     27  C   UNL     1       5.677   4.872  16.814  0.00  0.00    +0.000 C 
ATOM     28  C   UNL     1       4.772   4.214  15.755  0.00  0.00    +0.000 C 
ATOM     29  C   UNL     1       5.288   4.383  14.333  0.00  0.00    +0.000 C 
ATOM     30  O   UNL     1       6.645   3.960  14.246  0.00  0.00    +0.000 OA
ATOM     31  C   UNL     1       7.496   4.809  15.009  0.00  0.00    +0.000 C 
ATOM     32  C   UNL     1       7.175   4.691  16.492  0.00  0.00    +0.000 C 
ENDBRANCH  26  27
ENDBRANCH   3  26
TORSDOF 10
ENDMDL
