MODEL 1
REMARK VINA RESULT:      -9.0      0.000      0.000
REMARK  Name = 
REMARK  6 active torsions:
REMARK  status: ('A' for Active; 'I' for Inactive)
REMARK    1  A    between atoms: C_1  and  O_2
REMARK    2  A    between atoms: O_2  and  C_3
REMARK    3  A    between atoms: C_6  and  C_7
REMARK    4  A    between atoms: C_7  and  N_8
REMARK    5  A    between atoms: N_8  and  C_9
REMARK    6  A    between atoms: C_18  and  N_19
REMARK                            x       y       z     vdW  Elec       q    Type
REMARK                         _______ _______ _______ _____ _____    ______ ____
ROOT
ATOM      1  C   UNL     1       5.451   4.157  17.515  0.00  0.00    +0.000 A 
ATOM      2  C   UNL     1       5.843   4.811  18.708  0.00  0.00    +0.000 A 
ATOM      3  C   UNL     1       6.767   5.842  18.705  0.00  0.00    +0.000 A 
ATOM      4  N   UNL     1       7.410   6.281  17.624  0.00  0.00    +0.000 NA
ATOM      5  C   UNL     1       7.074   5.624  16.504  0.00  0.00    +0.000 A 
ATOM      6  O   UNL     1       7.728   5.876  15.348  0.00  0.00    +0.000 OA
ATOM      7  C   UNL     1       7.196   5.077  14.403  0.00  0.00    +0.000 A 
ATOM      8  C   UNL     1       7.672   5.030  13.094  0.00  0.00    +0.000 A 
ATOM      9  C   UNL     1       6.981   4.215  12.205  0.00  0.00    +0.000 A 
ATOM     10  C   UNL     1       5.852   3.504  12.637  0.00  0.00    +0.000 A 
ATOM     11  C   UNL     1       5.410   3.540  13.988  0.00  0.00    +0.000 A 
ATOM     12  C   UNL     1       6.132   4.334  14.913  0.00  0.00    +0.000 A 
ATOM     13  C   UNL     1       6.112   4.615  16.335  0.00  0.00    +0.000 A 
ENDROOT
BRANCH  10  14
ATOM     14  N   UNL     1       5.093   2.732  11.636  0.00  0.00    +0.000 N 
ATOM     15  O   UNL     1       4.045   3.231  11.193  0.00  0.00    +0.000 OA
ATOM     16  O   UNL     1       5.543   1.629  11.304  0.00  0.00    +0.000 OA
ENDBRANCH  10  14
BRANCH   1  17
ATOM     17  N   UNL     1       4.558   3.074  17.568  0.00  0.00    +0.000 N 
ATOM     18  H   UNL     1       4.897   2.181  17.231  0.00  0.00    +0.000 HD
BRANCH  17  19
ATOM     19  C   UNL     1       3.122   3.311  17.440  0.00  0.00    +0.000 C 
BRANCH  19  23
ATOM     20  C   UNL     1       1.842   6.455  20.118  0.00  0.00    +0.000 A 
ATOM     21  C   UNL     1       1.926   5.137  20.568  0.00  0.00    +0.000 A 
ATOM     22  C   UNL     1       2.319   4.111  19.703  0.00  0.00    +0.000 A 
ATOM     23  C   UNL     1       2.618   4.390  18.364  0.00  0.00    +0.000 A 
ATOM     24  C   UNL     1       2.544   5.718  17.921  0.00  0.00    +0.000 A 
ATOM     25  C   UNL     1       2.158   6.743  18.791  0.00  0.00    +0.000 A 
BRANCH  20  27
ATOM     26  C   UNL     1       1.229   8.697  20.598  0.00  0.00    +0.000 C 
ATOM     27  O   UNL     1       1.416   7.361  21.050  0.00  0.00    +0.000 OA
ENDBRANCH  20  27
ENDBRANCH  19  23
ENDBRANCH  17  19
ENDBRANCH   1  17
TORSDOF 5
ENDMDL
MODEL 2
REMARK VINA RESULT:      -8.8      3.108      5.447
REMARK  Name = 
REMARK  6 active torsions:
REMARK  status: ('A' for Active; 'I' for Inactive)
REMARK    1  A    between atoms: C_1  and  O_2
REMARK    2  A    between atoms: O_2  and  C_3
REMARK    3  A    between atoms: C_6  and  C_7
REMARK    4  A    between atoms: C_7  and  N_8
REMARK    5  A    between atoms: N_8  and  C_9
REMARK    6  A    between atoms: C_18  and  N_19
REMARK                            x       y       z     vdW  Elec       q    Type
REMARK                         _______ _______ _______ _____ _____    ______ ____
ROOT
ATOM      1  C   UNL     1       2.106   4.828  19.919  0.00  0.00    +0.000 A 
ATOM      2  C   UNL     1       0.973   4.011  20.150  0.00  0.00    +0.000 A 
ATOM      3  C   UNL     1       0.810   2.792  19.514  0.00  0.00    +0.000 A 
ATOM      4  N   UNL     1       1.646   2.295  18.603  0.00  0.00    +0.000 NA
ATOM      5  C   UNL     1       2.691   3.096  18.349  0.00  0.00    +0.000 A 
ATOM      6  O   UNL     1       3.561   2.783  17.364  0.00  0.00    +0.000 OA
ATOM      7  C   UNL     1       4.493   3.754  17.326  0.00  0.00    +0.000 A 
ATOM      8  C   UNL     1       5.520   3.786  16.384  0.00  0.00    +0.000 A 
ATOM      9  C   UNL     1       6.454   4.807  16.509  0.00  0.00    +0.000 A 
ATOM     10  C   UNL     1       6.347   5.732  17.557  0.00  0.00    +0.000 A 
ATOM     11  C   UNL     1       5.267   5.701  18.482  0.00  0.00    +0.000 A 
ATOM     12  C   UNL     1       4.285   4.690  18.340  0.00  0.00    +0.000 A 
ATOM     13  C   UNL     1       3.029   4.315  18.958  0.00  0.00    +0.000 A 
ENDROOT
BRANCH  10  14
ATOM     14  N   UNL     1       7.415   6.737  17.709  0.00  0.00    +0.000 N 
ATOM     15  O   UNL     1       7.547   7.582  16.807  0.00  0.00    +0.000 OA
ATOM     16  O   UNL     1       8.121   6.673  18.722  0.00  0.00    +0.000 OA
ENDBRANCH  10  14
BRANCH   1  17
ATOM     17  N   UNL     1       2.203   6.086  20.537  0.00  0.00    +0.000 N 
ATOM     18  H   UNL     1       1.854   6.160  21.486  0.00  0.00    +0.000 HD
BRANCH  17  19
ATOM     19  C   UNL     1       2.136   7.300  19.727  0.00  0.00    +0.000 C 
BRANCH  19  23
ATOM     20  C   UNL     1       0.251  10.642  21.722  0.00  0.00    +0.000 A 
ATOM     21  C   UNL     1       0.686   9.537  22.456  0.00  0.00    +0.000 A 
ATOM     22  C   UNL     1       1.278   8.443  21.816  0.00  0.00    +0.000 A 
ATOM     23  C   UNL     1       1.427   8.434  20.423  0.00  0.00    +0.000 A 
ATOM     24  C   UNL     1       0.999   9.550  19.693  0.00  0.00    +0.000 A 
ATOM     25  C   UNL     1       0.414  10.647  20.337  0.00  0.00    +0.000 A 
BRANCH  20  27
ATOM     26  C   UNL     1      -1.566  11.300  23.099  0.00  0.00    +0.000 C 
ATOM     27  O   UNL     1      -0.339  11.631  22.457  0.00  0.00    +0.000 OA
ENDBRANCH  20  27
ENDBRANCH  19  23
ENDBRANCH  17  19
ENDBRANCH   1  17
TORSDOF 5
ENDMDL
MODEL 3
REMARK VINA RESULT:      -8.8      3.107      5.539
REMARK  Name = 
REMARK  6 active torsions:
REMARK  status: ('A' for Active; 'I' for Inactive)
REMARK    1  A    between atoms: C_1  and  O_2
REMARK    2  A    between atoms: O_2  and  C_3
REMARK    3  A    between atoms: C_6  and  C_7
REMARK    4  A    between atoms: C_7  and  N_8
REMARK    5  A    between atoms: N_8  and  C_9
REMARK    6  A    between atoms: C_18  and  N_19
REMARK                            x       y       z     vdW  Elec       q    Type
REMARK                         _______ _______ _______ _____ _____    ______ ____
ROOT
ATOM      1  C   UNL     1       2.113   4.913  19.945  0.00  0.00    +0.000 A 
ATOM      2  C   UNL     1       0.968   4.118  20.190  0.00  0.00    +0.000 A 
ATOM      3  C   UNL     1       0.772   2.904  19.554  0.00  0.00    +0.000 A 
ATOM      4  N   UNL     1       1.584   2.394  18.628  0.00  0.00    +0.000 NA
ATOM      5  C   UNL     1       2.641   3.176  18.361  0.00  0.00    +0.000 A 
ATOM      6  O   UNL     1       3.489   2.849  17.362  0.00  0.00    +0.000 OA
ATOM      7  C   UNL     1       4.439   3.803  17.313  0.00  0.00    +0.000 A 
ATOM      8  C   UNL     1       5.452   3.818  16.356  0.00  0.00    +0.000 A 
ATOM      9  C   UNL     1       6.408   4.821  16.470  0.00  0.00    +0.000 A 
ATOM     10  C   UNL     1       6.334   5.744  17.522  0.00  0.00    +0.000 A 
ATOM     11  C   UNL     1       5.268   5.731  18.463  0.00  0.00    +0.000 A 
ATOM     12  C   UNL     1       4.264   4.739  18.332  0.00  0.00    +0.000 A 
ATOM     13  C   UNL     1       3.011   4.387  18.968  0.00  0.00    +0.000 A 
ENDROOT
BRANCH  10  14
ATOM     14  N   UNL     1       7.423   6.728  17.660  0.00  0.00    +0.000 N 
ATOM     15  O   UNL     1       8.099   6.700  18.702  0.00  0.00    +0.000 OA
ATOM     16  O   UNL     1       7.593   7.527  16.733  0.00  0.00    +0.000 OA
ENDBRANCH  10  14
BRANCH   1  17
ATOM     17  N   UNL     1       2.243   6.167  20.565  0.00  0.00    +0.000 N 
ATOM     18  H   UNL     1       1.886   6.252  21.510  0.00  0.00    +0.000 HD
BRANCH  17  19
ATOM     19  C   UNL     1       2.223   7.383  19.755  0.00  0.00    +0.000 C 
BRANCH  19  23
ATOM     20  C   UNL     1      -0.426  10.386  21.389  0.00  0.00    +0.000 A 
ATOM     21  C   UNL     1       0.089  10.526  20.099  0.00  0.00    +0.000 A 
ATOM     22  C   UNL     1       0.962   9.570  19.570  0.00  0.00    +0.000 A 
ATOM     23  C   UNL     1       1.348   8.464  20.338  0.00  0.00    +0.000 A 
ATOM     24  C   UNL     1       0.819   8.322  21.627  0.00  0.00    +0.000 A 
ATOM     25  C   UNL     1      -0.061   9.276  22.150  0.00  0.00    +0.000 A 
BRANCH  20  27
ATOM     26  C   UNL     1      -1.641  11.380  23.167  0.00  0.00    +0.000 C 
ATOM     27  O   UNL     1      -1.242  11.401  21.801  0.00  0.00    +0.000 OA
ENDBRANCH  20  27
ENDBRANCH  19  23
ENDBRANCH  17  19
ENDBRANCH   1  17
TORSDOF 5
ENDMDL
MODEL 4
REMARK VINA RESULT:      -8.7      0.218      1.144
REMARK  Name = 
REMARK  6 active torsions:
REMARK  status: ('A' for Active; 'I' for Inactive)
REMARK    1  A    between atoms: C_1  and  O_2
REMARK    2  A    between atoms: O_2  and  C_3
REMARK    3  A    between atoms: C_6  and  C_7
REMARK    4  A    between atoms: C_7  and  N_8
REMARK    5  A    between atoms: N_8  and  C_9
REMARK    6  A    between atoms: C_18  and  N_19
REMARK                            x       y       z     vdW  Elec       q    Type
REMARK                         _______ _______ _______ _____ _____    ______ ____
ROOT
ATOM      1  C   UNL     1       5.453   4.219  17.522  0.00  0.00    +0.000 A 
ATOM      2  C   UNL     1       5.874   4.861  18.712  0.00  0.00    +0.000 A 
ATOM      3  C   UNL     1       6.835   5.856  18.703  0.00  0.00    +0.000 A 
ATOM      4  N   UNL     1       7.491   6.268  17.618  0.00  0.00    +0.000 NA
ATOM      5  C   UNL     1       7.126   5.621  16.501  0.00  0.00    +0.000 A 
ATOM      6  O   UNL     1       7.785   5.845  15.343  0.00  0.00    +0.000 OA
ATOM      7  C   UNL     1       7.220   5.065  14.401  0.00  0.00    +0.000 A 
ATOM      8  C   UNL     1       7.689   4.996  13.090  0.00  0.00    +0.000 A 
ATOM      9  C   UNL     1       6.964   4.205  12.207  0.00  0.00    +0.000 A 
ATOM     10  C   UNL     1       5.810   3.540  12.644  0.00  0.00    +0.000 A 
ATOM     11  C   UNL     1       5.375   3.595  13.997  0.00  0.00    +0.000 A 
ATOM     12  C   UNL     1       6.130   4.364  14.917  0.00  0.00    +0.000 A 
ATOM     13  C   UNL     1       6.126   4.649  16.338  0.00  0.00    +0.000 A 
ENDROOT
BRANCH  10  14
ATOM     14  N   UNL     1       5.019   2.794  11.649  0.00  0.00    +0.000 N 
ATOM     15  O   UNL     1       5.443   1.683  11.287  0.00  0.00    +0.000 OA
ATOM     16  O   UNL     1       3.985   3.323  11.227  0.00  0.00    +0.000 OA
ENDBRANCH  10  14
BRANCH   1  17
ATOM     17  N   UNL     1       4.519   3.171  17.582  0.00  0.00    +0.000 N 
ATOM     18  H   UNL     1       4.794   2.286  17.171  0.00  0.00    +0.000 HD
BRANCH  17  19
ATOM     19  C   UNL     1       3.089   3.472  17.573  0.00  0.00    +0.000 C 
BRANCH  19  23
ATOM     20  C   UNL     1       1.876   6.739  20.133  0.00  0.00    +0.000 A 
ATOM     21  C   UNL     1       2.248   6.981  18.809  0.00  0.00    +0.000 A 
ATOM     22  C   UNL     1       2.661   5.933  17.981  0.00  0.00    +0.000 A 
ATOM     23  C   UNL     1       2.724   4.624  18.474  0.00  0.00    +0.000 A 
ATOM     24  C   UNL     1       2.338   4.385  19.800  0.00  0.00    +0.000 A 
ATOM     25  C   UNL     1       1.918   5.435  20.624  0.00  0.00    +0.000 A 
BRANCH  20  27
ATOM     26  C   UNL     1       1.098   8.980  20.097  0.00  0.00    +0.000 C 
ATOM     27  O   UNL     1       1.522   7.849  20.848  0.00  0.00    +0.000 OA
ENDBRANCH  20  27
ENDBRANCH  19  23
ENDBRANCH  17  19
ENDBRANCH   1  17
TORSDOF 5
ENDMDL
MODEL 5
REMARK VINA RESULT:      -8.5      3.578      7.056
REMARK  Name = 
REMARK  6 active torsions:
REMARK  status: ('A' for Active; 'I' for Inactive)
REMARK    1  A    between atoms: C_1  and  O_2
REMARK    2  A    between atoms: O_2  and  C_3
REMARK    3  A    between atoms: C_6  and  C_7
REMARK    4  A    between atoms: C_7  and  N_8
REMARK    5  A    between atoms: N_8  and  C_9
REMARK    6  A    between atoms: C_18  and  N_19
REMARK                            x       y       z     vdW  Elec       q    Type
REMARK                         _______ _______ _______ _____ _____    ______ ____
ROOT
ATOM      1  C   UNL     1       3.347   3.726  17.726  0.00  0.00    +0.000 A 
ATOM      2  C   UNL     1       3.454   2.340  17.995  0.00  0.00    +0.000 A 
ATOM      3  C   UNL     1       2.916   1.775  19.139  0.00  0.00    +0.000 A 
ATOM      4  N   UNL     1       2.308   2.459  20.108  0.00  0.00    +0.000 NA
ATOM      5  C   UNL     1       2.256   3.778  19.874  0.00  0.00    +0.000 A 
ATOM      6  O   UNL     1       1.776   4.616  20.819  0.00  0.00    +0.000 OA
ATOM      7  C   UNL     1       1.849   5.866  20.323  0.00  0.00    +0.000 A 
ATOM      8  C   UNL     1       1.490   6.996  21.057  0.00  0.00    +0.000 A 
ATOM      9  C   UNL     1       1.545   8.216  20.394  0.00  0.00    +0.000 A 
ATOM     10  C   UNL     1       1.929   8.267  19.047  0.00  0.00    +0.000 A 
ATOM     11  C   UNL     1       2.328   7.104  18.332  0.00  0.00    +0.000 A 
ATOM     12  C   UNL     1       2.316   5.859  19.009  0.00  0.00    +0.000 A 
ATOM     13  C   UNL     1       2.688   4.485  18.740  0.00  0.00    +0.000 A 
ENDROOT
BRANCH  10  14
ATOM     14  N   UNL     1       1.877   9.570  18.358  0.00  0.00    +0.000 N 
ATOM     15  O   UNL     1       1.366  10.525  18.966  0.00  0.00    +0.000 OA
ATOM     16  O   UNL     1       2.338   9.630  17.213  0.00  0.00    +0.000 OA
ENDBRANCH  10  14
BRANCH   1  17
ATOM     17  N   UNL     1       3.961   4.268  16.585  0.00  0.00    +0.000 N 
ATOM     18  H   UNL     1       3.377   4.397  15.766  0.00  0.00    +0.000 HD
BRANCH  17  19
ATOM     19  C   UNL     1       5.379   4.019  16.335  0.00  0.00    +0.000 C 
BRANCH  19  23
ATOM     20  C   UNL     1       7.836   7.026  18.238  0.00  0.00    +0.000 A 
ATOM     21  C   UNL     1       7.058   7.352  17.125  0.00  0.00    +0.000 A 
ATOM     22  C   UNL     1       6.277   6.381  16.492  0.00  0.00    +0.000 A 
ATOM     23  C   UNL     1       6.277   5.059  16.955  0.00  0.00    +0.000 A 
ATOM     24  C   UNL     1       7.050   4.741  18.079  0.00  0.00    +0.000 A 
ATOM     25  C   UNL     1       7.826   5.717  18.716  0.00  0.00    +0.000 A 
BRANCH  20  27
ATOM     26  C   UNL     1       8.369   9.337  18.169  0.00  0.00    +0.000 C 
ATOM     27  O   UNL     1       8.579   8.054  18.747  0.00  0.00    +0.000 OA
ENDBRANCH  20  27
ENDBRANCH  19  23
ENDBRANCH  17  19
ENDBRANCH   1  17
TORSDOF 5
ENDMDL
MODEL 6
REMARK VINA RESULT:      -8.4      2.850      5.240
REMARK  Name = 
REMARK  6 active torsions:
REMARK  status: ('A' for Active; 'I' for Inactive)
REMARK    1  A    between atoms: C_1  and  O_2
REMARK    2  A    between atoms: O_2  and  C_3
REMARK    3  A    between atoms: C_6  and  C_7
REMARK    4  A    between atoms: C_7  and  N_8
REMARK    5  A    between atoms: N_8  and  C_9
REMARK    6  A    between atoms: C_18  and  N_19
REMARK                            x       y       z     vdW  Elec       q    Type
REMARK                         _______ _______ _______ _____ _____    ______ ____
ROOT
ATOM      1  C   UNL     1       2.404   4.547  19.722  0.00  0.00    +0.000 A 
ATOM      2  C   UNL     1       1.281   3.689  19.797  0.00  0.00    +0.000 A 
ATOM      3  C   UNL     1       1.051   2.703  18.854  0.00  0.00    +0.000 A 
ATOM      4  N   UNL     1       1.805   2.496  17.774  0.00  0.00    +0.000 NA
ATOM      5  C   UNL     1       2.838   3.345  17.679  0.00  0.00    +0.000 A 
ATOM      6  O   UNL     1       3.623   3.336  16.579  0.00  0.00    +0.000 OA
ATOM      7  C   UNL     1       4.563   4.286  16.747  0.00  0.00    +0.000 A 
ATOM      8  C   UNL     1       5.513   4.596  15.775  0.00  0.00    +0.000 A 
ATOM      9  C   UNL     1       6.469   5.546  16.114  0.00  0.00    +0.000 A 
ATOM     10  C   UNL     1       6.458   6.129  17.388  0.00  0.00    +0.000 A 
ATOM     11  C   UNL     1       5.454   5.825  18.349  0.00  0.00    +0.000 A 
ATOM     12  C   UNL     1       4.449   4.888  18.001  0.00  0.00    +0.000 A 
ATOM     13  C   UNL     1       3.241   4.341  18.583  0.00  0.00    +0.000 A 
ENDROOT
BRANCH  10  14
ATOM     14  N   UNL     1       7.549   7.058  17.737  0.00  0.00    +0.000 N 
ATOM     15  O   UNL     1       7.771   8.006  16.965  0.00  0.00    +0.000 OA
ATOM     16  O   UNL     1       8.184   6.831  18.773  0.00  0.00    +0.000 OA
ENDBRANCH  10  14
BRANCH   1  17
ATOM     17  N   UNL     1       2.567   5.575  20.665  0.00  0.00    +0.000 N 
ATOM     18  H   UNL     1       3.301   5.454  21.355  0.00  0.00    +0.000 HD
BRANCH  17  19
ATOM     19  C   UNL     1       1.413   6.368  21.081  0.00  0.00    +0.000 C 
BRANCH  19  23
ATOM     20  C   UNL     1       1.169  10.265  19.223  0.00  0.00    +0.000 A 
ATOM     21  C   UNL     1       1.835   9.219  18.582  0.00  0.00    +0.000 A 
ATOM     22  C   UNL     1       1.936   7.962  19.185  0.00  0.00    +0.000 A 
ATOM     23  C   UNL     1       1.384   7.739  20.453  0.00  0.00    +0.000 A 
ATOM     24  C   UNL     1       0.706   8.789  21.086  0.00  0.00    +0.000 A 
ATOM     25  C   UNL     1       0.600  10.044  20.476  0.00  0.00    +0.000 A 
BRANCH  20  27
ATOM     26  C   UNL     1       2.413  11.883  18.011  0.00  0.00    +0.000 C 
ATOM     27  O   UNL     1       1.166  11.453  18.545  0.00  0.00    +0.000 OA
ENDBRANCH  20  27
ENDBRANCH  19  23
ENDBRANCH  17  19
ENDBRANCH   1  17
TORSDOF 5
ENDMDL
MODEL 7
REMARK VINA RESULT:      -8.4      2.912      5.392
REMARK  Name = 
REMARK  6 active torsions:
REMARK  status: ('A' for Active; 'I' for Inactive)
REMARK    1  A    between atoms: C_1  and  O_2
REMARK    2  A    between atoms: O_2  and  C_3
REMARK    3  A    between atoms: C_6  and  C_7
REMARK    4  A    between atoms: C_7  and  N_8
REMARK    5  A    between atoms: N_8  and  C_9
REMARK    6  A    between atoms: C_18  and  N_19
REMARK                            x       y       z     vdW  Elec       q    Type
REMARK                         _______ _______ _______ _____ _____    ______ ____
ROOT
ATOM      1  C   UNL     1       2.299   5.568  19.962  0.00  0.00    +0.000 A 
ATOM      2  C   UNL     1       1.197   4.988  20.636  0.00  0.00    +0.000 A 
ATOM      3  C   UNL     1       0.791   3.688  20.386  0.00  0.00    +0.000 A 
ATOM      4  N   UNL     1       1.337   2.886  19.473  0.00  0.00    +0.000 NA
ATOM      5  C   UNL     1       2.347   3.458  18.801  0.00  0.00    +0.000 A 
ATOM      6  O   UNL     1       2.923   2.811  17.764  0.00  0.00    +0.000 OA
ATOM      7  C   UNL     1       3.889   3.612  17.275  0.00  0.00    +0.000 A 
ATOM      8  C   UNL     1       4.653   3.286  16.156  0.00  0.00    +0.000 A 
ATOM      9  C   UNL     1       5.664   4.173  15.808  0.00  0.00    +0.000 A 
ATOM     10  C   UNL     1       5.888   5.321  16.581  0.00  0.00    +0.000 A 
ATOM     11  C   UNL     1       5.069   5.651  17.695  0.00  0.00    +0.000 A 
ATOM     12  C   UNL     1       4.007   4.776  18.035  0.00  0.00    +0.000 A 
ATOM     13  C   UNL     1       2.916   4.728  18.987  0.00  0.00    +0.000 A 
ENDROOT
BRANCH  10  14
ATOM     14  N   UNL     1       7.035   6.180  16.233  0.00  0.00    +0.000 N 
ATOM     15  O   UNL     1       7.735   5.845  15.263  0.00  0.00    +0.000 OA
ATOM     16  O   UNL     1       7.234   7.179  16.933  0.00  0.00    +0.000 OA
ENDBRANCH  10  14
BRANCH   1  17
ATOM     17  N   UNL     1       2.639   6.910  20.200  0.00  0.00    +0.000 N 
ATOM     18  H   UNL     1       3.047   7.128  21.102  0.00  0.00    +0.000 HD
BRANCH  17  19
ATOM     19  C   UNL     1       1.873   7.978  19.562  0.00  0.00    +0.000 C 
BRANCH  19  23
ATOM     20  C   UNL     1      -0.324  10.366  22.421  0.00  0.00    +0.000 A 
ATOM     21  C   UNL     1      -0.470  10.595  21.051  0.00  0.00    +0.000 A 
ATOM     22  C   UNL     1       0.252   9.841  20.121  0.00  0.00    +0.000 A 
ATOM     23  C   UNL     1       1.148   8.854  20.552  0.00  0.00    +0.000 A 
ATOM     24  C   UNL     1       1.282   8.622  21.927  0.00  0.00    +0.000 A 
ATOM     25  C   UNL     1       0.552   9.373  22.856  0.00  0.00    +0.000 A 
BRANCH  20  27
ATOM     26  C   UNL     1      -1.116  12.561  22.853  0.00  0.00    +0.000 C 
ATOM     27  O   UNL     1      -1.059  11.189  23.228  0.00  0.00    +0.000 OA
ENDBRANCH  20  27
ENDBRANCH  19  23
ENDBRANCH  17  19
ENDBRANCH   1  17
TORSDOF 5
ENDMDL
MODEL 8
REMARK VINA RESULT:      -8.3      3.096      5.402
REMARK  Name = 
REMARK  6 active torsions:
REMARK  status: ('A' for Active; 'I' for Inactive)
REMARK    1  A    between atoms: C_1  and  O_2
REMARK    2  A    between atoms: O_2  and  C_3
REMARK    3  A    between atoms: C_6  and  C_7
REMARK    4  A    between atoms: C_7  and  N_8
REMARK    5  A    between atoms: N_8  and  C_9
REMARK    6  A    between atoms: C_18  and  N_19
REMARK                            x       y       z     vdW  Elec       q    Type
REMARK                         _______ _______ _______ _____ _____    ______ ____
ROOT
ATOM      1  C   UNL     1       2.208   4.877  20.010  0.00  0.00    +0.000 A 
ATOM      2  C   UNL     1       1.040   4.114  20.251  0.00  0.00    +0.000 A 
ATOM      3  C   UNL     1       0.765   2.957  19.542  0.00  0.00    +0.000 A 
ATOM      4  N   UNL     1       1.515   2.480  18.549  0.00  0.00    +0.000 NA
ATOM      5  C   UNL     1       2.593   3.234  18.290  0.00  0.00    +0.000 A 
ATOM      6  O   UNL     1       3.384   2.944  17.234  0.00  0.00    +0.000 OA
ATOM      7  C   UNL     1       4.373   3.858  17.208  0.00  0.00    +0.000 A 
ATOM      8  C   UNL     1       5.345   3.898  16.210  0.00  0.00    +0.000 A 
ATOM      9  C   UNL     1       6.348   4.850  16.350  0.00  0.00    +0.000 A 
ATOM     10  C   UNL     1       6.359   5.700  17.465  0.00  0.00    +0.000 A 
ATOM     11  C   UNL     1       5.333   5.665  18.449  0.00  0.00    +0.000 A 
ATOM     12  C   UNL     1       4.282   4.727  18.296  0.00  0.00    +0.000 A 
ATOM     13  C   UNL     1       3.041   4.383  18.961  0.00  0.00    +0.000 A 
ENDROOT
BRANCH  10  14
ATOM     14  N   UNL     1       7.495   6.626  17.622  0.00  0.00    +0.000 N 
ATOM     15  O   UNL     1       7.835   7.297  16.634  0.00  0.00    +0.000 OA
ATOM     16  O   UNL     1       8.047   6.671  18.727  0.00  0.00    +0.000 OA
ENDBRANCH  10  14
BRANCH   1  17
ATOM     17  N   UNL     1       2.419   6.078  20.708  0.00  0.00    +0.000 N 
ATOM     18  H   UNL     1       3.189   6.098  21.366  0.00  0.00    +0.000 HD
BRANCH  17  19
ATOM     19  C   UNL     1       1.286   6.949  21.012  0.00  0.00    +0.000 C 
BRANCH  19  23
ATOM     20  C   UNL     1       1.477  10.637  18.762  0.00  0.00    +0.000 A 
ATOM     21  C   UNL     1       0.884  10.613  20.025  0.00  0.00    +0.000 A 
ATOM     22  C   UNL     1       0.801   9.420  20.751  0.00  0.00    +0.000 A 
ATOM     23  C   UNL     1       1.295   8.226  20.210  0.00  0.00    +0.000 A 
ATOM     24  C   UNL     1       1.900   8.260  18.947  0.00  0.00    +0.000 A 
ATOM     25  C   UNL     1       1.989   9.456  18.226  0.00  0.00    +0.000 A 
BRANCH  20  27
ATOM     26  C   UNL     1       0.922  12.941  18.880  0.00  0.00    +0.000 C 
ATOM     27  O   UNL     1       1.470  11.855  18.141  0.00  0.00    +0.000 OA
ENDBRANCH  20  27
ENDBRANCH  19  23
ENDBRANCH  17  19
ENDBRANCH   1  17
TORSDOF 5
ENDMDL
MODEL 9
REMARK VINA RESULT:      -8.3      3.577      6.819
REMARK  Name = 
REMARK  6 active torsions:
REMARK  status: ('A' for Active; 'I' for Inactive)
REMARK    1  A    between atoms: C_1  and  O_2
REMARK    2  A    between atoms: O_2  and  C_3
REMARK    3  A    between atoms: C_6  and  C_7
REMARK    4  A    between atoms: C_7  and  N_8
REMARK    5  A    between atoms: N_8  and  C_9
REMARK    6  A    between atoms: C_18  and  N_19
REMARK                            x       y       z     vdW  Elec       q    Type
REMARK                         _______ _______ _______ _____ _____    ______ ____
ROOT
ATOM      1  C   UNL     1       3.536   3.591  17.607  0.00  0.00    +0.000 A 
ATOM      2  C   UNL     1       3.758   2.234  17.947  0.00  0.00    +0.000 A 
ATOM      3  C   UNL     1       3.358   1.713  19.164  0.00  0.00    +0.000 A 
ATOM      4  N   UNL     1       2.791   2.418  20.143  0.00  0.00    +0.000 NA
ATOM      5  C   UNL     1       2.630   3.714  19.836  0.00  0.00    +0.000 A 
ATOM      6  O   UNL     1       2.177   4.579  20.770  0.00  0.00    +0.000 OA
ATOM      7  C   UNL     1       2.123   5.797  20.197  0.00  0.00    +0.000 A 
ATOM      8  C   UNL     1       1.753   6.948  20.892  0.00  0.00    +0.000 A 
ATOM      9  C   UNL     1       1.670   8.124  20.157  0.00  0.00    +0.000 A 
ATOM     10  C   UNL     1       1.934   8.111  18.780  0.00  0.00    +0.000 A 
ATOM     11  C   UNL     1       2.348   6.932  18.103  0.00  0.00    +0.000 A 
ATOM     12  C   UNL     1       2.477   5.735  18.849  0.00  0.00    +0.000 A 
ATOM     13  C   UNL     1       2.916   4.371  18.629  0.00  0.00    +0.000 A 
ENDROOT
BRANCH  10  14
ATOM     14  N   UNL     1       1.736   9.362  18.024  0.00  0.00    +0.000 N 
ATOM     15  O   UNL     1       0.592   9.843  17.991  0.00  0.00    +0.000 OA
ATOM     16  O   UNL     1       2.722   9.851  17.460  0.00  0.00    +0.000 OA
ENDBRANCH  10  14
BRANCH   1  17
ATOM     17  N   UNL     1       4.013   4.096  16.386  0.00  0.00    +0.000 N 
ATOM     18  H   UNL     1       3.395   4.025  15.586  0.00  0.00    +0.000 HD
BRANCH  17  19
ATOM     19  C   UNL     1       5.446   4.071  16.100  0.00  0.00    +0.000 C 
BRANCH  19  23
ATOM     20  C   UNL     1       7.751   7.144  18.084  0.00  0.00    +0.000 A 
ATOM     21  C   UNL     1       7.953   5.799  18.397  0.00  0.00    +0.000 A 
ATOM     22  C   UNL     1       7.198   4.800  17.774  0.00  0.00    +0.000 A 
ATOM     23  C   UNL     1       6.212   5.138  16.839  0.00  0.00    +0.000 A 
ATOM     24  C   UNL     1       6.022   6.489  16.520  0.00  0.00    +0.000 A 
ATOM     25  C   UNL     1       6.785   7.486  17.139  0.00  0.00    +0.000 A 
BRANCH  20  27
ATOM     26  C   UNL     1       8.524   9.375  18.329  0.00  0.00    +0.000 C 
ATOM     27  O   UNL     1       8.529   8.026  18.782  0.00  0.00    +0.000 OA
ENDBRANCH  20  27
ENDBRANCH  19  23
ENDBRANCH  17  19
ENDBRANCH   1  17
TORSDOF 5
ENDMDL
