MODEL 1
REMARK VINA RESULT:      -7.9      0.000      0.000
REMARK  Name = 
REMARK  11 active torsions:
REMARK  status: ('A' for Active; 'I' for Inactive)
REMARK    1  A    between atoms: C_2  and  C_3
REMARK    2  A    between atoms: C_6  and  C_7
REMARK    3  A    between atoms: C_7  and  N_8
REMARK    4  A    between atoms: C_9  and  C_11
REMARK    5  A    between atoms: C_11  and  C_12
REMARK    6  A    between atoms: C_12  and  O_13
REMARK    7  A    between atoms: O_13  and  C_14
REMARK    8  A    between atoms: C_14  and  C_15
REMARK    9  A    between atoms: C_15  and  N_16
REMARK   10  A    between atoms: N_19  and  C_20
REMARK   11  A    between atoms: C_25  and  C_26
REMARK                            x       y       z     vdW  Elec       q    Type
REMARK                         _______ _______ _______ _____ _____    ______ ____
ROOT
ATOM      1  C   UNL     1       7.325   6.845  16.772  0.00  0.00    +0.000 C 
ENDROOT
BRANCH   1   2
ATOM      2  N   UNL     1       7.522   5.547  17.434  0.00  0.00    +0.000 NA
ATOM      3  C   UNL     1       6.957   5.535  18.809  0.00  0.00    +0.000 C 
ATOM      4  C   UNL     1       5.407   5.459  18.904  0.00  0.00    +0.000 C 
ATOM      5  N   UNL     1       4.920   4.333  18.091  0.00  0.00    +0.000 N 
ATOM      6  C   UNL     1       5.377   4.381  16.689  0.00  0.00    +0.000 C 
ATOM      7  C   UNL     1       6.926   4.423  16.675  0.00  0.00    +0.000 C 
BRANCH   5   8
ATOM      8  C   UNL     1       3.778   3.610  18.425  0.00  0.00    +0.000 A 
ATOM      9  C   UNL     1       3.767   2.211  18.281  0.00  0.00    +0.000 A 
ATOM     10  C   UNL     1       2.648   1.452  18.612  0.00  0.00    +0.000 A 
ATOM     11  C   UNL     1       1.542   2.108  19.107  0.00  0.00    +0.000 A 
ATOM     12  N   UNL     1       1.474   3.444  19.253  0.00  0.00    +0.000 NA
ATOM     13  C   UNL     1       2.559   4.193  18.888  0.00  0.00    +0.000 A 
BRANCH  13  14
ATOM     14  C   UNL     1       2.291   5.658  18.966  0.00  0.00    +0.000 A 
ATOM     15  C   UNL     1       1.984   6.286  20.186  0.00  0.00    +0.000 A 
ATOM     16  C   UNL     1       1.843   7.677  20.279  0.00  0.00    +0.000 A 
ATOM     17  C   UNL     1       2.031   8.476  19.155  0.00  0.00    +0.000 A 
ATOM     18  C   UNL     1       2.271   7.877  17.926  0.00  0.00    +0.000 A 
ATOM     19  C   UNL     1       2.339   6.483  17.832  0.00  0.00    +0.000 A 
ENDBRANCH  13  14
ENDBRANCH   5   8
ENDBRANCH   1   2
BRANCH   1  20
ATOM     20  C   UNL     1       7.228   8.003  17.776  0.00  0.00    +0.000 C 
BRANCH  20  21
ATOM     21  O   UNL     1       8.520   8.355  18.271  0.00  0.00    +0.000 OA
BRANCH  21  22
ATOM     22  C   UNL     1       8.664   9.781  18.257  0.00  0.00    +0.000 C 
BRANCH  22  23
ATOM     23  C   UNL     1       9.398  10.234  19.500  0.00  0.00    +0.000 C 
BRANCH  23  25
ATOM     24  N   UNL     1       9.688  12.127  18.028  0.00  0.00    +0.000 N 
ATOM     25  C   UNL     1      10.010  11.591  19.254  0.00  0.00    +0.000 C 
ATOM     26  O   UNL     1      10.693  12.163  20.097  0.00  0.00    +0.000 OA
ATOM     27  H   UNL     1       9.035  11.628  17.439  0.00  0.00    +0.000 HD
BRANCH  24  28
ATOM     28  C   UNL     1      10.080  13.457  17.643  0.00  0.00    +0.000 C 
BRANCH  28  32
ATOM     29  C   UNL     1       7.231  16.397  19.002  0.00  0.00    +0.000 A 
ATOM     30  C   UNL     1       6.785  15.216  18.403  0.00  0.00    +0.000 A 
ATOM     31  C   UNL     1       7.706  14.263  17.960  0.00  0.00    +0.000 A 
ATOM     32  C   UNL     1       9.082  14.481  18.116  0.00  0.00    +0.000 A 
ATOM     33  C   UNL     1       9.523  15.682  18.691  0.00  0.00    +0.000 A 
ATOM     34  C   UNL     1       8.603  16.632  19.140  0.00  0.00    +0.000 A 
BRANCH  29  36
ATOM     35  N   UNL     1       5.512  18.143  19.851  0.00  0.00    +0.000 NA
ATOM     36  C   UNL     1       6.281  17.355  19.473  0.00  0.00    +0.000 C 
ENDBRANCH  29  36
ENDBRANCH  28  32
ENDBRANCH  24  28
ENDBRANCH  23  25
ENDBRANCH  22  23
ENDBRANCH  21  22
ENDBRANCH  20  21
ENDBRANCH   1  20
TORSDOF 11
ENDMDL
MODEL 2
REMARK VINA RESULT:      -7.9      5.038      8.223
REMARK  Name = 
REMARK  11 active torsions:
REMARK  status: ('A' for Active; 'I' for Inactive)
REMARK    1  A    between atoms: C_2  and  C_3
REMARK    2  A    between atoms: C_6  and  C_7
REMARK    3  A    between atoms: C_7  and  N_8
REMARK    4  A    between atoms: C_9  and  C_11
REMARK    5  A    between atoms: C_11  and  C_12
REMARK    6  A    between atoms: C_12  and  O_13
REMARK    7  A    between atoms: O_13  and  C_14
REMARK    8  A    between atoms: C_14  and  C_15
REMARK    9  A    between atoms: C_15  and  N_16
REMARK   10  A    between atoms: N_19  and  C_20
REMARK   11  A    between atoms: C_25  and  C_26
REMARK                            x       y       z     vdW  Elec       q    Type
REMARK                         _______ _______ _______ _____ _____    ______ ____
ROOT
ATOM      1  C   UNL     1       1.876   4.562  19.665  0.00  0.00    +0.000 C 
ENDROOT
BRANCH   1   2
ATOM      2  N   UNL     1       3.176   3.876  19.641  0.00  0.00    +0.000 NA
ATOM      3  C   UNL     1       3.227   2.822  18.594  0.00  0.00    +0.000 C 
ATOM      4  C   UNL     1       3.354   3.326  17.129  0.00  0.00    +0.000 C 
ATOM      5  N   UNL     1       4.483   4.265  17.030  0.00  0.00    +0.000 N 
ATOM      6  C   UNL     1       4.400   5.385  17.985  0.00  0.00    +0.000 C 
ATOM      7  C   UNL     1       4.308   4.807  19.420  0.00  0.00    +0.000 C 
BRANCH   5   8
ATOM      8  C   UNL     1       5.247   4.394  15.873  0.00  0.00    +0.000 A 
ATOM      9  C   UNL     1       4.838   3.755  14.688  0.00  0.00    +0.000 A 
ATOM     10  C   UNL     1       5.569   3.867  13.509  0.00  0.00    +0.000 A 
ATOM     11  C   UNL     1       6.709   4.640  13.523  0.00  0.00    +0.000 A 
ATOM     12  N   UNL     1       7.171   5.263  14.623  0.00  0.00    +0.000 NA
ATOM     13  C   UNL     1       6.475   5.119  15.791  0.00  0.00    +0.000 A 
BRANCH  13  14
ATOM     14  C   UNL     1       7.177   5.738  16.952  0.00  0.00    +0.000 A 
ATOM     15  C   UNL     1       7.380   7.128  17.033  0.00  0.00    +0.000 A 
ATOM     16  C   UNL     1       7.938   7.721  18.173  0.00  0.00    +0.000 A 
ATOM     17  C   UNL     1       8.284   6.939  19.271  0.00  0.00    +0.000 A 
ATOM     18  C   UNL     1       8.154   5.559  19.192  0.00  0.00    +0.000 A 
ATOM     19  C   UNL     1       7.662   4.971  18.022  0.00  0.00    +0.000 A 
ENDBRANCH  13  14
ENDBRANCH   5   8
ENDBRANCH   1   2
BRANCH   1  20
ATOM     20  C   UNL     1       1.755   5.542  20.841  0.00  0.00    +0.000 C 
BRANCH  20  21
ATOM     21  O   UNL     1       1.702   6.890  20.375  0.00  0.00    +0.000 OA
BRANCH  21  22
ATOM     22  C   UNL     1       0.595   7.563  20.987  0.00  0.00    +0.000 C 
BRANCH  22  23
ATOM     23  C   UNL     1       1.096   8.729  21.812  0.00  0.00    +0.000 C 
BRANCH  23  25
ATOM     24  N   UNL     1       0.706   9.841  19.704  0.00  0.00    +0.000 N 
ATOM     25  C   UNL     1       0.856  10.015  21.061  0.00  0.00    +0.000 C 
ATOM     26  O   UNL     1       0.764  11.097  21.630  0.00  0.00    +0.000 OA
ATOM     27  H   UNL     1       0.695   8.899  19.336  0.00  0.00    +0.000 HD
BRANCH  24  28
ATOM     28  C   UNL     1       0.360  10.925  18.823  0.00  0.00    +0.000 C 
BRANCH  28  32
ATOM     29  C   UNL     1      -3.909  11.200  18.267  0.00  0.00    +0.000 A 
ATOM     30  C   UNL     1      -3.175  10.231  17.577  0.00  0.00    +0.000 A 
ATOM     31  C   UNL     1      -1.792  10.142  17.754  0.00  0.00    +0.000 A 
ATOM     32  C   UNL     1      -1.131  11.018  18.626  0.00  0.00    +0.000 A 
ATOM     33  C   UNL     1      -1.870  12.006  19.293  0.00  0.00    +0.000 A 
ATOM     34  C   UNL     1      -3.253  12.093  19.121  0.00  0.00    +0.000 A 
BRANCH  29  36
ATOM     35  N   UNL     1      -6.480  11.317  17.954  0.00  0.00    +0.000 NA
ATOM     36  C   UNL     1      -5.327  11.269  18.098  0.00  0.00    +0.000 C 
ENDBRANCH  29  36
ENDBRANCH  28  32
ENDBRANCH  24  28
ENDBRANCH  23  25
ENDBRANCH  22  23
ENDBRANCH  21  22
ENDBRANCH  20  21
ENDBRANCH   1  20
TORSDOF 11
ENDMDL
MODEL 3
REMARK VINA RESULT:      -7.9      3.101      3.491
REMARK  Name = 
REMARK  11 active torsions:
REMARK  status: ('A' for Active; 'I' for Inactive)
REMARK    1  A    between atoms: C_2  and  C_3
REMARK    2  A    between atoms: C_6  and  C_7
REMARK    3  A    between atoms: C_7  and  N_8
REMARK    4  A    between atoms: C_9  and  C_11
REMARK    5  A    between atoms: C_11  and  C_12
REMARK    6  A    between atoms: C_12  and  O_13
REMARK    7  A    between atoms: O_13  and  C_14
REMARK    8  A    between atoms: C_14  and  C_15
REMARK    9  A    between atoms: C_15  and  N_16
REMARK   10  A    between atoms: N_19  and  C_20
REMARK   11  A    between atoms: C_25  and  C_26
REMARK                            x       y       z     vdW  Elec       q    Type
REMARK                         _______ _______ _______ _____ _____    ______ ____
ROOT
ATOM      1  C   UNL     1       7.506   7.898  17.793  0.00  0.00    +0.000 C 
ENDROOT
BRANCH   1   2
ATOM      2  N   UNL     1       7.652   6.453  17.565  0.00  0.00    +0.000 NA
ATOM      3  C   UNL     1       7.321   5.664  18.780  0.00  0.00    +0.000 C 
ATOM      4  C   UNL     1       5.810   5.557  19.129  0.00  0.00    +0.000 C 
ATOM      5  N   UNL     1       5.066   5.097  17.945  0.00  0.00    +0.000 N 
ATOM      6  C   UNL     1       5.290   5.930  16.750  0.00  0.00    +0.000 C 
ATOM      7  C   UNL     1       6.810   5.963  16.448  0.00  0.00    +0.000 C 
BRANCH   5   8
ATOM      8  C   UNL     1       3.915   4.319  18.043  0.00  0.00    +0.000 A 
ATOM      9  C   UNL     1       3.947   2.967  17.654  0.00  0.00    +0.000 A 
ATOM     10  C   UNL     1       2.820   2.155  17.745  0.00  0.00    +0.000 A 
ATOM     11  C   UNL     1       1.662   2.705  18.247  0.00  0.00    +0.000 A 
ATOM     12  N   UNL     1       1.552   3.994  18.621  0.00  0.00    +0.000 NA
ATOM     13  C   UNL     1       2.648   4.802  18.491  0.00  0.00    +0.000 A 
BRANCH  13  14
ATOM     14  C   UNL     1       2.342   6.228  18.802  0.00  0.00    +0.000 A 
ATOM     15  C   UNL     1       2.196   7.189  17.784  0.00  0.00    +0.000 A 
ATOM     16  C   UNL     1       1.799   8.502  18.068  0.00  0.00    +0.000 A 
ATOM     17  C   UNL     1       1.513   8.879  19.377  0.00  0.00    +0.000 A 
ATOM     18  C   UNL     1       1.710   7.969  20.406  0.00  0.00    +0.000 A 
ATOM     19  C   UNL     1       2.175   6.682  20.119  0.00  0.00    +0.000 A 
ENDBRANCH  13  14
ENDBRANCH   5   8
ENDBRANCH   1   2
BRANCH   1  20
ATOM     20  C   UNL     1       8.740   8.509  18.472  0.00  0.00    +0.000 C 
BRANCH  20  21
ATOM     21  O   UNL     1       8.540   9.898  18.735  0.00  0.00    +0.000 OA
BRANCH  21  22
ATOM     22  C   UNL     1       9.227  10.674  17.746  0.00  0.00    +0.000 C 
BRANCH  22  23
ATOM     23  C   UNL     1       9.088  12.147  18.064  0.00  0.00    +0.000 C 
BRANCH  23  25
ATOM     24  N   UNL     1       9.147  12.465  20.457  0.00  0.00    +0.000 N 
ATOM     25  C   UNL     1       9.890  12.472  19.299  0.00  0.00    +0.000 C 
ATOM     26  O   UNL     1      11.099  12.679  19.259  0.00  0.00    +0.000 OA
ATOM     27  H   UNL     1       8.177  12.184  20.406  0.00  0.00    +0.000 HD
BRANCH  24  28
ATOM     28  C   UNL     1       9.742  12.642  21.755  0.00  0.00    +0.000 C 
BRANCH  28  32
ATOM     29  C   UNL     1       6.738  12.933  24.838  0.00  0.00    +0.000 A 
ATOM     30  C   UNL     1       7.030  11.695  24.260  0.00  0.00    +0.000 A 
ATOM     31  C   UNL     1       8.001  11.598  23.261  0.00  0.00    +0.000 A 
ATOM     32  C   UNL     1       8.693  12.739  22.831  0.00  0.00    +0.000 A 
ATOM     33  C   UNL     1       8.374  13.984  23.394  0.00  0.00    +0.000 A 
ATOM     34  C   UNL     1       7.407  14.081  24.398  0.00  0.00    +0.000 A 
BRANCH  29  36
ATOM     35  N   UNL     1       4.956  13.087  26.714  0.00  0.00    +0.000 NA
ATOM     36  C   UNL     1       5.760  13.019  25.876  0.00  0.00    +0.000 C 
ENDBRANCH  29  36
ENDBRANCH  28  32
ENDBRANCH  24  28
ENDBRANCH  23  25
ENDBRANCH  22  23
ENDBRANCH  21  22
ENDBRANCH  20  21
ENDBRANCH   1  20
TORSDOF 11
ENDMDL
MODEL 4
REMARK VINA RESULT:      -7.8      5.903      9.195
REMARK  Name = 
REMARK  11 active torsions:
REMARK  status: ('A' for Active; 'I' for Inactive)
REMARK    1  A    between atoms: C_2  and  C_3
REMARK    2  A    between atoms: C_6  and  C_7
REMARK    3  A    between atoms: C_7  and  N_8
REMARK    4  A    between atoms: C_9  and  C_11
REMARK    5  A    between atoms: C_11  and  C_12
REMARK    6  A    between atoms: C_12  and  O_13
REMARK    7  A    between atoms: O_13  and  C_14
REMARK    8  A    between atoms: C_14  and  C_15
REMARK    9  A    between atoms: C_15  and  N_16
REMARK   10  A    between atoms: N_19  and  C_20
REMARK   11  A    between atoms: C_25  and  C_26
REMARK                            x       y       z     vdW  Elec       q    Type
REMARK                         _______ _______ _______ _____ _____    ______ ____
ROOT
ATOM      1  C   UNL     1       1.357   9.509  20.831  0.00  0.00    +0.000 C 
ENDROOT
BRANCH   1   2
ATOM      2  N   UNL     1       0.774   8.543  19.889  0.00  0.00    +0.000 NA
ATOM      3  C   UNL     1       1.137   8.852  18.482  0.00  0.00    +0.000 C 
ATOM      4  C   UNL     1       2.599   8.520  18.070  0.00  0.00    +0.000 C 
ATOM      5  N   UNL     1       2.906   7.127  18.432  0.00  0.00    +0.000 N 
ATOM      6  C   UNL     1       2.659   6.822  19.854  0.00  0.00    +0.000 C 
ATOM      7  C   UNL     1       1.179   7.147  20.179  0.00  0.00    +0.000 C 
BRANCH   5   8
ATOM      8  C   UNL     1       3.791   6.342  17.697  0.00  0.00    +0.000 A 
ATOM      9  C   UNL     1       4.675   6.948  16.787  0.00  0.00    +0.000 A 
ATOM     10  C   UNL     1       5.581   6.200  16.040  0.00  0.00    +0.000 A 
ATOM     11  C   UNL     1       5.605   4.836  16.227  0.00  0.00    +0.000 A 
ATOM     12  N   UNL     1       4.777   4.186  17.067  0.00  0.00    +0.000 NA
ATOM     13  C   UNL     1       3.859   4.917  17.768  0.00  0.00    +0.000 A 
BRANCH  13  14
ATOM     14  C   UNL     1       2.918   4.057  18.541  0.00  0.00    +0.000 A 
ATOM     15  C   UNL     1       1.632   3.753  18.058  0.00  0.00    +0.000 A 
ATOM     16  C   UNL     1       0.791   2.856  18.728  0.00  0.00    +0.000 A 
ATOM     17  C   UNL     1       1.226   2.221  19.888  0.00  0.00    +0.000 A 
ATOM     18  C   UNL     1       2.465   2.551  20.421  0.00  0.00    +0.000 A 
ATOM     19  C   UNL     1       3.267   3.501  19.781  0.00  0.00    +0.000 A 
ENDBRANCH  13  14
ENDBRANCH   5   8
ENDBRANCH   1   2
BRANCH   1  20
ATOM     20  C   UNL     1       0.806   9.343  22.254  0.00  0.00    +0.000 C 
BRANCH  20  21
ATOM     21  O   UNL     1       0.472  10.610  22.821  0.00  0.00    +0.000 OA
BRANCH  21  22
ATOM     22  C   UNL     1      -0.949  10.701  22.981  0.00  0.00    +0.000 C 
BRANCH  22  23
ATOM     23  C   UNL     1      -1.368  12.155  23.014  0.00  0.00    +0.000 C 
BRANCH  23  25
ATOM     24  N   UNL     1      -2.714  12.440  21.030  0.00  0.00    +0.000 N 
ATOM     25  C   UNL     1      -2.738  12.297  22.398  0.00  0.00    +0.000 C 
ATOM     26  O   UNL     1      -3.764  12.244  23.067  0.00  0.00    +0.000 OA
ATOM     27  H   UNL     1      -1.826  12.370  20.552  0.00  0.00    +0.000 HD
BRANCH  24  28
ATOM     28  C   UNL     1      -3.917  12.480  20.239  0.00  0.00    +0.000 C 
BRANCH  28  32
ATOM     29  C   UNL     1      -3.246  10.947  16.263  0.00  0.00    +0.000 A 
ATOM     30  C   UNL     1      -2.179  11.061  17.158  0.00  0.00    +0.000 A 
ATOM     31  C   UNL     1      -2.393  11.559  18.446  0.00  0.00    +0.000 A 
ATOM     32  C   UNL     1      -3.678  11.945  18.852  0.00  0.00    +0.000 A 
ATOM     33  C   UNL     1      -4.739  11.855  17.939  0.00  0.00    +0.000 A 
ATOM     34  C   UNL     1      -4.528  11.352  16.654  0.00  0.00    +0.000 A 
BRANCH  29  36
ATOM     35  N   UNL     1      -2.829   9.983  13.893  0.00  0.00    +0.000 NA
ATOM     36  C   UNL     1      -3.022  10.415  14.956  0.00  0.00    +0.000 C 
ENDBRANCH  29  36
ENDBRANCH  28  32
ENDBRANCH  24  28
ENDBRANCH  23  25
ENDBRANCH  22  23
ENDBRANCH  21  22
ENDBRANCH  20  21
ENDBRANCH   1  20
TORSDOF 11
ENDMDL
MODEL 5
REMARK VINA RESULT:      -7.8      3.311      3.704
REMARK  Name = 
REMARK  11 active torsions:
REMARK  status: ('A' for Active; 'I' for Inactive)
REMARK    1  A    between atoms: C_2  and  C_3
REMARK    2  A    between atoms: C_6  and  C_7
REMARK    3  A    between atoms: C_7  and  N_8
REMARK    4  A    between atoms: C_9  and  C_11
REMARK    5  A    between atoms: C_11  and  C_12
REMARK    6  A    between atoms: C_12  and  O_13
REMARK    7  A    between atoms: O_13  and  C_14
REMARK    8  A    between atoms: C_14  and  C_15
REMARK    9  A    between atoms: C_15  and  N_16
REMARK   10  A    between atoms: N_19  and  C_20
REMARK   11  A    between atoms: C_25  and  C_26
REMARK                            x       y       z     vdW  Elec       q    Type
REMARK                         _______ _______ _______ _____ _____    ______ ____
ROOT
ATOM      1  C   UNL     1       7.096   6.765  16.942  0.00  0.00    +0.000 C 
ENDROOT
BRANCH   1   2
ATOM      2  N   UNL     1       7.154   5.402  17.490  0.00  0.00    +0.000 NA
ATOM      3  C   UNL     1       6.772   5.365  18.926  0.00  0.00    +0.000 C 
ATOM      4  C   UNL     1       5.255   5.528  19.228  0.00  0.00    +0.000 C 
ATOM      5  N   UNL     1       4.489   4.564  18.422  0.00  0.00    +0.000 N 
ATOM      6  C   UNL     1       4.768   4.655  16.977  0.00  0.00    +0.000 C 
ATOM      7  C   UNL     1       6.288   4.452  16.753  0.00  0.00    +0.000 C 
BRANCH   5   8
ATOM      8  C   UNL     1       3.293   4.005  18.865  0.00  0.00    +0.000 A 
ATOM      9  C   UNL     1       3.118   2.610  18.837  0.00  0.00    +0.000 A 
ATOM     10  C   UNL     1       1.941   2.013  19.279  0.00  0.00    +0.000 A 
ATOM     11  C   UNL     1       0.943   2.828  19.767  0.00  0.00    +0.000 A 
ATOM     12  N   UNL     1       1.033   4.170  19.806  0.00  0.00    +0.000 NA
ATOM     13  C   UNL     1       2.173   4.758  19.332  0.00  0.00    +0.000 A 
BRANCH  13  14
ATOM     14  C   UNL     1       2.074   6.246  19.302  0.00  0.00    +0.000 A 
ATOM     15  C   UNL     1       2.234   6.970  18.106  0.00  0.00    +0.000 A 
ATOM     16  C   UNL     1       2.031   8.355  18.056  0.00  0.00    +0.000 A 
ATOM     17  C   UNL     1       1.637   9.046  19.197  0.00  0.00    +0.000 A 
ATOM     18  C   UNL     1       1.534   8.368  20.403  0.00  0.00    +0.000 A 
ATOM     19  C   UNL     1       1.809   6.997  20.457  0.00  0.00    +0.000 A 
ENDBRANCH  13  14
ENDBRANCH   5   8
ENDBRANCH   1   2
BRANCH   1  20
ATOM     20  C   UNL     1       8.069   7.720  17.648  0.00  0.00    +0.000 C 
BRANCH  20  21
ATOM     21  O   UNL     1       7.451   8.982  17.897  0.00  0.00    +0.000 OA
BRANCH  21  22
ATOM     22  C   UNL     1       8.460   9.992  18.015  0.00  0.00    +0.000 C 
BRANCH  22  23
ATOM     23  C   UNL     1       9.206   9.821  19.321  0.00  0.00    +0.000 C 
BRANCH  23  25
ATOM     24  N   UNL     1       9.072  11.444  21.104  0.00  0.00    +0.000 N 
ATOM     25  C   UNL     1       9.592  11.177  19.859  0.00  0.00    +0.000 C 
ATOM     26  O   UNL     1      10.336  11.936  19.246  0.00  0.00    +0.000 OA
ATOM     27  H   UNL     1       8.553  10.716  21.577  0.00  0.00    +0.000 HD
BRANCH  24  28
ATOM     28  C   UNL     1       9.408  12.635  21.840  0.00  0.00    +0.000 C 
BRANCH  28  32
ATOM     29  C   UNL     1       7.218  12.873  25.549  0.00  0.00    +0.000 A 
ATOM     30  C   UNL     1       7.311  11.656  24.868  0.00  0.00    +0.000 A 
ATOM     31  C   UNL     1       8.018  11.577  23.666  0.00  0.00    +0.000 A 
ATOM     32  C   UNL     1       8.643  12.714  23.135  0.00  0.00    +0.000 A 
ATOM     33  C   UNL     1       8.521  13.938  23.808  0.00  0.00    +0.000 A 
ATOM     34  C   UNL     1       7.820  14.017  25.013  0.00  0.00    +0.000 A 
BRANCH  29  36
ATOM     35  N   UNL     1       5.929  12.993  27.795  0.00  0.00    +0.000 NA
ATOM     36  C   UNL     1       6.513  12.939  26.790  0.00  0.00    +0.000 C 
ENDBRANCH  29  36
ENDBRANCH  28  32
ENDBRANCH  24  28
ENDBRANCH  23  25
ENDBRANCH  22  23
ENDBRANCH  21  22
ENDBRANCH  20  21
ENDBRANCH   1  20
TORSDOF 11
ENDMDL
MODEL 6
REMARK VINA RESULT:      -7.7      4.716      9.973
REMARK  Name = 
REMARK  11 active torsions:
REMARK  status: ('A' for Active; 'I' for Inactive)
REMARK    1  A    between atoms: C_2  and  C_3
REMARK    2  A    between atoms: C_6  and  C_7
REMARK    3  A    between atoms: C_7  and  N_8
REMARK    4  A    between atoms: C_9  and  C_11
REMARK    5  A    between atoms: C_11  and  C_12
REMARK    6  A    between atoms: C_12  and  O_13
REMARK    7  A    between atoms: O_13  and  C_14
REMARK    8  A    between atoms: C_14  and  C_15
REMARK    9  A    between atoms: C_15  and  N_16
REMARK   10  A    between atoms: N_19  and  C_20
REMARK   11  A    between atoms: C_25  and  C_26
REMARK                            x       y       z     vdW  Elec       q    Type
REMARK                         _______ _______ _______ _____ _____    ______ ____
ROOT
ATOM      1  C   UNL     1       0.949   7.243  21.105  0.00  0.00    +0.000 C 
ENDROOT
BRANCH   1   2
ATOM      2  N   UNL     1       1.572   8.573  21.059  0.00  0.00    +0.000 NA
ATOM      3  C   UNL     1       0.883   9.475  20.100  0.00  0.00    +0.000 C 
ATOM      4  C   UNL     1      -0.496  10.028  20.558  0.00  0.00    +0.000 C 
ATOM      5  N   UNL     1      -0.361  10.632  21.894  0.00  0.00    +0.000 N 
ATOM      6  C   UNL     1       0.219   9.719  22.895  0.00  0.00    +0.000 C 
ATOM      7  C   UNL     1       1.600   9.237  22.384  0.00  0.00    +0.000 C 
BRANCH   5   8
ATOM      8  C   UNL     1      -1.138  11.712  22.306  0.00  0.00    +0.000 A 
ATOM      9  C   UNL     1      -2.233  11.501  23.163  0.00  0.00    +0.000 A 
ATOM     10  C   UNL     1      -3.028  12.556  23.605  0.00  0.00    +0.000 A 
ATOM     11  C   UNL     1      -2.705  13.829  23.191  0.00  0.00    +0.000 A 
ATOM     12  N   UNL     1      -1.685  14.104  22.358  0.00  0.00    +0.000 NA
ATOM     13  C   UNL     1      -0.930  13.063  21.891  0.00  0.00    +0.000 A 
BRANCH  13  14
ATOM     14  C   UNL     1       0.065  13.497  20.869  0.00  0.00    +0.000 A 
ATOM     15  C   UNL     1       1.371  13.879  21.228  0.00  0.00    +0.000 A 
ATOM     16  C   UNL     1       2.339  14.177  20.260  0.00  0.00    +0.000 A 
ATOM     17  C   UNL     1       2.030  14.076  18.907  0.00  0.00    +0.000 A 
ATOM     18  C   UNL     1       0.733  13.763  18.526  0.00  0.00    +0.000 A 
ATOM     19  C   UNL     1      -0.244  13.537  19.501  0.00  0.00    +0.000 A 
ENDBRANCH  13  14
ENDBRANCH   5   8
ENDBRANCH   1   2
BRANCH   1  20
ATOM     20  C   UNL     1       1.819   6.168  20.439  0.00  0.00    +0.000 C 
BRANCH  20  21
ATOM     21  O   UNL     1       1.763   4.943  21.171  0.00  0.00    +0.000 OA
BRANCH  21  22
ATOM     22  C   UNL     1       0.944   4.003  20.465  0.00  0.00    +0.000 C 
BRANCH  22  23
ATOM     23  C   UNL     1       1.592   2.635  20.497  0.00  0.00    +0.000 C 
BRANCH  23  25
ATOM     24  N   UNL     1       2.063   3.257  18.211  0.00  0.00    +0.000 N 
ATOM     25  C   UNL     1       2.440   2.453  19.263  0.00  0.00    +0.000 C 
ATOM     26  O   UNL     1       3.397   1.687  19.234  0.00  0.00    +0.000 OA
ATOM     27  H   UNL     1       1.326   3.932  18.360  0.00  0.00    +0.000 HD
BRANCH  24  28
ATOM     28  C   UNL     1       2.810   3.316  16.982  0.00  0.00    +0.000 C 
BRANCH  28  32
ATOM     29  C   UNL     1       5.936   6.283  17.175  0.00  0.00    +0.000 A 
ATOM     30  C   UNL     1       4.641   6.602  17.594  0.00  0.00    +0.000 A 
ATOM     31  C   UNL     1       3.627   5.644  17.531  0.00  0.00    +0.000 A 
ATOM     32  C   UNL     1       3.898   4.355  17.051  0.00  0.00    +0.000 A 
ATOM     33  C   UNL     1       5.193   4.050  16.605  0.00  0.00    +0.000 A 
ATOM     34  C   UNL     1       6.209   5.005  16.673  0.00  0.00    +0.000 A 
BRANCH  29  36
ATOM     35  N   UNL     1       7.818   8.057  17.350  0.00  0.00    +0.000 NA
ATOM     36  C   UNL     1       6.972   7.262  17.266  0.00  0.00    +0.000 C 
ENDBRANCH  29  36
ENDBRANCH  28  32
ENDBRANCH  24  28
ENDBRANCH  23  25
ENDBRANCH  22  23
ENDBRANCH  21  22
ENDBRANCH  20  21
ENDBRANCH   1  20
TORSDOF 11
ENDMDL
MODEL 7
REMARK VINA RESULT:      -7.7      4.806      9.286
REMARK  Name = 
REMARK  11 active torsions:
REMARK  status: ('A' for Active; 'I' for Inactive)
REMARK    1  A    between atoms: C_2  and  C_3
REMARK    2  A    between atoms: C_6  and  C_7
REMARK    3  A    between atoms: C_7  and  N_8
REMARK    4  A    between atoms: C_9  and  C_11
REMARK    5  A    between atoms: C_11  and  C_12
REMARK    6  A    between atoms: C_12  and  O_13
REMARK    7  A    between atoms: O_13  and  C_14
REMARK    8  A    between atoms: C_14  and  C_15
REMARK    9  A    between atoms: C_15  and  N_16
REMARK   10  A    between atoms: N_19  and  C_20
REMARK   11  A    between atoms: C_25  and  C_26
REMARK                            x       y       z     vdW  Elec       q    Type
REMARK                         _______ _______ _______ _____ _____    ______ ____
ROOT
ATOM      1  C   UNL     1       1.979   7.873  19.198  0.00  0.00    +0.000 C 
ENDROOT
BRANCH   1   2
ATOM      2  N   UNL     1       1.847   9.299  19.527  0.00  0.00    +0.000 NA
ATOM      3  C   UNL     1       1.487  10.111  18.336  0.00  0.00    +0.000 C 
ATOM      4  C   UNL     1       0.017   9.986  17.847  0.00  0.00    +0.000 C 
ATOM      5  N   UNL     1      -0.896  10.220  18.978  0.00  0.00    +0.000 N 
ATOM      6  C   UNL     1      -0.631   9.347  20.137  0.00  0.00    +0.000 C 
ATOM      7  C   UNL     1       0.839   9.550  20.583  0.00  0.00    +0.000 C 
BRANCH   5   8
ATOM      8  C   UNL     1      -2.154  10.796  18.815  0.00  0.00    +0.000 A 
ATOM      9  C   UNL     1      -3.041  10.280  17.854  0.00  0.00    +0.000 A 
ATOM     10  C   UNL     1      -4.310  10.822  17.667  0.00  0.00    +0.000 A 
ATOM     11  C   UNL     1      -4.689  11.878  18.466  0.00  0.00    +0.000 A 
ATOM     12  N   UNL     1      -3.887  12.434  19.392  0.00  0.00    +0.000 NA
ATOM     13  C   UNL     1      -2.625  11.929  19.546  0.00  0.00    +0.000 A 
BRANCH  13  14
ATOM     14  C   UNL     1      -1.803  12.732  20.497  0.00  0.00    +0.000 A 
ATOM     15  C   UNL     1      -1.922  12.572  21.889  0.00  0.00    +0.000 A 
ATOM     16  C   UNL     1      -1.073  13.243  22.778  0.00  0.00    +0.000 A 
ATOM     17  C   UNL     1      -0.066  14.072  22.294  0.00  0.00    +0.000 A 
ATOM     18  C   UNL     1       0.033  14.297  20.928  0.00  0.00    +0.000 A 
ATOM     19  C   UNL     1      -0.866  13.677  20.053  0.00  0.00    +0.000 A 
ENDBRANCH  13  14
ENDBRANCH   5   8
ENDBRANCH   1   2
BRANCH   1  20
ATOM     20  C   UNL     1       2.111   6.994  20.451  0.00  0.00    +0.000 C 
BRANCH  20  21
ATOM     21  O   UNL     1       2.358   5.634  20.094  0.00  0.00    +0.000 OA
BRANCH  21  22
ATOM     22  C   UNL     1       1.256   4.823  20.517  0.00  0.00    +0.000 C 
BRANCH  22  23
ATOM     23  C   UNL     1       1.150   3.600  19.631  0.00  0.00    +0.000 C 
BRANCH  23  25
ATOM     24  N   UNL     1       3.255   3.542  18.449  0.00  0.00    +0.000 N 
ATOM     25  C   UNL     1       1.915   3.839  18.353  0.00  0.00    +0.000 C 
ATOM     26  O   UNL     1       1.368   4.223  17.325  0.00  0.00    +0.000 OA
ATOM     27  H   UNL     1       3.599   3.133  19.308  0.00  0.00    +0.000 HD
BRANCH  24  28
ATOM     28  C   UNL     1       4.139   3.596  17.314  0.00  0.00    +0.000 C 
BRANCH  28  32
ATOM     29  C   UNL     1       6.811   6.974  17.564  0.00  0.00    +0.000 A 
ATOM     30  C   UNL     1       5.550   7.120  16.978  0.00  0.00    +0.000 A 
ATOM     31  C   UNL     1       4.684   6.027  16.895  0.00  0.00    +0.000 A 
ATOM     32  C   UNL     1       5.069   4.777  17.399  0.00  0.00    +0.000 A 
ATOM     33  C   UNL     1       6.347   4.630  17.959  0.00  0.00    +0.000 A 
ATOM     34  C   UNL     1       7.211   5.723  18.048  0.00  0.00    +0.000 A 
BRANCH  29  36
ATOM     35  N   UNL     1       8.387   9.025  17.739  0.00  0.00    +0.000 NA
ATOM     36  C   UNL     1       7.681   8.103  17.666  0.00  0.00    +0.000 C 
ENDBRANCH  29  36
ENDBRANCH  28  32
ENDBRANCH  24  28
ENDBRANCH  23  25
ENDBRANCH  22  23
ENDBRANCH  21  22
ENDBRANCH  20  21
ENDBRANCH   1  20
TORSDOF 11
ENDMDL
MODEL 8
REMARK VINA RESULT:      -7.7      5.753      9.074
REMARK  Name = 
REMARK  11 active torsions:
REMARK  status: ('A' for Active; 'I' for Inactive)
REMARK    1  A    between atoms: C_2  and  C_3
REMARK    2  A    between atoms: C_6  and  C_7
REMARK    3  A    between atoms: C_7  and  N_8
REMARK    4  A    between atoms: C_9  and  C_11
REMARK    5  A    between atoms: C_11  and  C_12
REMARK    6  A    between atoms: C_12  and  O_13
REMARK    7  A    between atoms: O_13  and  C_14
REMARK    8  A    between atoms: C_14  and  C_15
REMARK    9  A    between atoms: C_15  and  N_16
REMARK   10  A    between atoms: N_19  and  C_20
REMARK   11  A    between atoms: C_25  and  C_26
REMARK                            x       y       z     vdW  Elec       q    Type
REMARK                         _______ _______ _______ _____ _____    ______ ____
ROOT
ATOM      1  C   UNL     1       1.645   9.460  20.567  0.00  0.00    +0.000 C 
ENDROOT
BRANCH   1   2
ATOM      2  N   UNL     1       1.056   8.379  19.765  0.00  0.00    +0.000 NA
ATOM      3  C   UNL     1       1.279   8.584  18.310  0.00  0.00    +0.000 C 
ATOM      4  C   UNL     1       2.722   8.313  17.799  0.00  0.00    +0.000 C 
ATOM      5  N   UNL     1       3.157   6.979  18.247  0.00  0.00    +0.000 N 
ATOM      6  C   UNL     1       3.051   6.787  19.705  0.00  0.00    +0.000 C 
ATOM      7  C   UNL     1       1.584   7.043  20.132  0.00  0.00    +0.000 C 
BRANCH   5   8
ATOM      8  C   UNL     1       4.033   6.192  17.504  0.00  0.00    +0.000 A 
ATOM      9  C   UNL     1       4.941   6.798  16.617  0.00  0.00    +0.000 A 
ATOM     10  C   UNL     1       5.838   6.046  15.864  0.00  0.00    +0.000 A 
ATOM     11  C   UNL     1       5.828   4.678  16.019  0.00  0.00    +0.000 A 
ATOM     12  N   UNL     1       4.976   4.028  16.834  0.00  0.00    +0.000 NA
ATOM     13  C   UNL     1       4.067   4.764  17.541  0.00  0.00    +0.000 A 
BRANCH  13  14
ATOM     14  C   UNL     1       3.097   3.908  18.284  0.00  0.00    +0.000 A 
ATOM     15  C   UNL     1       3.490   3.150  19.401  0.00  0.00    +0.000 A 
ATOM     16  C   UNL     1       2.557   2.436  20.165  0.00  0.00    +0.000 A 
ATOM     17  C   UNL     1       1.204   2.484  19.843  0.00  0.00    +0.000 A 
ATOM     18  C   UNL     1       0.798   3.172  18.709  0.00  0.00    +0.000 A 
ATOM     19  C   UNL     1       1.746   3.823  17.913  0.00  0.00    +0.000 A 
ENDBRANCH  13  14
ENDBRANCH   5   8
ENDBRANCH   1   2
BRANCH   1  20
ATOM     20  C   UNL     1       0.771  10.723  20.574  0.00  0.00    +0.000 C 
BRANCH  20  21
ATOM     21  O   UNL     1       0.893  11.419  21.815  0.00  0.00    +0.000 OA
BRANCH  21  22
ATOM     22  C   UNL     1      -0.149  12.396  21.918  0.00  0.00    +0.000 C 
BRANCH  22  23
ATOM     23  C   UNL     1      -1.181  11.940  22.926  0.00  0.00    +0.000 C 
BRANCH  23  25
ATOM     24  N   UNL     1      -2.574  12.582  21.061  0.00  0.00    +0.000 N 
ATOM     25  C   UNL     1      -2.564  12.205  22.384  0.00  0.00    +0.000 C 
ATOM     26  O   UNL     1      -3.573  12.052  23.064  0.00  0.00    +0.000 OA
ATOM     27  H   UNL     1      -1.700  12.583  20.552  0.00  0.00    +0.000 HD
BRANCH  24  28
ATOM     28  C   UNL     1      -3.796  12.774  20.324  0.00  0.00    +0.000 C 
BRANCH  28  32
ATOM     29  C   UNL     1      -3.542  11.010  16.396  0.00  0.00    +0.000 A 
ATOM     30  C   UNL     1      -4.786  11.370  16.923  0.00  0.00    +0.000 A 
ATOM     31  C   UNL     1      -4.871  11.939  18.195  0.00  0.00    +0.000 A 
ATOM     32  C   UNL     1      -3.712  12.159  18.953  0.00  0.00    +0.000 A 
ATOM     33  C   UNL     1      -2.470  11.769  18.430  0.00  0.00    +0.000 A 
ATOM     34  C   UNL     1      -2.383  11.205  17.155  0.00  0.00    +0.000 A 
BRANCH  29  36
ATOM     35  N   UNL     1      -3.408   9.998  14.013  0.00  0.00    +0.000 NA
ATOM     36  C   UNL     1      -3.463  10.450  15.084  0.00  0.00    +0.000 C 
ENDBRANCH  29  36
ENDBRANCH  28  32
ENDBRANCH  24  28
ENDBRANCH  23  25
ENDBRANCH  22  23
ENDBRANCH  21  22
ENDBRANCH  20  21
ENDBRANCH   1  20
TORSDOF 11
ENDMDL
MODEL 9
REMARK VINA RESULT:      -7.6      1.059      1.246
REMARK  Name = 
REMARK  11 active torsions:
REMARK  status: ('A' for Active; 'I' for Inactive)
REMARK    1  A    between atoms: C_2  and  C_3
REMARK    2  A    between atoms: C_6  and  C_7
REMARK    3  A    between atoms: C_7  and  N_8
REMARK    4  A    between atoms: C_9  and  C_11
REMARK    5  A    between atoms: C_11  and  C_12
REMARK    6  A    between atoms: C_12  and  O_13
REMARK    7  A    between atoms: O_13  and  C_14
REMARK    8  A    between atoms: C_14  and  C_15
REMARK    9  A    between atoms: C_15  and  N_16
REMARK   10  A    between atoms: N_19  and  C_20
REMARK   11  A    between atoms: C_25  and  C_26
REMARK                            x       y       z     vdW  Elec       q    Type
REMARK                         _______ _______ _______ _____ _____    ______ ____
ROOT
ATOM      1  C   UNL     1       7.285   7.947  17.994  0.00  0.00    +0.000 C 
ENDROOT
BRANCH   1   2
ATOM      2  N   UNL     1       7.520   6.520  17.730  0.00  0.00    +0.000 NA
ATOM      3  C   UNL     1       7.235   5.681  18.924  0.00  0.00    +0.000 C 
ATOM      4  C   UNL     1       5.733   5.473  19.265  0.00  0.00    +0.000 C 
ATOM      5  N   UNL     1       5.021   4.998  18.067  0.00  0.00    +0.000 N 
ATOM      6  C   UNL     1       5.196   5.874  16.894  0.00  0.00    +0.000 C 
ATOM      7  C   UNL     1       6.712   6.008  16.599  0.00  0.00    +0.000 C 
BRANCH   5   8
ATOM      8  C   UNL     1       3.919   4.149  18.141  0.00  0.00    +0.000 A 
ATOM      9  C   UNL     1       4.035   2.812  17.719  0.00  0.00    +0.000 A 
ATOM     10  C   UNL     1       2.960   1.930  17.786  0.00  0.00    +0.000 A 
ATOM     11  C   UNL     1       1.769   2.396  18.297  0.00  0.00    +0.000 A 
ATOM     12  N   UNL     1       1.580   3.665  18.702  0.00  0.00    +0.000 NA
ATOM     13  C   UNL     1       2.624   4.542  18.596  0.00  0.00    +0.000 A 
BRANCH  13  14
ATOM     14  C   UNL     1       2.231   5.939  18.941  0.00  0.00    +0.000 A 
ATOM     15  C   UNL     1       1.859   6.297  20.250  0.00  0.00    +0.000 A 
ATOM     16  C   UNL     1       1.599   7.628  20.599  0.00  0.00    +0.000 A 
ATOM     17  C   UNL     1       1.728   8.639  19.651  0.00  0.00    +0.000 A 
ATOM     18  C   UNL     1       2.031   8.306  18.338  0.00  0.00    +0.000 A 
ATOM     19  C   UNL     1       2.219   6.965  17.985  0.00  0.00    +0.000 A 
ENDBRANCH  13  14
ENDBRANCH   5   8
ENDBRANCH   1   2
BRANCH   1  20
ATOM     20  C   UNL     1       8.447   8.828  17.513  0.00  0.00    +0.000 C 
BRANCH  20  21
ATOM     21  O   UNL     1       8.221  10.196  17.852  0.00  0.00    +0.000 OA
BRANCH  21  22
ATOM     22  C   UNL     1       9.271  10.653  18.714  0.00  0.00    +0.000 C 
BRANCH  22  23
ATOM     23  C   UNL     1      10.361  11.306  17.892  0.00  0.00    +0.000 C 
BRANCH  23  25
ATOM     24  N   UNL     1      10.001  13.643  17.405  0.00  0.00    +0.000 N 
ATOM     25  C   UNL     1      10.513  12.746  18.314  0.00  0.00    +0.000 C 
ATOM     26  O   UNL     1      11.010  13.064  19.389  0.00  0.00    +0.000 OA
ATOM     27  H   UNL     1       9.517  13.285  16.593  0.00  0.00    +0.000 HD
BRANCH  24  28
ATOM     28  C   UNL     1       9.947  15.058  17.666  0.00  0.00    +0.000 C 
BRANCH  28  32
ATOM     29  C   UNL     1       5.928  16.349  18.558  0.00  0.00    +0.000 A 
ATOM     30  C   UNL     1       6.154  15.073  18.033  0.00  0.00    +0.000 A 
ATOM     31  C   UNL     1       7.453  14.654  17.742  0.00  0.00    +0.000 A 
ATOM     32  C   UNL     1       8.542  15.505  17.976  0.00  0.00    +0.000 A 
ATOM     33  C   UNL     1       8.307  16.794  18.476  0.00  0.00    +0.000 A 
ATOM     34  C   UNL     1       7.008  17.212  18.773  0.00  0.00    +0.000 A 
BRANCH  29  36
ATOM     35  N   UNL     1       3.517  17.105  19.134  0.00  0.00    +0.000 NA
ATOM     36  C   UNL     1       4.597  16.760  18.875  0.00  0.00    +0.000 C 
ENDBRANCH  29  36
ENDBRANCH  28  32
ENDBRANCH  24  28
ENDBRANCH  23  25
ENDBRANCH  22  23
ENDBRANCH  21  22
ENDBRANCH  20  21
ENDBRANCH   1  20
TORSDOF 11
ENDMDL
