MODEL 1
REMARK VINA RESULT:      -7.7      0.000      0.000
REMARK  Name = 
REMARK  7 active torsions:
REMARK  status: ('A' for Active; 'I' for Inactive)
REMARK    1  A    between atoms: C_1  and  C_2
REMARK    2  A    between atoms: C_5  and  C_6
REMARK    3  A    between atoms: C_6  and  O_8
REMARK    4  A    between atoms: C_10  and  C_11
REMARK    5  A    between atoms: C_11  and  C_12
REMARK    6  A    between atoms: C_12  and  N_13
REMARK    7  A    between atoms: C_22  and  O_23
REMARK                            x       y       z     vdW  Elec       q    Type
REMARK                         _______ _______ _______ _____ _____    ______ ____
ROOT
ATOM      1  C   UNL     1       3.201   5.676  20.206  0.00  0.00    +0.000 C 
ENDROOT
BRANCH   1   2
ATOM      2  N   UNL     1       3.838   5.186  18.941  0.00  0.00    +0.000 N 
ATOM      3  C   UNL     1       4.182   3.839  18.910  0.00  0.00    +0.000 A 
ATOM      4  N   UNL     1       5.478   3.726  19.142  0.00  0.00    +0.000 NA
ATOM      5  C   UNL     1       5.991   4.994  18.914  0.00  0.00    +0.000 A 
ATOM      6  C   UNL     1       4.974   5.765  18.389  0.00  0.00    +0.000 A 
ATOM      7  N   UNL     1       5.024   6.574  17.297  0.00  0.00    +0.000 N 
ATOM      8  C   UNL     1       6.166   6.606  16.496  0.00  0.00    +0.000 C 
ATOM      9  N   UNL     1       7.417   6.546  16.768  0.00  0.00    +0.000 NA
ATOM     10  C   UNL     1       7.819   6.584  18.176  0.00  0.00    +0.000 C 
ATOM     11  C   UNL     1       7.437   5.342  19.009  0.00  0.00    +0.000 C 
ATOM     12  H   UNL     1       4.166   6.637  16.751  0.00  0.00    +0.000 HD
BRANCH  11  13
ATOM     13  O   UNL     1       7.767   5.650  20.381  0.00  0.00    +0.000 OA
ATOM     14  H   UNL     1       7.193   5.095  20.942  0.00  0.00    +0.000 HD
ENDBRANCH  11  13
ENDBRANCH   1   2
BRANCH   1  15
ATOM     15  C   UNL     1       1.815   6.328  19.940  0.00  0.00    +0.000 C 
BRANCH  15  22
ATOM     16  C   UNL     1       2.207   8.607  17.756  0.00  0.00    +0.000 C 
ATOM     17  C   UNL     1       1.587   8.815  19.105  0.00  0.00    +0.000 A 
ATOM     18  C   UNL     1       1.154  10.122  19.425  0.00  0.00    +0.000 A 
ATOM     19  C   UNL     1       0.602  10.435  20.669  0.00  0.00    +0.000 A 
ATOM     20  C   UNL     1       0.455   9.443  21.629  0.00  0.00    +0.000 A 
ATOM     21  C   UNL     1       0.870   8.140  21.324  0.00  0.00    +0.000 A 
ATOM     22  C   UNL     1       1.438   7.796  20.060  0.00  0.00    +0.000 A 
BRANCH  20  23
ATOM     23  C   UNL     1      -0.080   9.838  22.956  0.00  0.00    +0.000 C 
ATOM     24  O   UNL     1      -1.156  10.403  23.086  0.00  0.00    +0.000 OA
BRANCH  23  25
ATOM     25  O   UNL     1       0.693   9.497  24.006  0.00  0.00    +0.000 OA
ATOM     26  H   UNL     1       1.528   9.989  24.086  0.00  0.00    +0.000 HD
ENDBRANCH  23  25
ENDBRANCH  20  23
ENDBRANCH  15  22
ENDBRANCH   1  15
TORSDOF 6
ENDMDL
MODEL 2
REMARK VINA RESULT:      -7.5      3.654      8.024
REMARK  Name = 
REMARK  7 active torsions:
REMARK  status: ('A' for Active; 'I' for Inactive)
REMARK    1  A    between atoms: C_1  and  C_2
REMARK    2  A    between atoms: C_5  and  C_6
REMARK    3  A    between atoms: C_6  and  O_8
REMARK    4  A    between atoms: C_10  and  C_11
REMARK    5  A    between atoms: C_11  and  C_12
REMARK    6  A    between atoms: C_12  and  N_13
REMARK    7  A    between atoms: C_22  and  O_23
REMARK                            x       y       z     vdW  Elec       q    Type
REMARK                         _______ _______ _______ _____ _____    ______ ____
ROOT
ATOM      1  C   UNL     1       1.971   8.420  17.860  0.00  0.00    +0.000 C 
ENDROOT
BRANCH   1   2
ATOM      2  N   UNL     1       1.728   9.523  18.845  0.00  0.00    +0.000 N 
ATOM      3  C   UNL     1       1.238   9.137  20.088  0.00  0.00    +0.000 A 
ATOM      4  N   UNL     1      -0.064   9.357  20.117  0.00  0.00    +0.000 NA
ATOM      5  C   UNL     1      -0.300  10.234  19.071  0.00  0.00    +0.000 A 
ATOM      6  C   UNL     1       0.925  10.623  18.570  0.00  0.00    +0.000 A 
ATOM      7  N   UNL     1       1.347  11.886  18.291  0.00  0.00    +0.000 N 
ATOM      8  C   UNL     1       0.548  12.983  18.618  0.00  0.00    +0.000 C 
ATOM      9  N   UNL     1      -0.719  13.172  18.582  0.00  0.00    +0.000 NA
ATOM     10  C   UNL     1      -1.554  12.138  17.967  0.00  0.00    +0.000 C 
ATOM     11  C   UNL     1      -1.637  10.805  18.741  0.00  0.00    +0.000 C 
ATOM     12  H   UNL     1       2.337  12.069  18.446  0.00  0.00    +0.000 HD
BRANCH  11  13
ATOM     13  O   UNL     1      -2.357   9.883  17.894  0.00  0.00    +0.000 OA
ATOM     14  H   UNL     1      -2.924   9.345  18.480  0.00  0.00    +0.000 HD
ENDBRANCH  11  13
ENDBRANCH   1   2
BRANCH   1  15
ATOM     15  C   UNL     1       2.521   7.140  18.550  0.00  0.00    +0.000 C 
BRANCH  15  22
ATOM     16  C   UNL     1       1.540   4.152  18.074  0.00  0.00    +0.000 C 
ATOM     17  C   UNL     1       2.885   4.682  17.679  0.00  0.00    +0.000 A 
ATOM     18  C   UNL     1       3.778   3.781  17.055  0.00  0.00    +0.000 A 
ATOM     19  C   UNL     1       5.071   4.157  16.685  0.00  0.00    +0.000 A 
ATOM     20  C   UNL     1       5.505   5.456  16.916  0.00  0.00    +0.000 A 
ATOM     21  C   UNL     1       4.628   6.364  17.524  0.00  0.00    +0.000 A 
ATOM     22  C   UNL     1       3.303   6.002  17.913  0.00  0.00    +0.000 A 
BRANCH  20  23
ATOM     23  C   UNL     1       6.907   5.791  16.561  0.00  0.00    +0.000 C 
ATOM     24  O   UNL     1       7.380   6.903  16.742  0.00  0.00    +0.000 OA
BRANCH  23  25
ATOM     25  O   UNL     1       7.625   4.770  16.054  0.00  0.00    +0.000 OA
ATOM     26  H   UNL     1       7.168   3.912  16.023  0.00  0.00    +0.000 HD
ENDBRANCH  23  25
ENDBRANCH  20  23
ENDBRANCH  15  22
ENDBRANCH   1  15
TORSDOF 6
ENDMDL
MODEL 3
REMARK VINA RESULT:      -7.4      3.129      4.719
REMARK  Name = 
REMARK  7 active torsions:
REMARK  status: ('A' for Active; 'I' for Inactive)
REMARK    1  A    between atoms: C_1  and  C_2
REMARK    2  A    between atoms: C_5  and  C_6
REMARK    3  A    between atoms: C_6  and  O_8
REMARK    4  A    between atoms: C_10  and  C_11
REMARK    5  A    between atoms: C_11  and  C_12
REMARK    6  A    between atoms: C_12  and  N_13
REMARK    7  A    between atoms: C_22  and  O_23
REMARK                            x       y       z     vdW  Elec       q    Type
REMARK                         _______ _______ _______ _____ _____    ______ ____
ROOT
ATOM      1  C   UNL     1       2.586   6.905  18.059  0.00  0.00    +0.000 C 
ENDROOT
BRANCH   1   2
ATOM      2  N   UNL     1       3.294   6.112  19.115  0.00  0.00    +0.000 N 
ATOM      3  C   UNL     1       4.547   5.616  18.771  0.00  0.00    +0.000 A 
ATOM      4  N   UNL     1       4.424   4.339  18.451  0.00  0.00    +0.000 NA
ATOM      5  C   UNL     1       3.201   3.957  18.979  0.00  0.00    +0.000 A 
ATOM      6  C   UNL     1       2.731   5.007  19.741  0.00  0.00    +0.000 A 
ATOM      7  N   UNL     1       2.228   4.959  21.004  0.00  0.00    +0.000 N 
ATOM      8  C   UNL     1       2.251   3.764  21.725  0.00  0.00    +0.000 C 
ATOM      9  N   UNL     1       2.074   2.542  21.382  0.00  0.00    +0.000 NA
ATOM     10  C   UNL     1       1.625   2.267  20.015  0.00  0.00    +0.000 C 
ATOM     11  C   UNL     1       2.652   2.574  18.904  0.00  0.00    +0.000 C 
ATOM     12  H   UNL     1       2.421   5.769  21.591  0.00  0.00    +0.000 HD
BRANCH  11  13
ATOM     13  O   UNL     1       1.962   2.398  17.648  0.00  0.00    +0.000 OA
ATOM     14  H   UNL     1       1.101   1.985  17.854  0.00  0.00    +0.000 HD
ENDBRANCH  11  13
ENDBRANCH   1   2
BRANCH   1  15
ATOM     15  C   UNL     1       2.451   8.403  18.454  0.00  0.00    +0.000 C 
BRANCH  15  22
ATOM     16  C   UNL     1       1.509   8.512  21.490  0.00  0.00    +0.000 C 
ATOM     17  C   UNL     1       0.803   9.185  20.353  0.00  0.00    +0.000 A 
ATOM     18  C   UNL     1      -0.369   9.914  20.659  0.00  0.00    +0.000 A 
ATOM     19  C   UNL     1      -1.128  10.544  19.670  0.00  0.00    +0.000 A 
ATOM     20  C   UNL     1      -0.728  10.475  18.343  0.00  0.00    +0.000 A 
ATOM     21  C   UNL     1       0.438   9.764  18.024  0.00  0.00    +0.000 A 
ATOM     22  C   UNL     1       1.228   9.111  19.017  0.00  0.00    +0.000 A 
BRANCH  20  23
ATOM     23  C   UNL     1      -1.600  11.109  17.322  0.00  0.00    +0.000 C 
ATOM     24  O   UNL     1      -2.341  10.459  16.600  0.00  0.00    +0.000 OA
BRANCH  23  25
ATOM     25  O   UNL     1      -1.535  12.454  17.275  0.00  0.00    +0.000 OA
ATOM     26  H   UNL     1      -0.713  12.845  17.616  0.00  0.00    +0.000 HD
ENDBRANCH  23  25
ENDBRANCH  20  23
ENDBRANCH  15  22
ENDBRANCH   1  15
TORSDOF 6
ENDMDL
MODEL 4
REMARK VINA RESULT:      -7.4      4.670      8.103
REMARK  Name = 
REMARK  7 active torsions:
REMARK  status: ('A' for Active; 'I' for Inactive)
REMARK    1  A    between atoms: C_1  and  C_2
REMARK    2  A    between atoms: C_5  and  C_6
REMARK    3  A    between atoms: C_6  and  O_8
REMARK    4  A    between atoms: C_10  and  C_11
REMARK    5  A    between atoms: C_11  and  C_12
REMARK    6  A    between atoms: C_12  and  N_13
REMARK    7  A    between atoms: C_22  and  O_23
REMARK                            x       y       z     vdW  Elec       q    Type
REMARK                         _______ _______ _______ _____ _____    ______ ____
ROOT
ATOM      1  C   UNL     1       4.277   6.100  17.805  0.00  0.00    +0.000 C 
ENDROOT
BRANCH   1   2
ATOM      2  N   UNL     1       4.393   5.474  19.161  0.00  0.00    +0.000 N 
ATOM      3  C   UNL     1       5.534   4.711  19.388  0.00  0.00    +0.000 A 
ATOM      4  N   UNL     1       5.221   3.433  19.259  0.00  0.00    +0.000 NA
ATOM      5  C   UNL     1       3.839   3.394  19.354  0.00  0.00    +0.000 A 
ATOM      6  C   UNL     1       3.411   4.657  19.707  0.00  0.00    +0.000 A 
ATOM      7  N   UNL     1       2.528   4.992  20.686  0.00  0.00    +0.000 N 
ATOM      8  C   UNL     1       2.030   4.016  21.550  0.00  0.00    +0.000 C 
ATOM      9  N   UNL     1       1.689   2.793  21.370  0.00  0.00    +0.000 NA
ATOM     10  C   UNL     1       1.658   2.280  19.998  0.00  0.00    +0.000 C 
ATOM     11  C   UNL     1       3.033   2.142  19.309  0.00  0.00    +0.000 C 
ATOM     12  H   UNL     1       2.706   5.875  21.162  0.00  0.00    +0.000 HD
BRANCH  11  13
ATOM     13  O   UNL     1       2.768   1.789  17.934  0.00  0.00    +0.000 OA
ATOM     14  H   UNL     1       2.831   2.613  17.413  0.00  0.00    +0.000 HD
ENDBRANCH  11  13
ENDBRANCH   1   2
BRANCH   1  15
ATOM     15  C   UNL     1       4.353   5.039  16.671  0.00  0.00    +0.000 C 
BRANCH  15  22
ATOM     16  C   UNL     1       7.290   6.261  16.701  0.00  0.00    +0.000 C 
ATOM     17  C   UNL     1       6.729   5.413  15.599  0.00  0.00    +0.000 A 
ATOM     18  C   UNL     1       7.571   5.146  14.495  0.00  0.00    +0.000 A 
ATOM     19  C   UNL     1       7.136   4.403  13.396  0.00  0.00    +0.000 A 
ATOM     20  C   UNL     1       5.845   3.891  13.375  0.00  0.00    +0.000 A 
ATOM     21  C   UNL     1       5.002   4.138  14.467  0.00  0.00    +0.000 A 
ATOM     22  C   UNL     1       5.423   4.896  15.600  0.00  0.00    +0.000 A 
BRANCH  20  23
ATOM     23  C   UNL     1       5.410   3.160  12.158  0.00  0.00    +0.000 C 
ATOM     24  O   UNL     1       4.422   3.485  11.518  0.00  0.00    +0.000 OA
BRANCH  23  25
ATOM     25  O   UNL     1       6.204   2.133  11.797  0.00  0.00    +0.000 OA
ATOM     26  H   UNL     1       6.294   1.992  10.839  0.00  0.00    +0.000 HD
ENDBRANCH  23  25
ENDBRANCH  20  23
ENDBRANCH  15  22
ENDBRANCH   1  15
TORSDOF 6
ENDMDL
MODEL 5
REMARK VINA RESULT:      -7.4      4.220      7.672
REMARK  Name = 
REMARK  7 active torsions:
REMARK  status: ('A' for Active; 'I' for Inactive)
REMARK    1  A    between atoms: C_1  and  C_2
REMARK    2  A    between atoms: C_5  and  C_6
REMARK    3  A    between atoms: C_6  and  O_8
REMARK    4  A    between atoms: C_10  and  C_11
REMARK    5  A    between atoms: C_11  and  C_12
REMARK    6  A    between atoms: C_12  and  N_13
REMARK    7  A    between atoms: C_22  and  O_23
REMARK                            x       y       z     vdW  Elec       q    Type
REMARK                         _______ _______ _______ _____ _____    ______ ____
ROOT
ATOM      1  C   UNL     1       1.848   8.399  18.046  0.00  0.00    +0.000 C 
ENDROOT
BRANCH   1   2
ATOM      2  N   UNL     1       1.616   9.557  18.969  0.00  0.00    +0.000 N 
ATOM      3  C   UNL     1       1.115   9.246  20.228  0.00  0.00    +0.000 A 
ATOM      4  N   UNL     1      -0.184   9.484  20.239  0.00  0.00    +0.000 NA
ATOM      5  C   UNL     1      -0.404  10.307  19.145  0.00  0.00    +0.000 A 
ATOM      6  C   UNL     1       0.829  10.651  18.631  0.00  0.00    +0.000 A 
ATOM      7  N   UNL     1       1.270  11.891  18.286  0.00  0.00    +0.000 N 
ATOM      8  C   UNL     1       0.485  13.015  18.548  0.00  0.00    +0.000 C 
ATOM      9  N   UNL     1      -0.779  13.219  18.496  0.00  0.00    +0.000 NA
ATOM     10  C   UNL     1      -1.626  12.164  17.934  0.00  0.00    +0.000 C 
ATOM     11  C   UNL     1      -1.731  10.876  18.778  0.00  0.00    +0.000 C 
ATOM     12  H   UNL     1       2.262  12.069  18.436  0.00  0.00    +0.000 HD
BRANCH  11  13
ATOM     13  O   UNL     1      -2.460   9.920  17.979  0.00  0.00    +0.000 OA
ATOM     14  H   UNL     1      -2.359   9.052  18.415  0.00  0.00    +0.000 HD
ENDBRANCH  11  13
ENDBRANCH   1   2
BRANCH   1  15
ATOM     15  C   UNL     1       2.567   7.222  18.765  0.00  0.00    +0.000 C 
BRANCH  15  22
ATOM     16  C   UNL     1       4.965   6.644  16.757  0.00  0.00    +0.000 C 
ATOM     17  C   UNL     1       4.037   5.600  17.301  0.00  0.00    +0.000 A 
ATOM     18  C   UNL     1       4.246   4.267  16.883  0.00  0.00    +0.000 A 
ATOM     19  C   UNL     1       3.414   3.223  17.295  0.00  0.00    +0.000 A 
ATOM     20  C   UNL     1       2.353   3.482  18.152  0.00  0.00    +0.000 A 
ATOM     21  C   UNL     1       2.139   4.798  18.585  0.00  0.00    +0.000 A 
ATOM     22  C   UNL     1       2.974   5.881  18.175  0.00  0.00    +0.000 A 
BRANCH  20  23
ATOM     23  C   UNL     1       1.462   2.351  18.513  0.00  0.00    +0.000 C 
ATOM     24  O   UNL     1       0.244   2.447  18.499  0.00  0.00    +0.000 OA
BRANCH  23  25
ATOM     25  O   UNL     1       2.097   1.204  18.826  0.00  0.00    +0.000 OA
ATOM     26  H   UNL     1       3.067   1.257  18.848  0.00  0.00    +0.000 HD
ENDBRANCH  23  25
ENDBRANCH  20  23
ENDBRANCH  15  22
ENDBRANCH   1  15
TORSDOF 6
ENDMDL
MODEL 6
REMARK VINA RESULT:      -7.3      1.450      1.660
REMARK  Name = 
REMARK  7 active torsions:
REMARK  status: ('A' for Active; 'I' for Inactive)
REMARK    1  A    between atoms: C_1  and  C_2
REMARK    2  A    between atoms: C_5  and  C_6
REMARK    3  A    between atoms: C_6  and  O_8
REMARK    4  A    between atoms: C_10  and  C_11
REMARK    5  A    between atoms: C_11  and  C_12
REMARK    6  A    between atoms: C_12  and  N_13
REMARK    7  A    between atoms: C_22  and  O_23
REMARK                            x       y       z     vdW  Elec       q    Type
REMARK                         _______ _______ _______ _____ _____    ______ ____
ROOT
ATOM      1  C   UNL     1       2.138   4.496  19.778  0.00  0.00    +0.000 C 
ENDROOT
BRANCH   1   2
ATOM      2  N   UNL     1       2.942   3.604  18.881  0.00  0.00    +0.000 N 
ATOM      3  C   UNL     1       3.534   2.501  19.486  0.00  0.00    +0.000 A 
ATOM      4  N   UNL     1       4.809   2.772  19.705  0.00  0.00    +0.000 NA
ATOM      5  C   UNL     1       5.089   3.854  18.886  0.00  0.00    +0.000 A 
ATOM      6  C   UNL     1       3.984   4.067  18.087  0.00  0.00    +0.000 A 
ATOM      7  N   UNL     1       3.955   4.256  16.741  0.00  0.00    +0.000 N 
ATOM      8  C   UNL     1       5.124   4.132  15.987  0.00  0.00    +0.000 C 
ATOM      9  N   UNL     1       6.341   4.458  16.219  0.00  0.00    +0.000 NA
ATOM     10  C   UNL     1       6.631   5.235  17.426  0.00  0.00    +0.000 C 
ATOM     11  C   UNL     1       6.433   4.486  18.761  0.00  0.00    +0.000 C 
ATOM     12  H   UNL     1       3.141   3.882  16.256  0.00  0.00    +0.000 HD
BRANCH  11  13
ATOM     13  O   UNL     1       6.603   5.464  19.810  0.00  0.00    +0.000 OA
ATOM     14  H   UNL     1       5.720   5.840  19.992  0.00  0.00    +0.000 HD
ENDBRANCH  11  13
ENDBRANCH   1   2
BRANCH   1  15
ATOM     15  C   UNL     1       2.811   5.885  19.965  0.00  0.00    +0.000 C 
BRANCH  15  22
ATOM     16  C   UNL     1       3.084   7.657  17.338  0.00  0.00    +0.000 C 
ATOM     17  C   UNL     1       2.298   8.048  18.553  0.00  0.00    +0.000 A 
ATOM     18  C   UNL     1       1.639   9.297  18.523  0.00  0.00    +0.000 A 
ATOM     19  C   UNL     1       0.915   9.778  19.616  0.00  0.00    +0.000 A 
ATOM     20  C   UNL     1       0.818   9.013  20.771  0.00  0.00    +0.000 A 
ATOM     21  C   UNL     1       1.457   7.767  20.813  0.00  0.00    +0.000 A 
ATOM     22  C   UNL     1       2.204   7.256  19.709  0.00  0.00    +0.000 A 
BRANCH  20  23
ATOM     23  C   UNL     1       0.088   9.594  21.927  0.00  0.00    +0.000 C 
ATOM     24  O   UNL     1      -0.689   8.939  22.606  0.00  0.00    +0.000 OA
BRANCH  23  25
ATOM     25  O   UNL     1       0.373  10.885  22.189  0.00  0.00    +0.000 OA
ATOM     26  H   UNL     1       1.249  11.049  22.578  0.00  0.00    +0.000 HD
ENDBRANCH  23  25
ENDBRANCH  20  23
ENDBRANCH  15  22
ENDBRANCH   1  15
TORSDOF 6
ENDMDL
MODEL 7
REMARK VINA RESULT:      -7.3      3.970      6.501
REMARK  Name = 
REMARK  7 active torsions:
REMARK  status: ('A' for Active; 'I' for Inactive)
REMARK    1  A    between atoms: C_1  and  C_2
REMARK    2  A    between atoms: C_5  and  C_6
REMARK    3  A    between atoms: C_6  and  O_8
REMARK    4  A    between atoms: C_10  and  C_11
REMARK    5  A    between atoms: C_11  and  C_12
REMARK    6  A    between atoms: C_12  and  N_13
REMARK    7  A    between atoms: C_22  and  O_23
REMARK                            x       y       z     vdW  Elec       q    Type
REMARK                         _______ _______ _______ _____ _____    ______ ____
ROOT
ATOM      1  C   UNL     1       2.882   6.818  18.157  0.00  0.00    +0.000 C 
ENDROOT
BRANCH   1   2
ATOM      2  N   UNL     1       2.029   5.868  18.941  0.00  0.00    +0.000 N 
ATOM      3  C   UNL     1       2.106   5.976  20.326  0.00  0.00    +0.000 A 
ATOM      4  N   UNL     1       2.899   5.023  20.782  0.00  0.00    +0.000 NA
ATOM      5  C   UNL     1       2.980   4.103  19.749  0.00  0.00    +0.000 A 
ATOM      6  C   UNL     1       2.080   4.490  18.778  0.00  0.00    +0.000 A 
ATOM      7  N   UNL     1       1.163   3.715  18.137  0.00  0.00    +0.000 N 
ATOM      8  C   UNL     1       0.973   2.386  18.522  0.00  0.00    +0.000 C 
ATOM      9  N   UNL     1       1.784   1.474  18.911  0.00  0.00    +0.000 NA
ATOM     10  C   UNL     1       3.220   1.751  18.842  0.00  0.00    +0.000 C 
ATOM     11  C   UNL     1       3.738   2.822  19.825  0.00  0.00    +0.000 C 
ATOM     12  H   UNL     1       0.288   4.174  17.888  0.00  0.00    +0.000 HD
BRANCH  11  13
ATOM     13  O   UNL     1       5.120   3.061  19.481  0.00  0.00    +0.000 OA
ATOM     14  H   UNL     1       5.662   2.585  20.140  0.00  0.00    +0.000 HD
ENDBRANCH  11  13
ENDBRANCH   1   2
BRANCH   1  15
ATOM     15  C   UNL     1       3.605   6.106  16.979  0.00  0.00    +0.000 C 
BRANCH  15  22
ATOM     16  C   UNL     1       4.888   4.183  14.794  0.00  0.00    +0.000 C 
ATOM     17  C   UNL     1       5.613   4.717  15.993  0.00  0.00    +0.000 A 
ATOM     18  C   UNL     1       6.961   4.328  16.160  0.00  0.00    +0.000 A 
ATOM     19  C   UNL     1       7.717   4.732  17.263  0.00  0.00    +0.000 A 
ATOM     20  C   UNL     1       7.147   5.552  18.228  0.00  0.00    +0.000 A 
ATOM     21  C   UNL     1       5.813   5.955  18.071  0.00  0.00    +0.000 A 
ATOM     22  C   UNL     1       5.022   5.553  16.954  0.00  0.00    +0.000 A 
BRANCH  20  23
ATOM     23  C   UNL     1       7.970   5.906  19.412  0.00  0.00    +0.000 C 
ATOM     24  O   UNL     1       8.006   5.209  20.415  0.00  0.00    +0.000 OA
BRANCH  23  25
ATOM     25  O   UNL     1       8.698   7.032  19.283  0.00  0.00    +0.000 OA
ATOM     26  H   UNL     1       9.662   6.909  19.288  0.00  0.00    +0.000 HD
ENDBRANCH  23  25
ENDBRANCH  20  23
ENDBRANCH  15  22
ENDBRANCH   1  15
TORSDOF 6
ENDMDL
MODEL 8
REMARK VINA RESULT:      -7.2      1.379      1.630
REMARK  Name = 
REMARK  7 active torsions:
REMARK  status: ('A' for Active; 'I' for Inactive)
REMARK    1  A    between atoms: C_1  and  C_2
REMARK    2  A    between atoms: C_5  and  C_6
REMARK    3  A    between atoms: C_6  and  O_8
REMARK    4  A    between atoms: C_10  and  C_11
REMARK    5  A    between atoms: C_11  and  C_12
REMARK    6  A    between atoms: C_12  and  N_13
REMARK    7  A    between atoms: C_22  and  O_23
REMARK                            x       y       z     vdW  Elec       q    Type
REMARK                         _______ _______ _______ _____ _____    ______ ____
ROOT
ATOM      1  C   UNL     1       1.848   5.169  20.504  0.00  0.00    +0.000 C 
ENDROOT
BRANCH   1   2
ATOM      2  N   UNL     1       2.329   4.140  19.525  0.00  0.00    +0.000 N 
ATOM      3  C   UNL     1       2.764   2.935  20.067  0.00  0.00    +0.000 A 
ATOM      4  N   UNL     1       4.085   2.941  20.110  0.00  0.00    +0.000 NA
ATOM      5  C   UNL     1       4.463   3.952  19.240  0.00  0.00    +0.000 A 
ATOM      6  C   UNL     1       3.327   4.389  18.591  0.00  0.00    +0.000 A 
ATOM      7  N   UNL     1       3.157   4.591  17.257  0.00  0.00    +0.000 N 
ATOM      8  C   UNL     1       4.165   4.240  16.358  0.00  0.00    +0.000 C 
ATOM      9  N   UNL     1       5.443   4.311  16.419  0.00  0.00    +0.000 NA
ATOM     10  C   UNL     1       6.041   5.004  17.562  0.00  0.00    +0.000 C 
ATOM     11  C   UNL     1       5.878   4.300  18.926  0.00  0.00    +0.000 C 
ATOM     12  H   UNL     1       2.227   4.393  16.892  0.00  0.00    +0.000 HD
BRANCH  11  13
ATOM     13  O   UNL     1       6.380   5.215  19.923  0.00  0.00    +0.000 OA
ATOM     14  H   UNL     1       5.892   6.053  19.810  0.00  0.00    +0.000 HD
ENDBRANCH  11  13
ENDBRANCH   1   2
BRANCH   1  15
ATOM     15  C   UNL     1       2.452   6.571  20.211  0.00  0.00    +0.000 C 
BRANCH  15  22
ATOM     16  C   UNL     1       2.192   8.478  17.679  0.00  0.00    +0.000 C 
ATOM     17  C   UNL     1       1.579   8.751  19.020  0.00  0.00    +0.000 A 
ATOM     18  C   UNL     1       0.838   9.946  19.162  0.00  0.00    +0.000 A 
ATOM     19  C   UNL     1       0.261  10.319  20.378  0.00  0.00    +0.000 A 
ATOM     20  C   UNL     1       0.397   9.496  21.488  0.00  0.00    +0.000 A 
ATOM     21  C   UNL     1       1.120   8.302  21.360  0.00  0.00    +0.000 A 
ATOM     22  C   UNL     1       1.720   7.901  20.129  0.00  0.00    +0.000 A 
BRANCH  20  23
ATOM     23  C   UNL     1      -0.183   9.964  22.772  0.00  0.00    +0.000 C 
ATOM     24  O   UNL     1      -1.214  10.617  22.825  0.00  0.00    +0.000 OA
BRANCH  23  25
ATOM     25  O   UNL     1       0.496   9.588  23.874  0.00  0.00    +0.000 OA
ATOM     26  H   UNL     1       0.107   9.867  24.720  0.00  0.00    +0.000 HD
ENDBRANCH  23  25
ENDBRANCH  20  23
ENDBRANCH  15  22
ENDBRANCH   1  15
TORSDOF 6
ENDMDL
MODEL 9
REMARK VINA RESULT:      -7.2      4.088      7.478
REMARK  Name = 
REMARK  7 active torsions:
REMARK  status: ('A' for Active; 'I' for Inactive)
REMARK    1  A    between atoms: C_1  and  C_2
REMARK    2  A    between atoms: C_5  and  C_6
REMARK    3  A    between atoms: C_6  and  O_8
REMARK    4  A    between atoms: C_10  and  C_11
REMARK    5  A    between atoms: C_11  and  C_12
REMARK    6  A    between atoms: C_12  and  N_13
REMARK    7  A    between atoms: C_22  and  O_23
REMARK                            x       y       z     vdW  Elec       q    Type
REMARK                         _______ _______ _______ _____ _____    ______ ____
ROOT
ATOM      1  C   UNL     1       1.865   8.287  18.916  0.00  0.00    +0.000 C 
ENDROOT
BRANCH   1   2
ATOM      2  N   UNL     1       1.265   9.436  18.162  0.00  0.00    +0.000 N 
ATOM      3  C   UNL     1       2.126  10.483  17.853  0.00  0.00    +0.000 A 
ATOM      4  N   UNL     1       1.933  11.461  18.720  0.00  0.00    +0.000 NA
ATOM      5  C   UNL     1       0.701  11.189  19.294  0.00  0.00    +0.000 A 
ATOM      6  C   UNL     1       0.146  10.131  18.603  0.00  0.00    +0.000 A 
ATOM      7  N   UNL     1      -1.118  10.032  18.110  0.00  0.00    +0.000 N 
ATOM      8  C   UNL     1      -1.986  11.122  18.173  0.00  0.00    +0.000 C 
ATOM      9  N   UNL     1      -2.179  12.024  19.063  0.00  0.00    +0.000 NA
ATOM     10  C   UNL     1      -1.494  11.883  20.350  0.00  0.00    +0.000 C 
ATOM     11  C   UNL     1       0.039  12.057  20.308  0.00  0.00    +0.000 C 
ATOM     12  H   UNL     1      -1.216   9.509  17.240  0.00  0.00    +0.000 HD
BRANCH  11  13
ATOM     13  O   UNL     1       0.526  11.716  21.624  0.00  0.00    +0.000 OA
ATOM     14  H   UNL     1      -0.246  11.418  22.143  0.00  0.00    +0.000 HD
ENDBRANCH  11  13
ENDBRANCH   1   2
BRANCH   1  15
ATOM     15  C   UNL     1       2.929   7.534  18.069  0.00  0.00    +0.000 C 
BRANCH  15  22
ATOM     16  C   UNL     1       5.145   6.008  16.373  0.00  0.00    +0.000 C 
ATOM     17  C   UNL     1       4.039   5.338  17.132  0.00  0.00    +0.000 A 
ATOM     18  C   UNL     1       3.981   3.927  17.080  0.00  0.00    +0.000 A 
ATOM     19  C   UNL     1       2.968   3.204  17.714  0.00  0.00    +0.000 A 
ATOM     20  C   UNL     1       1.988   3.875  18.434  0.00  0.00    +0.000 A 
ATOM     21  C   UNL     1       2.038   5.274  18.504  0.00  0.00    +0.000 A 
ATOM     22  C   UNL     1       3.062   6.034  17.862  0.00  0.00    +0.000 A 
BRANCH  20  23
ATOM     23  C   UNL     1       0.899   3.068  19.039  0.00  0.00    +0.000 C 
ATOM     24  O   UNL     1       0.337   2.167  18.433  0.00  0.00    +0.000 OA
BRANCH  23  25
ATOM     25  O   UNL     1       0.600   3.381  20.315  0.00  0.00    +0.000 OA
ATOM     26  H   UNL     1       1.334   3.744  20.839  0.00  0.00    +0.000 HD
ENDBRANCH  23  25
ENDBRANCH  20  23
ENDBRANCH  15  22
ENDBRANCH   1  15
TORSDOF 6
ENDMDL
