MODEL 1
REMARK VINA RESULT:      -6.6      0.000      0.000
REMARK  Name = 
REMARK  6 active torsions:
REMARK  status: ('A' for Active; 'I' for Inactive)
REMARK    1  A    between atoms: C_1  and  C_2
REMARK    2  A    between atoms: C_2  and  C_3
REMARK    3  A    between atoms: C_5  and  C_6
REMARK    4  A    between atoms: C_6  and  N_7
REMARK    5  A    between atoms: C_11  and  C_12
REMARK    6  A    between atoms: N_14  and  C_15
REMARK                            x       y       z     vdW  Elec       q    Type
REMARK                         _______ _______ _______ _____ _____    ______ ____
ROOT
ATOM      1  N   UNL     1       3.278   3.868  20.268  0.00  0.00    +0.000 NA
ATOM      2  C   UNL     1       2.679   3.195  21.419  0.00  0.00    +0.000 C 
ATOM      3  C   UNL     1       1.229   2.935  21.061  0.00  0.00    +0.000 C 
ATOM      4  C   UNL     1       0.862   4.069  20.123  0.00  0.00    +0.000 C 
ATOM      5  C   UNL     1       2.185   4.576  19.543  0.00  0.00    +0.000 C 
ENDROOT
BRANCH   5   6
ATOM      6  C   UNL     1       2.302   6.103  19.783  0.00  0.00    +0.000 C 
ATOM      7  O   UNL     1       3.014   6.833  19.088  0.00  0.00    +0.000 OA
ATOM      8  N   UNL     1       1.528   6.565  20.827  0.00  0.00    +0.000 N 
ATOM      9  C   UNL     1       1.410   7.952  21.184  0.00  0.00    +0.000 C 
ATOM     10  H   UNL     1       0.960   5.853  21.285  0.00  0.00    +0.000 HD
ENDBRANCH   5   6
BRANCH   1  11
ATOM     11  C   UNL     1       4.138   3.039  19.409  0.00  0.00    +0.000 C 
BRANCH  11  14
ATOM     12  C   UNL     1       6.744   5.241  18.221  0.00  0.00    +0.000 A 
ATOM     13  N   UNL     1       6.101   4.544  19.131  0.00  0.00    +0.000 NA
ATOM     14  C   UNL     1       5.081   3.816  18.540  0.00  0.00    +0.000 A 
ATOM     15  C   UNL     1       5.039   3.906  17.159  0.00  0.00    +0.000 A 
ATOM     16  S   UNL     1       6.247   4.979  16.598  0.00  0.00    +0.000 S 
BRANCH  12  18
ATOM     17  C   UNL     1       7.607   7.473  17.616  0.00  0.00    +0.000 C 
ATOM     18  C   UNL     1       7.773   6.277  18.542  0.00  0.00    +0.000 C 
ENDBRANCH  12  18
ENDBRANCH  11  14
ENDBRANCH   1  11
TORSDOF 4
ENDMDL
MODEL 2
REMARK VINA RESULT:      -6.6      2.427      5.886
REMARK  Name = 
REMARK  6 active torsions:
REMARK  status: ('A' for Active; 'I' for Inactive)
REMARK    1  A    between atoms: C_1  and  C_2
REMARK    2  A    between atoms: C_2  and  C_3
REMARK    3  A    between atoms: C_5  and  C_6
REMARK    4  A    between atoms: C_6  and  N_7
REMARK    5  A    between atoms: C_11  and  C_12
REMARK    6  A    between atoms: N_14  and  C_15
REMARK                            x       y       z     vdW  Elec       q    Type
REMARK                         _______ _______ _______ _____ _____    ______ ____
ROOT
ATOM      1  N   UNL     1       6.222   5.299  18.108  0.00  0.00    +0.000 NA
ATOM      2  C   UNL     1       7.648   5.400  18.411  0.00  0.00    +0.000 C 
ATOM      3  C   UNL     1       7.991   6.876  18.386  0.00  0.00    +0.000 C 
ATOM      4  C   UNL     1       7.025   7.472  17.380  0.00  0.00    +0.000 C 
ATOM      5  C   UNL     1       5.849   6.497  17.303  0.00  0.00    +0.000 C 
ENDROOT
BRANCH   5   6
ATOM      6  C   UNL     1       5.616   6.084  15.827  0.00  0.00    +0.000 C 
ATOM      7  O   UNL     1       5.137   6.852  14.988  0.00  0.00    +0.000 OA
ATOM      8  N   UNL     1       6.005   4.792  15.541  0.00  0.00    +0.000 N 
ATOM      9  C   UNL     1       5.962   4.215  14.225  0.00  0.00    +0.000 C 
ATOM     10  H   UNL     1       6.421   4.288  16.324  0.00  0.00    +0.000 HD
ENDBRANCH   5   6
BRANCH   1  11
ATOM     11  C   UNL     1       5.334   5.035  19.250  0.00  0.00    +0.000 C 
BRANCH  11  14
ATOM     12  C   UNL     1       2.189   3.262  19.383  0.00  0.00    +0.000 A 
ATOM     13  N   UNL     1       3.043   4.194  19.741  0.00  0.00    +0.000 NA
ATOM     14  C   UNL     1       4.173   4.138  18.941  0.00  0.00    +0.000 A 
ATOM     15  C   UNL     1       4.102   3.212  17.914  0.00  0.00    +0.000 A 
ATOM     16  S   UNL     1       2.630   2.344  18.000  0.00  0.00    +0.000 S 
BRANCH  12  18
ATOM     17  C   UNL     1       1.310   2.702  21.620  0.00  0.00    +0.000 C 
ATOM     18  C   UNL     1       0.956   2.923  20.157  0.00  0.00    +0.000 C 
ENDBRANCH  12  18
ENDBRANCH  11  14
ENDBRANCH   1  11
TORSDOF 4
ENDMDL
MODEL 3
REMARK VINA RESULT:      -6.4      2.803      6.119
REMARK  Name = 
REMARK  6 active torsions:
REMARK  status: ('A' for Active; 'I' for Inactive)
REMARK    1  A    between atoms: C_1  and  C_2
REMARK    2  A    between atoms: C_2  and  C_3
REMARK    3  A    between atoms: C_5  and  C_6
REMARK    4  A    between atoms: C_6  and  N_7
REMARK    5  A    between atoms: C_11  and  C_12
REMARK    6  A    between atoms: N_14  and  C_15
REMARK                            x       y       z     vdW  Elec       q    Type
REMARK                         _______ _______ _______ _____ _____    ______ ____
ROOT
ATOM      1  N   UNL     1       5.682   5.300  17.571  0.00  0.00    +0.000 NA
ATOM      2  C   UNL     1       6.651   5.081  18.643  0.00  0.00    +0.000 C 
ATOM      3  C   UNL     1       7.553   6.299  18.666  0.00  0.00    +0.000 C 
ATOM      4  C   UNL     1       7.579   6.778  17.226  0.00  0.00    +0.000 C 
ATOM      5  C   UNL     1       6.312   6.216  16.578  0.00  0.00    +0.000 C 
ENDROOT
BRANCH   5   6
ATOM      6  C   UNL     1       6.693   5.421  15.302  0.00  0.00    +0.000 C 
ATOM      7  O   UNL     1       7.826   5.450  14.814  0.00  0.00    +0.000 OA
ATOM      8  N   UNL     1       5.659   4.674  14.780  0.00  0.00    +0.000 N 
ATOM      9  C   UNL     1       5.796   3.794  13.652  0.00  0.00    +0.000 C 
ATOM     10  H   UNL     1       4.790   4.716  15.313  0.00  0.00    +0.000 HD
ENDBRANCH   5   6
BRANCH   1  11
ATOM     11  C   UNL     1       4.330   5.699  17.993  0.00  0.00    +0.000 C 
BRANCH  11  14
ATOM     12  C   UNL     1       1.874   3.438  19.374  0.00  0.00    +0.000 A 
ATOM     13  N   UNL     1       2.542   4.568  19.304  0.00  0.00    +0.000 NA
ATOM     14  C   UNL     1       3.382   4.557  18.201  0.00  0.00    +0.000 A 
ATOM     15  C   UNL     1       3.254   3.439  17.395  0.00  0.00    +0.000 A 
ATOM     16  S   UNL     1       2.120   2.349  18.068  0.00  0.00    +0.000 S 
BRANCH  12  18
ATOM     17  C   UNL     1       1.901   2.859  21.773  0.00  0.00    +0.000 C 
ATOM     18  C   UNL     1       1.027   3.044  20.541  0.00  0.00    +0.000 C 
ENDBRANCH  12  18
ENDBRANCH  11  14
ENDBRANCH   1  11
TORSDOF 4
ENDMDL
MODEL 4
REMARK VINA RESULT:      -6.3      1.304      1.883
REMARK  Name = 
REMARK  6 active torsions:
REMARK  status: ('A' for Active; 'I' for Inactive)
REMARK    1  A    between atoms: C_1  and  C_2
REMARK    2  A    between atoms: C_2  and  C_3
REMARK    3  A    between atoms: C_5  and  C_6
REMARK    4  A    between atoms: C_6  and  N_7
REMARK    5  A    between atoms: C_11  and  C_12
REMARK    6  A    between atoms: N_14  and  C_15
REMARK                            x       y       z     vdW  Elec       q    Type
REMARK                         _______ _______ _______ _____ _____    ______ ____
ROOT
ATOM      1  N   UNL     1       3.275   3.929  20.229  0.00  0.00    +0.000 NA
ATOM      2  C   UNL     1       2.704   3.263  21.398  0.00  0.00    +0.000 C 
ATOM      3  C   UNL     1       1.250   2.986  21.071  0.00  0.00    +0.000 C 
ATOM      4  C   UNL     1       0.855   4.107  20.128  0.00  0.00    +0.000 C 
ATOM      5  C   UNL     1       2.162   4.619  19.518  0.00  0.00    +0.000 C 
ENDROOT
BRANCH   5   6
ATOM      6  C   UNL     1       2.269   6.150  19.738  0.00  0.00    +0.000 C 
ATOM      7  O   UNL     1       2.927   6.885  18.998  0.00  0.00    +0.000 OA
ATOM      8  N   UNL     1       1.553   6.609  20.824  0.00  0.00    +0.000 N 
ATOM      9  C   UNL     1       1.435   7.997  21.177  0.00  0.00    +0.000 C 
ATOM     10  H   UNL     1       1.024   5.893  21.320  0.00  0.00    +0.000 HD
ENDBRANCH   5   6
BRANCH   1  11
ATOM     11  C   UNL     1       4.126   3.099  19.362  0.00  0.00    +0.000 C 
BRANCH  11  14
ATOM     12  C   UNL     1       5.461   4.372  16.256  0.00  0.00    +0.000 A 
ATOM     13  N   UNL     1       4.599   3.711  16.996  0.00  0.00    +0.000 NA
ATOM     14  C   UNL     1       4.907   3.867  18.339  0.00  0.00    +0.000 A 
ATOM     15  C   UNL     1       5.954   4.737  18.589  0.00  0.00    +0.000 A 
ATOM     16  S   UNL     1       6.613   5.310  17.118  0.00  0.00    +0.000 S 
BRANCH  12  18
ATOM     17  C   UNL     1       6.878   4.776  14.276  0.00  0.00    +0.000 C 
ATOM     18  C   UNL     1       5.533   4.263  14.767  0.00  0.00    +0.000 C 
ENDBRANCH  12  18
ENDBRANCH  11  14
ENDBRANCH   1  11
TORSDOF 4
ENDMDL
MODEL 5
REMARK VINA RESULT:      -6.2      2.761      5.674
REMARK  Name = 
REMARK  6 active torsions:
REMARK  status: ('A' for Active; 'I' for Inactive)
REMARK    1  A    between atoms: C_1  and  C_2
REMARK    2  A    between atoms: C_2  and  C_3
REMARK    3  A    between atoms: C_5  and  C_6
REMARK    4  A    between atoms: C_6  and  N_7
REMARK    5  A    between atoms: C_11  and  C_12
REMARK    6  A    between atoms: N_14  and  C_15
REMARK                            x       y       z     vdW  Elec       q    Type
REMARK                         _______ _______ _______ _____ _____    ______ ____
ROOT
ATOM      1  N   UNL     1       5.196   5.803  16.903  0.00  0.00    +0.000 NA
ATOM      2  C   UNL     1       5.339   6.135  15.486  0.00  0.00    +0.000 C 
ATOM      3  C   UNL     1       5.419   4.818  14.740  0.00  0.00    +0.000 C 
ATOM      4  C   UNL     1       6.063   3.863  15.727  0.00  0.00    +0.000 C 
ATOM      5  C   UNL     1       5.809   4.460  17.112  0.00  0.00    +0.000 C 
ENDROOT
BRANCH   5   6
ATOM      6  C   UNL     1       7.156   4.612  17.865  0.00  0.00    +0.000 C 
ATOM      7  O   UNL     1       8.222   4.182  17.416  0.00  0.00    +0.000 OA
ATOM      8  N   UNL     1       7.052   5.282  19.066  0.00  0.00    +0.000 N 
ATOM      9  C   UNL     1       8.175   5.614  19.898  0.00  0.00    +0.000 C 
ATOM     10  H   UNL     1       6.114   5.615  19.289  0.00  0.00    +0.000 HD
ENDBRANCH   5   6
BRANCH   1  11
ATOM     11  C   UNL     1       3.846   5.948  17.469  0.00  0.00    +0.000 C 
BRANCH  11  14
ATOM     12  C   UNL     1       2.797   3.248  19.627  0.00  0.00    +0.000 A 
ATOM     13  N   UNL     1       3.248   4.455  19.369  0.00  0.00    +0.000 NA
ATOM     14  C   UNL     1       3.254   4.678  18.000  0.00  0.00    +0.000 A 
ATOM     15  C   UNL     1       2.705   3.651  17.251  0.00  0.00    +0.000 A 
ATOM     16  S   UNL     1       2.244   2.355  18.267  0.00  0.00    +0.000 S 
BRANCH  12  18
ATOM     17  C   UNL     1       1.513   2.844  21.696  0.00  0.00    +0.000 C 
ATOM     18  C   UNL     1       2.838   2.618  20.983  0.00  0.00    +0.000 C 
ENDBRANCH  12  18
ENDBRANCH  11  14
ENDBRANCH   1  11
TORSDOF 4
ENDMDL
MODEL 6
REMARK VINA RESULT:      -6.2      2.573      6.233
REMARK  Name = 
REMARK  6 active torsions:
REMARK  status: ('A' for Active; 'I' for Inactive)
REMARK    1  A    between atoms: C_1  and  C_2
REMARK    2  A    between atoms: C_2  and  C_3
REMARK    3  A    between atoms: C_5  and  C_6
REMARK    4  A    between atoms: C_6  and  N_7
REMARK    5  A    between atoms: C_11  and  C_12
REMARK    6  A    between atoms: N_14  and  C_15
REMARK                            x       y       z     vdW  Elec       q    Type
REMARK                         _______ _______ _______ _____ _____    ______ ____
ROOT
ATOM      1  N   UNL     1       6.291   5.430  18.390  0.00  0.00    +0.000 NA
ATOM      2  C   UNL     1       7.537   5.700  19.105  0.00  0.00    +0.000 C 
ATOM      3  C   UNL     1       8.065   7.016  18.571  0.00  0.00    +0.000 C 
ATOM      4  C   UNL     1       7.576   7.066  17.136  0.00  0.00    +0.000 C 
ATOM      5  C   UNL     1       6.370   6.126  17.074  0.00  0.00    +0.000 C 
ENDROOT
BRANCH   5   6
ATOM      6  C   UNL     1       6.584   5.086  15.944  0.00  0.00    +0.000 C 
ATOM      7  O   UNL     1       6.178   3.923  16.024  0.00  0.00    +0.000 OA
ATOM      8  N   UNL     1       7.251   5.586  14.846  0.00  0.00    +0.000 N 
ATOM      9  C   UNL     1       7.492   4.834  13.645  0.00  0.00    +0.000 C 
ATOM     10  H   UNL     1       7.490   6.575  14.905  0.00  0.00    +0.000 HD
ENDBRANCH   5   6
BRANCH   1  11
ATOM     11  C   UNL     1       5.048   5.682  19.136  0.00  0.00    +0.000 C 
BRANCH  11  14
ATOM     12  C   UNL     1       2.287   3.489  19.921  0.00  0.00    +0.000 A 
ATOM     13  N   UNL     1       2.897   4.651  19.846  0.00  0.00    +0.000 NA
ATOM     14  C   UNL     1       4.126   4.503  19.222  0.00  0.00    +0.000 A 
ATOM     15  C   UNL     1       4.376   3.228  18.745  0.00  0.00    +0.000 A 
ATOM     16  S   UNL     1       3.087   2.180  19.151  0.00  0.00    +0.000 S 
BRANCH  12  18
ATOM     17  C   UNL     1       1.341   2.436  21.944  0.00  0.00    +0.000 C 
ATOM     18  C   UNL     1       1.032   3.259  20.701  0.00  0.00    +0.000 C 
ENDBRANCH  12  18
ENDBRANCH  11  14
ENDBRANCH   1  11
TORSDOF 4
ENDMDL
MODEL 7
REMARK VINA RESULT:      -6.2      1.518      1.663
REMARK  Name = 
REMARK  6 active torsions:
REMARK  status: ('A' for Active; 'I' for Inactive)
REMARK    1  A    between atoms: C_1  and  C_2
REMARK    2  A    between atoms: C_2  and  C_3
REMARK    3  A    between atoms: C_5  and  C_6
REMARK    4  A    between atoms: C_6  and  N_7
REMARK    5  A    between atoms: C_11  and  C_12
REMARK    6  A    between atoms: N_14  and  C_15
REMARK                            x       y       z     vdW  Elec       q    Type
REMARK                         _______ _______ _______ _____ _____    ______ ____
ROOT
ATOM      1  N   UNL     1       3.232   4.117  19.449  0.00  0.00    +0.000 NA
ATOM      2  C   UNL     1       2.112   3.238  19.778  0.00  0.00    +0.000 C 
ATOM      3  C   UNL     1       1.307   3.069  18.505  0.00  0.00    +0.000 C 
ATOM      4  C   UNL     1       1.513   4.369  17.751  0.00  0.00    +0.000 C 
ATOM      5  C   UNL     1       2.813   4.966  18.297  0.00  0.00    +0.000 C 
ENDROOT
BRANCH   5   6
ATOM      6  C   UNL     1       2.552   6.415  18.782  0.00  0.00    +0.000 C 
ATOM      7  O   UNL     1       2.417   6.704  19.974  0.00  0.00    +0.000 OA
ATOM      8  N   UNL     1       2.501   7.343  17.763  0.00  0.00    +0.000 N 
ATOM      9  C   UNL     1       2.352   8.757  17.975  0.00  0.00    +0.000 C 
ATOM     10  H   UNL     1       2.669   6.965  16.832  0.00  0.00    +0.000 HD
ENDBRANCH   5   6
BRANCH   1  11
ATOM     11  C   UNL     1       4.539   3.464  19.277  0.00  0.00    +0.000 C 
BRANCH  11  14
ATOM     12  C   UNL     1       7.109   5.774  18.222  0.00  0.00    +0.000 A 
ATOM     13  N   UNL     1       6.412   5.096  19.106  0.00  0.00    +0.000 NA
ATOM     14  C   UNL     1       5.523   4.248  18.462  0.00  0.00    +0.000 A 
ATOM     15  C   UNL     1       5.642   4.235  17.083  0.00  0.00    +0.000 A 
ATOM     16  S   UNL     1       6.831   5.357  16.579  0.00  0.00    +0.000 S 
BRANCH  12  18
ATOM     17  C   UNL     1       7.791   8.067  17.614  0.00  0.00    +0.000 C 
ATOM     18  C   UNL     1       8.017   6.909  18.574  0.00  0.00    +0.000 C 
ENDBRANCH  12  18
ENDBRANCH  11  14
ENDBRANCH   1  11
TORSDOF 4
ENDMDL
MODEL 8
REMARK VINA RESULT:      -6.1      3.104      6.324
REMARK  Name = 
REMARK  6 active torsions:
REMARK  status: ('A' for Active; 'I' for Inactive)
REMARK    1  A    between atoms: C_1  and  C_2
REMARK    2  A    between atoms: C_2  and  C_3
REMARK    3  A    between atoms: C_5  and  C_6
REMARK    4  A    between atoms: C_6  and  N_7
REMARK    5  A    between atoms: C_11  and  C_12
REMARK    6  A    between atoms: N_14  and  C_15
REMARK                            x       y       z     vdW  Elec       q    Type
REMARK                         _______ _______ _______ _____ _____    ______ ____
ROOT
ATOM      1  N   UNL     1       5.342   4.922  17.118  0.00  0.00    +0.000 NA
ATOM      2  C   UNL     1       6.159   4.642  18.297  0.00  0.00    +0.000 C 
ATOM      3  C   UNL     1       7.157   5.778  18.410  0.00  0.00    +0.000 C 
ATOM      4  C   UNL     1       7.389   6.221  16.978  0.00  0.00    +0.000 C 
ATOM      5  C   UNL     1       6.160   5.757  16.193  0.00  0.00    +0.000 C 
ENDROOT
BRANCH   5   6
ATOM      6  C   UNL     1       6.612   4.905  14.980  0.00  0.00    +0.000 C 
ATOM      7  O   UNL     1       6.197   3.761  14.778  0.00  0.00    +0.000 OA
ATOM      8  N   UNL     1       7.505   5.548  14.149  0.00  0.00    +0.000 N 
ATOM      9  C   UNL     1       8.000   4.990  12.920  0.00  0.00    +0.000 C 
ATOM     10  H   UNL     1       7.727   6.505  14.420  0.00  0.00    +0.000 HD
ENDBRANCH   5   6
BRANCH   1  11
ATOM     11  C   UNL     1       3.991   5.446  17.375  0.00  0.00    +0.000 C 
BRANCH  11  14
ATOM     12  C   UNL     1       1.748   3.622  19.542  0.00  0.00    +0.000 A 
ATOM     13  N   UNL     1       2.468   4.661  19.181  0.00  0.00    +0.000 NA
ATOM     14  C   UNL     1       3.030   4.440  17.933  0.00  0.00    +0.000 A 
ATOM     15  C   UNL     1       2.635   3.259  17.328  0.00  0.00    +0.000 A 
ATOM     16  S   UNL     1       1.605   2.376  18.369  0.00  0.00    +0.000 S 
BRANCH  12  18
ATOM     17  C   UNL     1       2.167   2.760  21.816  0.00  0.00    +0.000 C 
ATOM     18  C   UNL     1       1.162   3.451  20.907  0.00  0.00    +0.000 C 
ENDBRANCH  12  18
ENDBRANCH  11  14
ENDBRANCH   1  11
TORSDOF 4
ENDMDL
MODEL 9
REMARK VINA RESULT:      -6.1      2.517      6.062
REMARK  Name = 
REMARK  6 active torsions:
REMARK  status: ('A' for Active; 'I' for Inactive)
REMARK    1  A    between atoms: C_1  and  C_2
REMARK    2  A    between atoms: C_2  and  C_3
REMARK    3  A    between atoms: C_5  and  C_6
REMARK    4  A    between atoms: C_6  and  N_7
REMARK    5  A    between atoms: C_11  and  C_12
REMARK    6  A    between atoms: N_14  and  C_15
REMARK                            x       y       z     vdW  Elec       q    Type
REMARK                         _______ _______ _______ _____ _____    ______ ____
ROOT
ATOM      1  N   UNL     1       5.891   5.430  18.492  0.00  0.00    +0.000 NA
ATOM      2  C   UNL     1       7.148   5.464  19.238  0.00  0.00    +0.000 C 
ATOM      3  C   UNL     1       7.947   6.627  18.683  0.00  0.00    +0.000 C 
ATOM      4  C   UNL     1       7.512   6.727  17.233  0.00  0.00    +0.000 C 
ATOM      5  C   UNL     1       6.142   6.050  17.160  0.00  0.00    +0.000 C 
ENDROOT
BRANCH   5   6
ATOM      6  C   UNL     1       6.165   4.951  16.068  0.00  0.00    +0.000 C 
ATOM      7  O   UNL     1       5.708   3.820  16.250  0.00  0.00    +0.000 OA
ATOM      8  N   UNL     1       6.728   5.361  14.877  0.00  0.00    +0.000 N 
ATOM      9  C   UNL     1       6.786   4.544  13.696  0.00  0.00    +0.000 C 
ATOM     10  H   UNL     1       7.026   6.335  14.858  0.00  0.00    +0.000 HD
ENDBRANCH   5   6
BRANCH   1  11
ATOM     11  C   UNL     1       4.708   5.954  19.193  0.00  0.00    +0.000 C 
BRANCH  11  14
ATOM     12  C   UNL     1       1.828   3.823  19.659  0.00  0.00    +0.000 A 
ATOM     13  N   UNL     1       2.837   4.561  20.063  0.00  0.00    +0.000 NA
ATOM     14  C   UNL     1       3.455   5.161  18.976  0.00  0.00    +0.000 A 
ATOM     15  C   UNL     1       2.825   4.935  17.764  0.00  0.00    +0.000 A 
ATOM     16  S   UNL     1       1.485   3.894  17.977  0.00  0.00    +0.000 S 
BRANCH  12  18
ATOM     17  C   UNL     1       1.864   2.634  21.821  0.00  0.00    +0.000 C 
ATOM     18  C   UNL     1       1.070   2.893  20.550  0.00  0.00    +0.000 C 
ENDBRANCH  12  18
ENDBRANCH  11  14
ENDBRANCH   1  11
TORSDOF 4
ENDMDL
