MODEL 1
REMARK VINA RESULT:      -7.1      0.000      0.000
REMARK  Name = 
REMARK  6 active torsions:
REMARK  status: ('A' for Active; 'I' for Inactive)
REMARK    1  A    between atoms: C_2  and  C_3
REMARK    2  A    between atoms: C_7  and  C_8
REMARK    3  A    between atoms: C_8  and  C_9
REMARK    4  A    between atoms: C_9  and  S_10
REMARK    5  A    between atoms: S_10  and  C_11
REMARK    6  A    between atoms: N_17  and  O_18
REMARK                            x       y       z     vdW  Elec       q    Type
REMARK                         _______ _______ _______ _____ _____    ______ ____
ROOT
ATOM      1  C   UNL     1       5.810   4.693  18.602  0.00  0.00    +0.000 C 
ATOM      2  N   UNL     1       6.357   5.167  19.692  0.00  0.00    +0.000 NA
ENDROOT
BRANCH   1   7
ATOM      3  C   UNL     1       2.430   3.652  19.982  0.00  0.00    +0.000 A 
ATOM      4  C   UNL     1       1.562   4.004  18.947  0.00  0.00    +0.000 A 
ATOM      5  C   UNL     1       2.071   4.544  17.765  0.00  0.00    +0.000 A 
ATOM      6  C   UNL     1       3.449   4.749  17.616  0.00  0.00    +0.000 A 
ATOM      7  C   UNL     1       4.321   4.464  18.671  0.00  0.00    +0.000 A 
ATOM      8  C   UNL     1       3.800   3.889  19.845  0.00  0.00    +0.000 A 
BRANCH   3  10
ATOM      9  N   UNL     1       1.516   2.544  22.143  0.00  0.00    +0.000 NA
ATOM     10  C   UNL     1       1.918   3.042  21.178  0.00  0.00    +0.000 C 
ENDBRANCH   3  10
ENDBRANCH   1   7
BRANCH   2  11
ATOM     11  O   UNL     1       7.740   5.321  19.578  0.00  0.00    +0.000 OA
ATOM     12  H   UNL     1       7.842   6.292  19.569  0.00  0.00    +0.000 HD
ENDBRANCH   2  11
BRANCH   1  13
ATOM     13  C   UNL     1       6.647   4.359  17.357  0.00  0.00    +0.000 C 
BRANCH  13  14
ATOM     14  S   UNL     1       6.940   5.747  16.215  0.00  0.00    +0.000 S 
BRANCH  14  15
ATOM     15  C   UNL     1       6.651   5.027  14.599  0.00  0.00    +0.000 A 
ATOM     16  C   UNL     1       7.590   5.302  13.594  0.00  0.00    +0.000 A 
ATOM     17  C   UNL     1       7.530   4.651  12.357  0.00  0.00    +0.000 A 
ATOM     18  C   UNL     1       6.529   3.718  12.110  0.00  0.00    +0.000 A 
ATOM     19  C   UNL     1       5.570   3.460  13.087  0.00  0.00    +0.000 A 
ATOM     20  C   UNL     1       5.628   4.112  14.325  0.00  0.00    +0.000 A 
ENDBRANCH  14  15
ENDBRANCH  13  14
ENDBRANCH   1  13
TORSDOF 6
ENDMDL
MODEL 2
REMARK VINA RESULT:      -7.0      2.264      6.517
REMARK  Name = 
REMARK  6 active torsions:
REMARK  status: ('A' for Active; 'I' for Inactive)
REMARK    1  A    between atoms: C_2  and  C_3
REMARK    2  A    between atoms: C_7  and  C_8
REMARK    3  A    between atoms: C_8  and  C_9
REMARK    4  A    between atoms: C_9  and  S_10
REMARK    5  A    between atoms: S_10  and  C_11
REMARK    6  A    between atoms: N_17  and  O_18
REMARK                            x       y       z     vdW  Elec       q    Type
REMARK                         _______ _______ _______ _____ _____    ______ ____
ROOT
ATOM      1  C   UNL     1       6.458   5.037  18.447  0.00  0.00    +0.000 C 
ATOM      2  N   UNL     1       7.702   5.069  18.853  0.00  0.00    +0.000 NA
ENDROOT
BRANCH   1   7
ATOM      3  C   UNL     1       7.006   4.876  14.693  0.00  0.00    +0.000 A 
ATOM      4  C   UNL     1       6.016   3.981  14.284  0.00  0.00    +0.000 A 
ATOM      5  C   UNL     1       5.126   3.452  15.219  0.00  0.00    +0.000 A 
ATOM      6  C   UNL     1       5.229   3.803  16.571  0.00  0.00    +0.000 A 
ATOM      7  C   UNL     1       6.258   4.644  17.005  0.00  0.00    +0.000 A 
ATOM      8  C   UNL     1       7.129   5.198  16.048  0.00  0.00    +0.000 A 
BRANCH   3  10
ATOM      9  N   UNL     1       8.605   5.938  12.948  0.00  0.00    +0.000 NA
ATOM     10  C   UNL     1       7.888   5.469  13.727  0.00  0.00    +0.000 C 
ENDBRANCH   3  10
ENDBRANCH   1   7
BRANCH   2  11
ATOM     11  O   UNL     1       7.824   5.475  20.183  0.00  0.00    +0.000 OA
ATOM     12  H   UNL     1       7.956   4.627  20.649  0.00  0.00    +0.000 HD
ENDBRANCH   2  11
BRANCH   1  13
ATOM     13  C   UNL     1       5.294   5.414  19.376  0.00  0.00    +0.000 C 
BRANCH  13  14
ATOM     14  S   UNL     1       3.814   6.077  18.549  0.00  0.00    +0.000 S 
BRANCH  14  15
ATOM     15  C   UNL     1       2.514   4.948  19.048  0.00  0.00    +0.000 A 
ATOM     16  C   UNL     1       2.000   4.084  18.070  0.00  0.00    +0.000 A 
ATOM     17  C   UNL     1       1.105   3.064  18.412  0.00  0.00    +0.000 A 
ATOM     18  C   UNL     1       0.713   2.897  19.735  0.00  0.00    +0.000 A 
ATOM     19  C   UNL     1       1.191   3.769  20.712  0.00  0.00    +0.000 A 
ATOM     20  C   UNL     1       2.085   4.790  20.371  0.00  0.00    +0.000 A 
ENDBRANCH  14  15
ENDBRANCH  13  14
ENDBRANCH   1  13
TORSDOF 6
ENDMDL
MODEL 3
REMARK VINA RESULT:      -7.0      2.554      6.921
REMARK  Name = 
REMARK  6 active torsions:
REMARK  status: ('A' for Active; 'I' for Inactive)
REMARK    1  A    between atoms: C_2  and  C_3
REMARK    2  A    between atoms: C_7  and  C_8
REMARK    3  A    between atoms: C_8  and  C_9
REMARK    4  A    between atoms: C_9  and  S_10
REMARK    5  A    between atoms: S_10  and  C_11
REMARK    6  A    between atoms: N_17  and  O_18
REMARK                            x       y       z     vdW  Elec       q    Type
REMARK                         _______ _______ _______ _____ _____    ______ ____
ROOT
ATOM      1  C   UNL     1       6.611   4.327  16.250  0.00  0.00    +0.000 C 
ATOM      2  N   UNL     1       7.725   4.412  16.931  0.00  0.00    +0.000 NA
ENDROOT
BRANCH   1   7
ATOM      3  C   UNL     1       5.848   3.877  12.558  0.00  0.00    +0.000 A 
ATOM      4  C   UNL     1       6.889   4.582  11.949  0.00  0.00    +0.000 A 
ATOM      5  C   UNL     1       7.880   5.174  12.732  0.00  0.00    +0.000 A 
ATOM      6  C   UNL     1       7.829   5.080  14.129  0.00  0.00    +0.000 A 
ATOM      7  C   UNL     1       6.756   4.437  14.753  0.00  0.00    +0.000 A 
ATOM      8  C   UNL     1       5.781   3.813  13.953  0.00  0.00    +0.000 A 
BRANCH   3  10
ATOM      9  N   UNL     1       4.060   2.672  11.116  0.00  0.00    +0.000 NA
ATOM     10  C   UNL     1       4.858   3.215  11.756  0.00  0.00    +0.000 C 
ENDBRANCH   3  10
ENDBRANCH   1   7
BRANCH   2  11
ATOM     11  O   UNL     1       7.520   4.342  18.311  0.00  0.00    +0.000 OA
ATOM     12  H   UNL     1       6.579   4.085  18.369  0.00  0.00    +0.000 HD
ENDBRANCH   2  11
BRANCH   1  13
ATOM     13  C   UNL     1       5.249   4.164  16.944  0.00  0.00    +0.000 C 
BRANCH  13  14
ATOM     14  S   UNL     1       4.364   5.714  17.304  0.00  0.00    +0.000 S 
BRANCH  14  15
ATOM     15  C   UNL     1       3.008   5.188  18.353  0.00  0.00    +0.000 A 
ATOM     16  C   UNL     1       2.222   4.117  17.902  0.00  0.00    +0.000 A 
ATOM     17  C   UNL     1       1.253   3.540  18.729  0.00  0.00    +0.000 A 
ATOM     18  C   UNL     1       1.057   4.027  20.017  0.00  0.00    +0.000 A 
ATOM     19  C   UNL     1       1.808   5.111  20.466  0.00  0.00    +0.000 A 
ATOM     20  C   UNL     1       2.778   5.690  19.639  0.00  0.00    +0.000 A 
ENDBRANCH  14  15
ENDBRANCH  13  14
ENDBRANCH   1  13
TORSDOF 6
ENDMDL
MODEL 4
REMARK VINA RESULT:      -6.9      2.588      6.973
REMARK  Name = 
REMARK  6 active torsions:
REMARK  status: ('A' for Active; 'I' for Inactive)
REMARK    1  A    between atoms: C_2  and  C_3
REMARK    2  A    between atoms: C_7  and  C_8
REMARK    3  A    between atoms: C_8  and  C_9
REMARK    4  A    between atoms: C_9  and  S_10
REMARK    5  A    between atoms: S_10  and  C_11
REMARK    6  A    between atoms: N_17  and  O_18
REMARK                            x       y       z     vdW  Elec       q    Type
REMARK                         _______ _______ _______ _____ _____    ______ ____
ROOT
ATOM      1  C   UNL     1       6.573   4.289  16.240  0.00  0.00    +0.000 C 
ATOM      2  N   UNL     1       7.667   4.470  16.937  0.00  0.00    +0.000 NA
ENDROOT
BRANCH   1   7
ATOM      3  C   UNL     1       5.836   3.876  12.538  0.00  0.00    +0.000 A 
ATOM      4  C   UNL     1       6.885   4.581  11.943  0.00  0.00    +0.000 A 
ATOM      5  C   UNL     1       7.872   5.162  12.739  0.00  0.00    +0.000 A 
ATOM      6  C   UNL     1       7.811   5.055  14.135  0.00  0.00    +0.000 A 
ATOM      7  C   UNL     1       6.731   4.411  14.745  0.00  0.00    +0.000 A 
ATOM      8  C   UNL     1       5.759   3.799  13.932  0.00  0.00    +0.000 A 
BRANCH   3  10
ATOM      9  N   UNL     1       4.056   2.691  11.070  0.00  0.00    +0.000 NA
ATOM     10  C   UNL     1       4.849   3.225  11.723  0.00  0.00    +0.000 C 
ENDBRANCH   3  10
ENDBRANCH   1   7
BRANCH   2  11
ATOM     11  O   UNL     1       7.448   4.381  18.313  0.00  0.00    +0.000 OA
ATOM     12  H   UNL     1       8.320   4.094  18.645  0.00  0.00    +0.000 HD
ENDBRANCH   2  11
BRANCH   1  13
ATOM     13  C   UNL     1       5.221   4.009  16.914  0.00  0.00    +0.000 C 
BRANCH  13  14
ATOM     14  S   UNL     1       4.269   5.482  17.401  0.00  0.00    +0.000 S 
BRANCH  14  15
ATOM     15  C   UNL     1       3.059   4.836  18.556  0.00  0.00    +0.000 A 
ATOM     16  C   UNL     1       2.841   5.564  19.735  0.00  0.00    +0.000 A 
ATOM     17  C   UNL     1       1.803   5.222  20.608  0.00  0.00    +0.000 A 
ATOM     18  C   UNL     1       0.971   4.147  20.312  0.00  0.00    +0.000 A 
ATOM     19  C   UNL     1       1.197   3.395  19.161  0.00  0.00    +0.000 A 
ATOM     20  C   UNL     1       2.236   3.736  18.288  0.00  0.00    +0.000 A 
ENDBRANCH  14  15
ENDBRANCH  13  14
ENDBRANCH   1  13
TORSDOF 6
ENDMDL
MODEL 5
REMARK VINA RESULT:      -6.9      1.105      1.221
REMARK  Name = 
REMARK  6 active torsions:
REMARK  status: ('A' for Active; 'I' for Inactive)
REMARK    1  A    between atoms: C_2  and  C_3
REMARK    2  A    between atoms: C_7  and  C_8
REMARK    3  A    between atoms: C_8  and  C_9
REMARK    4  A    between atoms: C_9  and  S_10
REMARK    5  A    between atoms: S_10  and  C_11
REMARK    6  A    between atoms: N_17  and  O_18
REMARK                            x       y       z     vdW  Elec       q    Type
REMARK                         _______ _______ _______ _____ _____    ______ ____
ROOT
ATOM      1  C   UNL     1       5.961   5.220  18.700  0.00  0.00    +0.000 C 
ATOM      2  N   UNL     1       6.835   5.247  19.674  0.00  0.00    +0.000 NA
ENDROOT
BRANCH   1   7
ATOM      3  C   UNL     1       2.681   4.423  20.438  0.00  0.00    +0.000 A 
ATOM      4  C   UNL     1       1.854   5.463  20.009  0.00  0.00    +0.000 A 
ATOM      5  C   UNL     1       2.340   6.413  19.111  0.00  0.00    +0.000 A 
ATOM      6  C   UNL     1       3.660   6.340  18.647  0.00  0.00    +0.000 A 
ATOM      7  C   UNL     1       4.518   5.343  19.121  0.00  0.00    +0.000 A 
ATOM      8  C   UNL     1       4.008   4.371  20.001  0.00  0.00    +0.000 A 
BRANCH   3  10
ATOM      9  N   UNL     1       1.746   2.595  22.024  0.00  0.00    +0.000 NA
ATOM     10  C   UNL     1       2.169   3.409  21.317  0.00  0.00    +0.000 C 
ENDBRANCH   3  10
ENDBRANCH   1   7
BRANCH   2  11
ATOM     11  O   UNL     1       8.148   5.091  19.224  0.00  0.00    +0.000 OA
ATOM     12  H   UNL     1       8.049   4.422  18.520  0.00  0.00    +0.000 HD
ENDBRANCH   2  11
BRANCH   1  13
ATOM     13  C   UNL     1       6.388   5.037  17.235  0.00  0.00    +0.000 C 
BRANCH  13  14
ATOM     14  S   UNL     1       5.275   4.017  16.217  0.00  0.00    +0.000 S 
BRANCH  14  15
ATOM     15  C   UNL     1       5.930   4.209  14.560  0.00  0.00    +0.000 A 
ATOM     16  C   UNL     1       7.069   5.014  14.405  0.00  0.00    +0.000 A 
ATOM     17  C   UNL     1       7.738   5.084  13.179  0.00  0.00    +0.000 A 
ATOM     18  C   UNL     1       7.276   4.351  12.091  0.00  0.00    +0.000 A 
ATOM     19  C   UNL     1       6.127   3.573  12.221  0.00  0.00    +0.000 A 
ATOM     20  C   UNL     1       5.456   3.503  13.448  0.00  0.00    +0.000 A 
ENDBRANCH  14  15
ENDBRANCH  13  14
ENDBRANCH   1  13
TORSDOF 6
ENDMDL
MODEL 6
REMARK VINA RESULT:      -6.8      2.265      6.541
REMARK  Name = 
REMARK  6 active torsions:
REMARK  status: ('A' for Active; 'I' for Inactive)
REMARK    1  A    between atoms: C_2  and  C_3
REMARK    2  A    between atoms: C_7  and  C_8
REMARK    3  A    between atoms: C_8  and  C_9
REMARK    4  A    between atoms: C_9  and  S_10
REMARK    5  A    between atoms: S_10  and  C_11
REMARK    6  A    between atoms: N_17  and  O_18
REMARK                            x       y       z     vdW  Elec       q    Type
REMARK                         _______ _______ _______ _____ _____    ______ ____
ROOT
ATOM      1  C   UNL     1       6.539   5.049  18.463  0.00  0.00    +0.000 C 
ATOM      2  N   UNL     1       7.784   5.073  18.869  0.00  0.00    +0.000 NA
ENDROOT
BRANCH   1   7
ATOM      3  C   UNL     1       7.051   4.861  14.705  0.00  0.00    +0.000 A 
ATOM      4  C   UNL     1       6.081   3.935  14.317  0.00  0.00    +0.000 A 
ATOM      5  C   UNL     1       5.217   3.393  15.267  0.00  0.00    +0.000 A 
ATOM      6  C   UNL     1       5.324   3.761  16.615  0.00  0.00    +0.000 A 
ATOM      7  C   UNL     1       6.334   4.635  17.027  0.00  0.00    +0.000 A 
ATOM      8  C   UNL     1       7.179   5.202  16.055  0.00  0.00    +0.000 A 
BRANCH   3  10
ATOM      9  N   UNL     1       8.586   5.961  12.926  0.00  0.00    +0.000 NA
ATOM     10  C   UNL     1       7.906   5.468  13.723  0.00  0.00    +0.000 C 
ENDBRANCH   3  10
ENDBRANCH   1   7
BRANCH   2  11
ATOM     11  O   UNL     1       7.911   5.500  20.192  0.00  0.00    +0.000 OA
ATOM     12  H   UNL     1       7.609   4.718  20.694  0.00  0.00    +0.000 HD
ENDBRANCH   2  11
BRANCH   1  13
ATOM     13  C   UNL     1       5.380   5.456  19.386  0.00  0.00    +0.000 C 
BRANCH  13  14
ATOM     14  S   UNL     1       3.847   5.957  18.542  0.00  0.00    +0.000 S 
BRANCH  14  15
ATOM     15  C   UNL     1       2.677   4.681  19.007  0.00  0.00    +0.000 A 
ATOM     16  C   UNL     1       2.293   4.617  20.355  0.00  0.00    +0.000 A 
ATOM     17  C   UNL     1       1.267   3.763  20.770  0.00  0.00    +0.000 A 
ATOM     18  C   UNL     1       0.611   2.961  19.842  0.00  0.00    +0.000 A 
ATOM     19  C   UNL     1       1.004   2.990  18.506  0.00  0.00    +0.000 A 
ATOM     20  C   UNL     1       2.032   3.843  18.089  0.00  0.00    +0.000 A 
ENDBRANCH  14  15
ENDBRANCH  13  14
ENDBRANCH   1  13
TORSDOF 6
ENDMDL
MODEL 7
REMARK VINA RESULT:      -6.8      2.840      6.127
REMARK  Name = 
REMARK  6 active torsions:
REMARK  status: ('A' for Active; 'I' for Inactive)
REMARK    1  A    between atoms: C_2  and  C_3
REMARK    2  A    between atoms: C_7  and  C_8
REMARK    3  A    between atoms: C_8  and  C_9
REMARK    4  A    between atoms: C_9  and  S_10
REMARK    5  A    between atoms: S_10  and  C_11
REMARK    6  A    between atoms: N_17  and  O_18
REMARK                            x       y       z     vdW  Elec       q    Type
REMARK                         _______ _______ _______ _____ _____    ______ ____
ROOT
ATOM      1  C   UNL     1       4.389   2.962  18.562  0.00  0.00    +0.000 C 
ATOM      2  N   UNL     1       4.842   2.989  19.790  0.00  0.00    +0.000 NA
ENDROOT
BRANCH   1   7
ATOM      3  C   UNL     1       6.571   5.810  17.322  0.00  0.00    +0.000 A 
ATOM      4  C   UNL     1       6.363   5.768  15.942  0.00  0.00    +0.000 A 
ATOM      5  C   UNL     1       5.474   4.841  15.400  0.00  0.00    +0.000 A 
ATOM      6  C   UNL     1       4.797   3.939  16.232  0.00  0.00    +0.000 A 
ATOM      7  C   UNL     1       5.047   3.925  17.607  0.00  0.00    +0.000 A 
ATOM      8  C   UNL     1       5.921   4.888  18.146  0.00  0.00    +0.000 A 
BRANCH   3  10
ATOM      9  N   UNL     1       8.151   7.595  18.346  0.00  0.00    +0.000 NA
ATOM     10  C   UNL     1       7.441   6.801  17.892  0.00  0.00    +0.000 C 
ENDBRANCH   3  10
ENDBRANCH   1   7
BRANCH   2  11
ATOM     11  O   UNL     1       4.167   2.103  20.633  0.00  0.00    +0.000 OA
ATOM     12  H   UNL     1       4.424   2.423  21.519  0.00  0.00    +0.000 HD
ENDBRANCH   2  11
BRANCH   1  13
ATOM     13  C   UNL     1       3.238   2.033  18.145  0.00  0.00    +0.000 C 
BRANCH  13  14
ATOM     14  S   UNL     1       1.577   2.555  18.678  0.00  0.00    +0.000 S 
BRANCH  14  15
ATOM     15  C   UNL     1       1.757   4.319  18.940  0.00  0.00    +0.000 A 
ATOM     16  C   UNL     1       1.738   4.780  20.264  0.00  0.00    +0.000 A 
ATOM     17  C   UNL     1       2.035   6.114  20.565  0.00  0.00    +0.000 A 
ATOM     18  C   UNL     1       2.353   7.003  19.544  0.00  0.00    +0.000 A 
ATOM     19  C   UNL     1       2.344   6.567  18.221  0.00  0.00    +0.000 A 
ATOM     20  C   UNL     1       2.046   5.233  17.919  0.00  0.00    +0.000 A 
ENDBRANCH  14  15
ENDBRANCH  13  14
ENDBRANCH   1  13
TORSDOF 6
ENDMDL
MODEL 8
REMARK VINA RESULT:      -6.8      2.952      6.294
REMARK  Name = 
REMARK  6 active torsions:
REMARK  status: ('A' for Active; 'I' for Inactive)
REMARK    1  A    between atoms: C_2  and  C_3
REMARK    2  A    between atoms: C_7  and  C_8
REMARK    3  A    between atoms: C_8  and  C_9
REMARK    4  A    between atoms: C_9  and  S_10
REMARK    5  A    between atoms: S_10  and  C_11
REMARK    6  A    between atoms: N_17  and  O_18
REMARK                            x       y       z     vdW  Elec       q    Type
REMARK                         _______ _______ _______ _____ _____    ______ ____
ROOT
ATOM      1  C   UNL     1       4.418   2.955  18.858  0.00  0.00    +0.000 C 
ATOM      2  N   UNL     1       4.777   2.948  20.117  0.00  0.00    +0.000 NA
ENDROOT
BRANCH   1   7
ATOM      3  C   UNL     1       5.930   4.536  15.755  0.00  0.00    +0.000 A 
ATOM      4  C   UNL     1       6.415   5.751  16.243  0.00  0.00    +0.000 A 
ATOM      5  C   UNL     1       6.297   6.052  17.600  0.00  0.00    +0.000 A 
ATOM      6  C   UNL     1       5.681   5.149  18.475  0.00  0.00    +0.000 A 
ATOM      7  C   UNL     1       5.131   3.960  17.988  0.00  0.00    +0.000 A 
ATOM      8  C   UNL     1       5.285   3.651  16.623  0.00  0.00    +0.000 A 
BRANCH   3  10
ATOM      9  N   UNL     1       6.230   3.910  13.255  0.00  0.00    +0.000 NA
ATOM     10  C   UNL     1       6.101   4.194  14.370  0.00  0.00    +0.000 C 
ENDBRANCH   3  10
ENDBRANCH   1   7
BRANCH   2  11
ATOM     11  O   UNL     1       4.056   2.025  20.877  0.00  0.00    +0.000 OA
ATOM     12  H   UNL     1       3.585   2.600  21.511  0.00  0.00    +0.000 HD
ENDBRANCH   2  11
BRANCH   1  13
ATOM     13  C   UNL     1       3.318   2.025  18.326  0.00  0.00    +0.000 C 
BRANCH  13  14
ATOM     14  S   UNL     1       1.610   2.553  18.672  0.00  0.00    +0.000 S 
BRANCH  14  15
ATOM     15  C   UNL     1       1.761   4.321  18.923  0.00  0.00    +0.000 A 
ATOM     16  C   UNL     1       1.712   4.792  20.243  0.00  0.00    +0.000 A 
ATOM     17  C   UNL     1       1.985   6.131  20.539  0.00  0.00    +0.000 A 
ATOM     18  C   UNL     1       2.311   7.017  19.518  0.00  0.00    +0.000 A 
ATOM     19  C   UNL     1       2.331   6.571  18.198  0.00  0.00    +0.000 A 
ATOM     20  C   UNL     1       2.057   5.231  17.901  0.00  0.00    +0.000 A 
ENDBRANCH  14  15
ENDBRANCH  13  14
ENDBRANCH   1  13
TORSDOF 6
ENDMDL
MODEL 9
REMARK VINA RESULT:      -6.7      2.944      6.381
REMARK  Name = 
REMARK  6 active torsions:
REMARK  status: ('A' for Active; 'I' for Inactive)
REMARK    1  A    between atoms: C_2  and  C_3
REMARK    2  A    between atoms: C_7  and  C_8
REMARK    3  A    between atoms: C_8  and  C_9
REMARK    4  A    between atoms: C_9  and  S_10
REMARK    5  A    between atoms: S_10  and  C_11
REMARK    6  A    between atoms: N_17  and  O_18
REMARK                            x       y       z     vdW  Elec       q    Type
REMARK                         _______ _______ _______ _____ _____    ______ ____
ROOT
ATOM      1  C   UNL     1       4.495   3.181  18.562  0.00  0.00    +0.000 C 
ATOM      2  N   UNL     1       4.873   3.134  19.815  0.00  0.00    +0.000 NA
ENDROOT
BRANCH   1   7
ATOM      3  C   UNL     1       6.191   4.451  15.411  0.00  0.00    +0.000 A 
ATOM      4  C   UNL     1       6.861   5.588  15.868  0.00  0.00    +0.000 A 
ATOM      5  C   UNL     1       6.806   5.931  17.219  0.00  0.00    +0.000 A 
ATOM      6  C   UNL     1       6.071   5.149  18.120  0.00  0.00    +0.000 A 
ATOM      7  C   UNL     1       5.341   4.048  17.663  0.00  0.00    +0.000 A 
ATOM      8  C   UNL     1       5.430   3.691  16.305  0.00  0.00    +0.000 A 
BRANCH   3  10
ATOM      9  N   UNL     1       6.359   3.743  12.921  0.00  0.00    +0.000 NA
ATOM     10  C   UNL     1       6.290   4.059  14.033  0.00  0.00    +0.000 C 
ENDBRANCH   3  10
ENDBRANCH   1   7
BRANCH   2  11
ATOM     11  O   UNL     1       4.030   2.347  20.602  0.00  0.00    +0.000 OA
ATOM     12  H   UNL     1       3.250   2.924  20.713  0.00  0.00    +0.000 HD
ENDBRANCH   2  11
BRANCH   1  13
ATOM     13  C   UNL     1       3.250   2.431  18.064  0.00  0.00    +0.000 C 
BRANCH  13  14
ATOM     14  S   UNL     1       1.822   3.478  17.641  0.00  0.00    +0.000 S 
BRANCH  14  15
ATOM     15  C   UNL     1       2.043   4.926  18.675  0.00  0.00    +0.000 A 
ATOM     16  C   UNL     1       2.434   6.116  18.044  0.00  0.00    +0.000 A 
ATOM     17  C   UNL     1       2.468   7.324  18.747  0.00  0.00    +0.000 A 
ATOM     18  C   UNL     1       2.113   7.357  20.092  0.00  0.00    +0.000 A 
ATOM     19  C   UNL     1       1.755   6.177  20.739  0.00  0.00    +0.000 A 
ATOM     20  C   UNL     1       1.721   4.967  20.037  0.00  0.00    +0.000 A 
ENDBRANCH  14  15
ENDBRANCH  13  14
ENDBRANCH   1  13
TORSDOF 6
ENDMDL
