MODEL 1
REMARK VINA RESULT:      -7.2      0.000      0.000
REMARK  Name = 
REMARK  6 active torsions:
REMARK  status: ('A' for Active; 'I' for Inactive)
REMARK    1  A    between atoms: C_1  and  N_2
REMARK    2  A    between atoms: N_2  and  C_3
REMARK    3  A    between atoms: N_2  and  C_4
REMARK    4  A    between atoms: C_4  and  C_5
REMARK    5  A    between atoms: C_5  and  N_6
REMARK    6  A    between atoms: C_7  and  C_9
REMARK                            x       y       z     vdW  Elec       q    Type
REMARK                         _______ _______ _______ _____ _____    ______ ____
ROOT
ATOM      1  N   UNL     1       4.672   4.886  17.245  0.00  0.00    +0.000 N 
ATOM      2  C   UNL     1       6.037   5.024  17.111  0.00  0.00    +0.000 C 
ATOM      3  O   UNL     1       6.664   4.131  16.551  0.00  0.00    +0.000 OA
ATOM      4  C   UNL     1       3.899   5.862  17.930  0.00  0.00    +0.000 A 
ATOM      5  N   UNL     1       3.314   6.912  17.308  0.00  0.00    +0.000 NA
ATOM      6  C   UNL     1       2.563   7.625  18.185  0.00  0.00    +0.000 A 
ATOM      7  C   UNL     1       1.825   8.760  17.850  0.00  0.00    +0.000 A 
ATOM      8  C   UNL     1       1.079   9.400  18.854  0.00  0.00    +0.000 A 
ATOM      9  C   UNL     1       1.079   8.901  20.173  0.00  0.00    +0.000 A 
ATOM     10 CL   UNL     1       0.141   9.713  21.415  0.00  0.00    +0.000 Cl
ATOM     11  C   UNL     1       1.825   7.756  20.496  0.00  0.00    +0.000 A 
ATOM     12  C   UNL     1       2.553   7.141  19.484  0.00  0.00    +0.000 A 
ATOM     13  S   UNL     1       3.507   5.763  19.576  0.00  0.00    +0.000 S 
ENDROOT
BRANCH   2  14
ATOM     14  C   UNL     1       6.817   6.212  17.606  0.00  0.00    +0.000 C 
ATOM     15  C   UNL     1       7.641   6.090  18.678  0.00  0.00    +0.000 C 
ATOM     16  O   UNL     1       8.364   7.163  19.101  0.00  0.00    +0.000 OA
ATOM     17  C   UNL     1       8.574   8.247  18.269  0.00  0.00    +0.000 C 
ATOM     18  C   UNL     1       7.259   8.589  17.567  0.00  0.00    +0.000 C 
ATOM     19  O   UNL     1       6.733   7.434  16.998  0.00  0.00    +0.000 OA
ENDBRANCH   2  14
BRANCH   1  20
ATOM     20  C   UNL     1       4.029   3.677  16.715  0.00  0.00    +0.000 C 
BRANCH  20  21
ATOM     21  C   UNL     1       2.548   3.461  17.121  0.00  0.00    +0.000 C 
BRANCH  21  23
ATOM     22  C   UNL     1       3.539   1.646  18.455  0.00  0.00    +0.000 C 
ATOM     23  N   UNL     1       2.309   2.195  17.852  0.00  0.00    +0.000 NA
ATOM     24  C   UNL     1       1.307   2.411  18.909  0.00  0.00    +0.000 C 
ENDBRANCH  21  23
ENDBRANCH  20  21
ENDBRANCH   1  20
TORSDOF 4
ENDMDL
MODEL 2
REMARK VINA RESULT:      -7.0      1.036      1.523
REMARK  Name = 
REMARK  6 active torsions:
REMARK  status: ('A' for Active; 'I' for Inactive)
REMARK    1  A    between atoms: C_1  and  N_2
REMARK    2  A    between atoms: N_2  and  C_3
REMARK    3  A    between atoms: N_2  and  C_4
REMARK    4  A    between atoms: C_4  and  C_5
REMARK    5  A    between atoms: C_5  and  N_6
REMARK    6  A    between atoms: C_7  and  C_9
REMARK                            x       y       z     vdW  Elec       q    Type
REMARK                         _______ _______ _______ _____ _____    ______ ____
ROOT
ATOM      1  N   UNL     1       3.582   4.419  17.509  0.00  0.00    +0.000 N 
ATOM      2  C   UNL     1       4.917   4.263  17.201  0.00  0.00    +0.000 C 
ATOM      3  O   UNL     1       5.284   3.202  16.708  0.00  0.00    +0.000 OA
ATOM      4  C   UNL     1       3.105   5.605  18.129  0.00  0.00    +0.000 A 
ATOM      5  N   UNL     1       2.642   6.669  17.433  0.00  0.00    +0.000 NA
ATOM      6  C   UNL     1       2.165   7.618  18.278  0.00  0.00    +0.000 A 
ATOM      7  C   UNL     1       1.608   8.830  17.869  0.00  0.00    +0.000 A 
ATOM      8  C   UNL     1       1.141   9.722  18.849  0.00  0.00    +0.000 A 
ATOM      9  C   UNL     1       1.235   9.394  20.218  0.00  0.00    +0.000 A 
ATOM     10 CL   UNL     1       0.645  10.520  21.428  0.00  0.00    +0.000 Cl
ATOM     11  C   UNL     1       1.795   8.170  20.615  0.00  0.00    +0.000 A 
ATOM     12  C   UNL     1       2.249   7.305  19.626  0.00  0.00    +0.000 A 
ATOM     13  S   UNL     1       2.936   5.784  19.807  0.00  0.00    +0.000 S 
ENDROOT
BRANCH   2  14
ATOM     14  C   UNL     1       5.963   5.321  17.427  0.00  0.00    +0.000 C 
ATOM     15  C   UNL     1       6.269   6.202  16.441  0.00  0.00    +0.000 C 
ATOM     16  O   UNL     1       7.197   7.171  16.663  0.00  0.00    +0.000 OA
ATOM     17  C   UNL     1       7.558   7.523  17.951  0.00  0.00    +0.000 C 
ATOM     18  C   UNL     1       7.746   6.247  18.773  0.00  0.00    +0.000 C 
ATOM     19  O   UNL     1       6.626   5.436  18.618  0.00  0.00    +0.000 OA
ENDBRANCH   2  14
BRANCH   1  20
ATOM     20  C   UNL     1       2.660   3.309  17.236  0.00  0.00    +0.000 C 
BRANCH  20  21
ATOM     21  C   UNL     1       2.799   2.068  18.155  0.00  0.00    +0.000 C 
BRANCH  21  23
ATOM     22  C   UNL     1       2.162   2.395  20.509  0.00  0.00    +0.000 C 
ATOM     23  N   UNL     1       1.726   1.955  19.171  0.00  0.00    +0.000 NA
ATOM     24  C   UNL     1       0.561   2.753  18.754  0.00  0.00    +0.000 C 
ENDBRANCH  21  23
ENDBRANCH  20  21
ENDBRANCH   1  20
TORSDOF 4
ENDMDL
MODEL 3
REMARK VINA RESULT:      -6.8      0.896      1.005
REMARK  Name = 
REMARK  6 active torsions:
REMARK  status: ('A' for Active; 'I' for Inactive)
REMARK    1  A    between atoms: C_1  and  N_2
REMARK    2  A    between atoms: N_2  and  C_3
REMARK    3  A    between atoms: N_2  and  C_4
REMARK    4  A    between atoms: C_4  and  C_5
REMARK    5  A    between atoms: C_5  and  N_6
REMARK    6  A    between atoms: C_7  and  C_9
REMARK                            x       y       z     vdW  Elec       q    Type
REMARK                         _______ _______ _______ _____ _____    ______ ____
ROOT
ATOM      1  N   UNL     1       3.700   4.659  17.550  0.00  0.00    +0.000 N 
ATOM      2  C   UNL     1       5.061   4.548  17.353  0.00  0.00    +0.000 C 
ATOM      3  O   UNL     1       5.494   3.532  16.818  0.00  0.00    +0.000 OA
ATOM      4  C   UNL     1       3.145   5.787  18.210  0.00  0.00    +0.000 A 
ATOM      5  N   UNL     1       2.721   6.893  17.554  0.00  0.00    +0.000 NA
ATOM      6  C   UNL     1       2.150   7.768  18.420  0.00  0.00    +0.000 A 
ATOM      7  C   UNL     1       1.605   8.999  18.052  0.00  0.00    +0.000 A 
ATOM      8  C   UNL     1       1.033   9.807  19.049  0.00  0.00    +0.000 A 
ATOM      9  C   UNL     1       1.012   9.380  20.393  0.00  0.00    +0.000 A 
ATOM     10 CL   UNL     1       0.293  10.403  21.624  0.00  0.00    +0.000 Cl
ATOM     11  C   UNL     1       1.563   8.139  20.749  0.00  0.00    +0.000 A 
ATOM     12  C   UNL     1       2.121   7.357  19.743  0.00  0.00    +0.000 A 
ATOM     13  S   UNL     1       2.824   5.838  19.874  0.00  0.00    +0.000 S 
ENDROOT
BRANCH   2  14
ATOM     14  C   UNL     1       6.059   5.602  17.748  0.00  0.00    +0.000 C 
ATOM     15  C   UNL     1       6.822   5.439  18.859  0.00  0.00    +0.000 C 
ATOM     16  O   UNL     1       7.741   6.384  19.193  0.00  0.00    +0.000 OA
ATOM     17  C   UNL     1       8.184   7.301  18.259  0.00  0.00    +0.000 C 
ATOM     18  C   UNL     1       6.980   7.820  17.471  0.00  0.00    +0.000 C 
ATOM     19  O   UNL     1       6.239   6.738  17.009  0.00  0.00    +0.000 OA
ENDBRANCH   2  14
BRANCH   1  20
ATOM     20  C   UNL     1       2.832   3.558  17.115  0.00  0.00    +0.000 C 
BRANCH  20  21
ATOM     21  C   UNL     1       2.976   2.228  17.898  0.00  0.00    +0.000 C 
BRANCH  21  23
ATOM     22  C   UNL     1       2.432   2.340  20.296  0.00  0.00    +0.000 C 
ATOM     23  N   UNL     1       1.939   2.035  18.940  0.00  0.00    +0.000 NA
ATOM     24  C   UNL     1       0.773   2.885  18.646  0.00  0.00    +0.000 C 
ENDBRANCH  21  23
ENDBRANCH  20  21
ENDBRANCH   1  20
TORSDOF 4
ENDMDL
MODEL 4
REMARK VINA RESULT:      -6.8      1.354      1.689
REMARK  Name = 
REMARK  6 active torsions:
REMARK  status: ('A' for Active; 'I' for Inactive)
REMARK    1  A    between atoms: C_1  and  N_2
REMARK    2  A    between atoms: N_2  and  C_3
REMARK    3  A    between atoms: N_2  and  C_4
REMARK    4  A    between atoms: C_4  and  C_5
REMARK    5  A    between atoms: C_5  and  N_6
REMARK    6  A    between atoms: C_7  and  C_9
REMARK                            x       y       z     vdW  Elec       q    Type
REMARK                         _______ _______ _______ _____ _____    ______ ____
ROOT
ATOM      1  N   UNL     1       2.971   4.861  17.747  0.00  0.00    +0.000 N 
ATOM      2  C   UNL     1       4.295   4.515  17.575  0.00  0.00    +0.000 C 
ATOM      3  O   UNL     1       4.556   3.405  17.122  0.00  0.00    +0.000 OA
ATOM      4  C   UNL     1       2.608   6.111  18.315  0.00  0.00    +0.000 A 
ATOM      5  N   UNL     1       2.370   7.220  17.574  0.00  0.00    +0.000 NA
ATOM      6  C   UNL     1       1.951   8.238  18.366  0.00  0.00    +0.000 A 
ATOM      7  C   UNL     1       1.614   9.510  17.901  0.00  0.00    +0.000 A 
ATOM      8  C   UNL     1       1.183  10.474  18.828  0.00  0.00    +0.000 A 
ATOM      9  C   UNL     1       1.093  10.158  20.200  0.00  0.00    +0.000 A 
ATOM     10 CL   UNL     1       0.551  11.374  21.343  0.00  0.00    +0.000 Cl
ATOM     11  C   UNL     1       1.433   8.874  20.653  0.00  0.00    +0.000 A 
ATOM     12  C   UNL     1       1.856   7.938  19.715  0.00  0.00    +0.000 A 
ATOM     13  S   UNL     1       2.300   6.339  19.966  0.00  0.00    +0.000 S 
ENDROOT
BRANCH   2  14
ATOM     14  C   UNL     1       5.453   5.419  17.903  0.00  0.00    +0.000 C 
ATOM     15  C   UNL     1       6.141   5.256  19.061  0.00  0.00    +0.000 C 
ATOM     16  O   UNL     1       7.203   6.059  19.336  0.00  0.00    +0.000 OA
ATOM     17  C   UNL     1       7.830   6.772  18.331  0.00  0.00    +0.000 C 
ATOM     18  C   UNL     1       6.761   7.397  17.433  0.00  0.00    +0.000 C 
ATOM     19  O   UNL     1       5.853   6.414  17.054  0.00  0.00    +0.000 OA
ENDBRANCH   2  14
BRANCH   1  20
ATOM     20  C   UNL     1       1.934   3.888  17.385  0.00  0.00    +0.000 C 
BRANCH  20  21
ATOM     21  C   UNL     1       1.238   3.164  18.566  0.00  0.00    +0.000 C 
BRANCH  21  23
ATOM     22  C   UNL     1       1.468   2.670  20.966  0.00  0.00    +0.000 C 
ATOM     23  N   UNL     1       2.160   2.806  19.671  0.00  0.00    +0.000 NA
ATOM     24  C   UNL     1       2.849   1.544  19.355  0.00  0.00    +0.000 C 
ENDBRANCH  21  23
ENDBRANCH  20  21
ENDBRANCH   1  20
TORSDOF 4
ENDMDL
MODEL 5
REMARK VINA RESULT:      -6.5      2.409      4.952
REMARK  Name = 
REMARK  6 active torsions:
REMARK  status: ('A' for Active; 'I' for Inactive)
REMARK    1  A    between atoms: C_1  and  N_2
REMARK    2  A    between atoms: N_2  and  C_3
REMARK    3  A    between atoms: N_2  and  C_4
REMARK    4  A    between atoms: C_4  and  C_5
REMARK    5  A    between atoms: C_5  and  N_6
REMARK    6  A    between atoms: C_7  and  C_9
REMARK                            x       y       z     vdW  Elec       q    Type
REMARK                         _______ _______ _______ _____ _____    ______ ____
ROOT
ATOM      1  N   UNL     1       4.622   5.418  19.085  0.00  0.00    +0.000 N 
ATOM      2  C   UNL     1       4.331   4.072  19.026  0.00  0.00    +0.000 C 
ATOM      3  O   UNL     1       5.260   3.271  19.034  0.00  0.00    +0.000 OA
ATOM      4  C   UNL     1       3.591   6.394  19.028  0.00  0.00    +0.000 A 
ATOM      5  N   UNL     1       2.988   6.900  20.129  0.00  0.00    +0.000 NA
ATOM      6  C   UNL     1       2.115   7.879  19.784  0.00  0.00    +0.000 A 
ATOM      7  C   UNL     1       1.344   8.604  20.694  0.00  0.00    +0.000 A 
ATOM      8  C   UNL     1       0.484   9.602  20.204  0.00  0.00    +0.000 A 
ATOM      9  C   UNL     1       0.404   9.862  18.821  0.00  0.00    +0.000 A 
ATOM     10 CL   UNL     1      -0.675  11.112  18.227  0.00  0.00    +0.000 Cl
ATOM     11  C   UNL     1       1.186   9.126  17.917  0.00  0.00    +0.000 A 
ATOM     12  C   UNL     1       2.030   8.145  18.427  0.00  0.00    +0.000 A 
ATOM     13  S   UNL     1       3.082   7.139  17.592  0.00  0.00    +0.000 S 
ENDROOT
BRANCH   2  14
ATOM     14  C   UNL     1       2.936   3.512  18.958  0.00  0.00    +0.000 C 
ATOM     15  C   UNL     1       2.403   3.147  17.764  0.00  0.00    +0.000 C 
ATOM     16  O   UNL     1       1.151   2.616  17.716  0.00  0.00    +0.000 OA
ATOM     17  C   UNL     1       0.560   2.095  18.852  0.00  0.00    +0.000 C 
ATOM     18  C   UNL     1       0.813   3.049  20.020  0.00  0.00    +0.000 C 
ATOM     19  O   UNL     1       2.171   3.345  20.079  0.00  0.00    +0.000 OA
ENDBRANCH   2  14
BRANCH   1  20
ATOM     20  C   UNL     1       6.028   5.835  19.152  0.00  0.00    +0.000 C 
BRANCH  20  21
ATOM     21  C   UNL     1       6.583   6.559  17.897  0.00  0.00    +0.000 C 
BRANCH  21  23
ATOM     22  C   UNL     1       7.856   4.470  17.622  0.00  0.00    +0.000 C 
ATOM     23  N   UNL     1       7.291   5.659  16.956  0.00  0.00    +0.000 NA
ATOM     24  C   UNL     1       6.370   5.227  15.892  0.00  0.00    +0.000 C 
ENDBRANCH  21  23
ENDBRANCH  20  21
ENDBRANCH   1  20
TORSDOF 4
ENDMDL
MODEL 6
REMARK VINA RESULT:      -6.0      5.480      9.087
REMARK  Name = 
REMARK  6 active torsions:
REMARK  status: ('A' for Active; 'I' for Inactive)
REMARK    1  A    between atoms: C_1  and  N_2
REMARK    2  A    between atoms: N_2  and  C_3
REMARK    3  A    between atoms: N_2  and  C_4
REMARK    4  A    between atoms: C_4  and  C_5
REMARK    5  A    between atoms: C_5  and  N_6
REMARK    6  A    between atoms: C_7  and  C_9
REMARK                            x       y       z     vdW  Elec       q    Type
REMARK                         _______ _______ _______ _____ _____    ______ ____
ROOT
ATOM      1  N   UNL     1       0.743  12.410  19.129  0.00  0.00    +0.000 N 
ATOM      2  C   UNL     1      -0.458  12.874  18.633  0.00  0.00    +0.000 C 
ATOM      3  O   UNL     1      -0.625  14.086  18.544  0.00  0.00    +0.000 OA
ATOM      4  C   UNL     1       0.976  11.020  19.305  0.00  0.00    +0.000 A 
ATOM      5  N   UNL     1       1.541  10.239  18.355  0.00  0.00    +0.000 NA
ATOM      6  C   UNL     1       1.731   8.981  18.827  0.00  0.00    +0.000 A 
ATOM      7  C   UNL     1       2.304   7.942  18.094  0.00  0.00    +0.000 A 
ATOM      8  C   UNL     1       2.453   6.686  18.707  0.00  0.00    +0.000 A 
ATOM      9  C   UNL     1       2.030   6.484  20.037  0.00  0.00    +0.000 A 
ATOM     10 CL   UNL     1       2.225   4.909  20.787  0.00  0.00    +0.000 Cl
ATOM     11  C   UNL     1       1.457   7.539  20.764  0.00  0.00    +0.000 A 
ATOM     12  C   UNL     1       1.322   8.772  20.135  0.00  0.00    +0.000 A 
ATOM     13  S   UNL     1       0.699  10.199  20.762  0.00  0.00    +0.000 S 
ENDROOT
BRANCH   2  14
ATOM     14  C   UNL     1      -1.585  11.984  18.186  0.00  0.00    +0.000 C 
ATOM     15  C   UNL     1      -2.709  11.872  18.939  0.00  0.00    +0.000 C 
ATOM     16  O   UNL     1      -3.734  11.087  18.512  0.00  0.00    +0.000 OA
ATOM     17  C   UNL     1      -3.829  10.705  17.187  0.00  0.00    +0.000 C 
ATOM     18  C   UNL     1      -2.443  10.280  16.699  0.00  0.00    +0.000 C 
ATOM     19  O   UNL     1      -1.524  11.275  17.018  0.00  0.00    +0.000 OA
ENDBRANCH   2  14
BRANCH   1  20
ATOM     20  C   UNL     1       1.765  13.385  19.529  0.00  0.00    +0.000 C 
BRANCH  20  21
ATOM     21  C   UNL     1       2.884  13.660  18.492  0.00  0.00    +0.000 C 
BRANCH  21  23
ATOM     22  C   UNL     1       3.515  15.729  17.319  0.00  0.00    +0.000 C 
ATOM     23  N   UNL     1       3.484  15.011  18.606  0.00  0.00    +0.000 NA
ATOM     24  C   UNL     1       2.731  15.808  19.588  0.00  0.00    +0.000 C 
ENDBRANCH  21  23
ENDBRANCH  20  21
ENDBRANCH   1  20
TORSDOF 4
ENDMDL
MODEL 7
REMARK VINA RESULT:      -5.9      1.914      2.753
REMARK  Name = 
REMARK  6 active torsions:
REMARK  status: ('A' for Active; 'I' for Inactive)
REMARK    1  A    between atoms: C_1  and  N_2
REMARK    2  A    between atoms: N_2  and  C_3
REMARK    3  A    between atoms: N_2  and  C_4
REMARK    4  A    between atoms: C_4  and  C_5
REMARK    5  A    between atoms: C_5  and  N_6
REMARK    6  A    between atoms: C_7  and  C_9
REMARK                            x       y       z     vdW  Elec       q    Type
REMARK                         _______ _______ _______ _____ _____    ______ ____
ROOT
ATOM      1  N   UNL     1       5.614   5.369  16.676  0.00  0.00    +0.000 N 
ATOM      2  C   UNL     1       6.951   5.706  16.694  0.00  0.00    +0.000 C 
ATOM      3  O   UNL     1       7.735   5.024  16.043  0.00  0.00    +0.000 OA
ATOM      4  C   UNL     1       4.665   6.089  17.450  0.00  0.00    +0.000 A 
ATOM      5  N   UNL     1       3.977   7.154  16.975  0.00  0.00    +0.000 NA
ATOM      6  C   UNL     1       3.075   7.584  17.893  0.00  0.00    +0.000 A 
ATOM      7  C   UNL     1       2.204   8.657  17.700  0.00  0.00    +0.000 A 
ATOM      8  C   UNL     1       1.309   8.992  18.731  0.00  0.00    +0.000 A 
ATOM      9  C   UNL     1       1.294   8.257  19.933  0.00  0.00    +0.000 A 
ATOM     10 CL   UNL     1       0.169   8.689  21.209  0.00  0.00    +0.000 Cl
ATOM     11  C   UNL     1       2.175   7.178  20.113  0.00  0.00    +0.000 A 
ATOM     12  C   UNL     1       3.049   6.865  19.078  0.00  0.00    +0.000 A 
ATOM     13  S   UNL     1       4.183   5.630  19.010  0.00  0.00    +0.000 S 
ENDROOT
BRANCH   2  14
ATOM     14  C   UNL     1       7.517   6.870  17.463  0.00  0.00    +0.000 C 
ATOM     15  C   UNL     1       8.125   6.667  18.660  0.00  0.00    +0.000 C 
ATOM     16  O   UNL     1       8.658   7.722  19.334  0.00  0.00    +0.000 OA
ATOM     17  C   UNL     1       8.933   8.911  18.685  0.00  0.00    +0.000 C 
ATOM     18  C   UNL     1       7.755   9.256  17.772  0.00  0.00    +0.000 C 
ATOM     19  O   UNL     1       7.449   8.150  16.987  0.00  0.00    +0.000 OA
ENDBRANCH   2  14
BRANCH   1  20
ATOM     20  C   UNL     1       5.188   4.211  15.882  0.00  0.00    +0.000 C 
BRANCH  20  21
ATOM     21  C   UNL     1       4.990   4.462  14.364  0.00  0.00    +0.000 C 
BRANCH  21  23
ATOM     22  C   UNL     1       5.343   3.161  12.305  0.00  0.00    +0.000 C 
ATOM     23  N   UNL     1       5.965   3.744  13.509  0.00  0.00    +0.000 NA
ATOM     24  C   UNL     1       7.042   4.661  13.103  0.00  0.00    +0.000 C 
ENDBRANCH  21  23
ENDBRANCH  20  21
ENDBRANCH   1  20
TORSDOF 4
ENDMDL
MODEL 8
REMARK VINA RESULT:      -5.9      2.485      4.906
REMARK  Name = 
REMARK  6 active torsions:
REMARK  status: ('A' for Active; 'I' for Inactive)
REMARK    1  A    between atoms: C_1  and  N_2
REMARK    2  A    between atoms: N_2  and  C_3
REMARK    3  A    between atoms: N_2  and  C_4
REMARK    4  A    between atoms: C_4  and  C_5
REMARK    5  A    between atoms: C_5  and  N_6
REMARK    6  A    between atoms: C_7  and  C_9
REMARK                            x       y       z     vdW  Elec       q    Type
REMARK                         _______ _______ _______ _____ _____    ______ ____
ROOT
ATOM      1  N   UNL     1       4.736   5.300  19.253  0.00  0.00    +0.000 N 
ATOM      2  C   UNL     1       4.477   3.949  19.339  0.00  0.00    +0.000 C 
ATOM      3  O   UNL     1       5.427   3.173  19.389  0.00  0.00    +0.000 OA
ATOM      4  C   UNL     1       3.680   6.243  19.140  0.00  0.00    +0.000 A 
ATOM      5  N   UNL     1       3.105   6.843  20.209  0.00  0.00    +0.000 NA
ATOM      6  C   UNL     1       2.194   7.764  19.804  0.00  0.00    +0.000 A 
ATOM      7  C   UNL     1       1.440   8.558  20.667  0.00  0.00    +0.000 A 
ATOM      8  C   UNL     1       0.537   9.483  20.116  0.00  0.00    +0.000 A 
ATOM      9  C   UNL     1       0.400   9.603  18.718  0.00  0.00    +0.000 A 
ATOM     10 CL   UNL     1      -0.732  10.764  18.047  0.00  0.00    +0.000 Cl
ATOM     11  C   UNL     1       1.167   8.798  17.861  0.00  0.00    +0.000 A 
ATOM     12  C   UNL     1       2.054   7.892  18.431  0.00  0.00    +0.000 A 
ATOM     13  S   UNL     1       3.099   6.831  17.659  0.00  0.00    +0.000 S 
ENDROOT
BRANCH   2  14
ATOM     14  C   UNL     1       3.095   3.355  19.380  0.00  0.00    +0.000 C 
ATOM     15  C   UNL     1       2.506   3.077  20.571  0.00  0.00    +0.000 C 
ATOM     16  O   UNL     1       1.246   2.566  20.599  0.00  0.00    +0.000 OA
ATOM     17  C   UNL     1       0.415   2.671  19.499  0.00  0.00    +0.000 C 
ATOM     18  C   UNL     1       1.220   2.336  18.243  0.00  0.00    +0.000 C 
ATOM     19  O   UNL     1       2.391   3.088  18.239  0.00  0.00    +0.000 OA
ENDBRANCH   2  14
BRANCH   1  20
ATOM     20  C   UNL     1       6.132   5.752  19.224  0.00  0.00    +0.000 C 
BRANCH  20  21
ATOM     21  C   UNL     1       6.572   6.519  17.950  0.00  0.00    +0.000 C 
BRANCH  21  23
ATOM     22  C   UNL     1       7.817   4.441  17.514  0.00  0.00    +0.000 C 
ATOM     23  N   UNL     1       7.225   5.661  16.933  0.00  0.00    +0.000 NA
ATOM     24  C   UNL     1       6.248   5.280  15.901  0.00  0.00    +0.000 C 
ENDBRANCH  21  23
ENDBRANCH  20  21
ENDBRANCH   1  20
TORSDOF 4
ENDMDL
MODEL 9
REMARK VINA RESULT:      -5.9      5.399      8.987
REMARK  Name = 
REMARK  6 active torsions:
REMARK  status: ('A' for Active; 'I' for Inactive)
REMARK    1  A    between atoms: C_1  and  N_2
REMARK    2  A    between atoms: N_2  and  C_3
REMARK    3  A    between atoms: N_2  and  C_4
REMARK    4  A    between atoms: C_4  and  C_5
REMARK    5  A    between atoms: C_5  and  N_6
REMARK    6  A    between atoms: C_7  and  C_9
REMARK                            x       y       z     vdW  Elec       q    Type
REMARK                         _______ _______ _______ _____ _____    ______ ____
ROOT
ATOM      1  N   UNL     1       0.833  12.276  18.977  0.00  0.00    +0.000 N 
ATOM      2  C   UNL     1      -0.378  12.738  18.507  0.00  0.00    +0.000 C 
ATOM      3  O   UNL     1      -0.534  13.948  18.379  0.00  0.00    +0.000 OA
ATOM      4  C   UNL     1       1.055  10.890  19.194  0.00  0.00    +0.000 A 
ATOM      5  N   UNL     1       1.577  10.067  18.254  0.00  0.00    +0.000 NA
ATOM      6  C   UNL     1       1.767   8.825  18.764  0.00  0.00    +0.000 A 
ATOM      7  C   UNL     1       2.301   7.752  18.049  0.00  0.00    +0.000 A 
ATOM      8  C   UNL     1       2.455   6.517  18.701  0.00  0.00    +0.000 A 
ATOM      9  C   UNL     1       2.078   6.369  20.051  0.00  0.00    +0.000 A 
ATOM     10 CL   UNL     1       2.279   4.819  20.850  0.00  0.00    +0.000 Cl
ATOM     11  C   UNL     1       1.544   7.457  20.760  0.00  0.00    +0.000 A 
ATOM     12  C   UNL     1       1.402   8.668  20.092  0.00  0.00    +0.000 A 
ATOM     13  S   UNL     1       0.820  10.125  20.689  0.00  0.00    +0.000 S 
ENDROOT
BRANCH   2  14
ATOM     14  C   UNL     1      -1.532  11.848  18.131  0.00  0.00    +0.000 C 
ATOM     15  C   UNL     1      -2.686  11.886  18.845  0.00  0.00    +0.000 C 
ATOM     16  O   UNL     1      -3.733  11.099  18.481  0.00  0.00    +0.000 OA
ATOM     17  C   UNL     1      -3.799  10.551  17.213  0.00  0.00    +0.000 C 
ATOM     18  C   UNL     1      -2.420  10.005  16.842  0.00  0.00    +0.000 C 
ATOM     19  O   UNL     1      -1.465  10.991  17.068  0.00  0.00    +0.000 OA
ENDBRANCH   2  14
BRANCH   1  20
ATOM     20  C   UNL     1       1.881  13.250  19.305  0.00  0.00    +0.000 C 
BRANCH  20  21
ATOM     21  C   UNL     1       2.226  13.396  20.810  0.00  0.00    +0.000 C 
BRANCH  21  23
ATOM     22  C   UNL     1       1.570  15.750  20.514  0.00  0.00    +0.000 C 
ATOM     23  N   UNL     1       1.642  14.604  21.440  0.00  0.00    +0.000 NA
ATOM     24  C   UNL     1       0.291  14.301  21.941  0.00  0.00    +0.000 C 
ENDBRANCH  21  23
ENDBRANCH  20  21
ENDBRANCH   1  20
TORSDOF 4
ENDMDL
