MODEL 1
REMARK VINA RESULT:      -7.8      0.000      0.000
REMARK  Name = 
REMARK  2 active torsions:
REMARK  status: ('A' for Active; 'I' for Inactive)
REMARK    1  A    between atoms: C_2  and  C_12
REMARK    2  A    between atoms: C_7  and  C_8
REMARK                            x       y       z     vdW  Elec       q    Type
REMARK                         _______ _______ _______ _____ _____    ______ ____
ROOT
ATOM      1  O   UNL     1       1.698   8.615  19.112  0.00  0.00    +0.000 OA
ATOM      2  C   UNL     1       1.850   7.836  20.051  0.00  0.00    +0.000 C 
ATOM      3  N   UNL     1       1.408   8.009  21.345  0.00  0.00    +0.000 N 
ATOM      4  C   UNL     1       0.713   9.099  21.809  0.00  0.00    +0.000 A 
ATOM      5  N   UNL     1       0.606   9.399  23.085  0.00  0.00    +0.000 NA
ATOM      6  N   UNL     1      -0.097  10.579  23.281  0.00  0.00    +0.000 NA
ATOM      7  C   UNL     1      -0.545  11.069  22.145  0.00  0.00    +0.000 A 
ATOM      8  S   UNL     1      -0.160  10.133  20.770  0.00  0.00    +0.000 S 
ATOM      9  H   UNL     1       1.804   7.412  22.063  0.00  0.00    +0.000 HD
ENDROOT
BRANCH   2  10
ATOM     10  C   UNL     1       2.554   6.500  19.820  0.00  0.00    +0.000 C 
ATOM     11  C   UNL     1       2.504   6.113  18.337  0.00  0.00    +0.000 C 
ATOM     12  C   UNL     1       2.307   4.653  18.481  0.00  0.00    +0.000 A 
ATOM     13  C   UNL     1       2.367   3.656  17.526  0.00  0.00    +0.000 A 
ATOM     14  C   UNL     1       2.085   2.345  17.924  0.00  0.00    +0.000 A 
ATOM     15  C   UNL     1       1.737   2.061  19.257  0.00  0.00    +0.000 A 
ATOM     16  C   UNL     1       1.673   3.081  20.206  0.00  0.00    +0.000 A 
ATOM     17  C   UNL     1       1.970   4.362  19.793  0.00  0.00    +0.000 A 
ATOM     18  O   UNL     1       1.938   5.457  20.614  0.00  0.00    +0.000 OA
ENDBRANCH   2  10
BRANCH   7  19
ATOM     19  C   UNL     1      -1.333  12.371  22.039  0.00  0.00    +0.000 C 
ATOM     20  C   UNL     1      -2.374  12.507  20.947  0.00  0.00    +0.000 C 
ATOM     21  C   UNL     1      -2.813  12.344  22.361  0.00  0.00    +0.000 C 
ENDBRANCH   7  19
TORSDOF 2
ENDMDL
MODEL 2
REMARK VINA RESULT:      -7.2      7.476     10.436
REMARK  Name = 
REMARK  2 active torsions:
REMARK  status: ('A' for Active; 'I' for Inactive)
REMARK    1  A    between atoms: C_2  and  C_12
REMARK    2  A    between atoms: C_7  and  C_8
REMARK                            x       y       z     vdW  Elec       q    Type
REMARK                         _______ _______ _______ _____ _____    ______ ____
ROOT
ATOM      1  O   UNL     1       7.463   9.357  17.532  0.00  0.00    +0.000 OA
ATOM      2  C   UNL     1       8.370   9.025  18.294  0.00  0.00    +0.000 C 
ATOM      3  N   UNL     1       8.580   7.772  18.828  0.00  0.00    +0.000 N 
ATOM      4  C   UNL     1       7.799   6.667  18.595  0.00  0.00    +0.000 A 
ATOM      5  N   UNL     1       7.809   5.599  19.362  0.00  0.00    +0.000 NA
ATOM      6  N   UNL     1       6.887   4.652  18.941  0.00  0.00    +0.000 NA
ATOM      7  C   UNL     1       6.280   5.026  17.836  0.00  0.00    +0.000 A 
ATOM      8  S   UNL     1       6.791   6.536  17.225  0.00  0.00    +0.000 S 
ATOM      9  H   UNL     1       9.211   7.695  19.618  0.00  0.00    +0.000 HD
ENDROOT
BRANCH   2  10
ATOM     10  C   UNL     1       9.433  10.046  18.697  0.00  0.00    +0.000 C 
ATOM     11  C   UNL     1       9.343  10.354  20.197  0.00  0.00    +0.000 C 
ATOM     12  C   UNL     1       9.638  11.804  20.157  0.00  0.00    +0.000 A 
ATOM     13  C   UNL     1       9.905  12.680  21.193  0.00  0.00    +0.000 A 
ATOM     14  C   UNL     1      10.101  14.029  20.881  0.00  0.00    +0.000 A 
ATOM     15  C   UNL     1      10.012  14.476  19.551  0.00  0.00    +0.000 A 
ATOM     16  C   UNL     1       9.733  13.581  18.519  0.00  0.00    +0.000 A 
ATOM     17  C   UNL     1       9.559  12.255  18.849  0.00  0.00    +0.000 A 
ATOM     18  O   UNL     1       9.272  11.271  17.940  0.00  0.00    +0.000 OA
ENDBRANCH   2  10
BRANCH   7  19
ATOM     19  C   UNL     1       5.196   4.202  17.146  0.00  0.00    +0.000 C 
ATOM     20  C   UNL     1       4.261   3.368  17.999  0.00  0.00    +0.000 C 
ATOM     21  C   UNL     1       3.750   4.607  17.348  0.00  0.00    +0.000 C 
ENDBRANCH   7  19
TORSDOF 2
ENDMDL
MODEL 3
REMARK VINA RESULT:      -7.1      1.317      1.505
REMARK  Name = 
REMARK  2 active torsions:
REMARK  status: ('A' for Active; 'I' for Inactive)
REMARK    1  A    between atoms: C_2  and  C_12
REMARK    2  A    between atoms: C_7  and  C_8
REMARK                            x       y       z     vdW  Elec       q    Type
REMARK                         _______ _______ _______ _____ _____    ______ ____
ROOT
ATOM      1  O   UNL     1       1.821   8.631  18.374  0.00  0.00    +0.000 OA
ATOM      2  C   UNL     1       1.884   8.068  19.466  0.00  0.00    +0.000 C 
ATOM      3  N   UNL     1       1.442   8.562  20.674  0.00  0.00    +0.000 N 
ATOM      4  C   UNL     1       0.849   9.786  20.865  0.00  0.00    +0.000 A 
ATOM      5  N   UNL     1       0.753  10.368  22.039  0.00  0.00    +0.000 NA
ATOM      6  N   UNL     1       0.164  11.621  21.948  0.00  0.00    +0.000 NA
ATOM      7  C   UNL     1      -0.219  11.887  20.717  0.00  0.00    +0.000 A 
ATOM      8  S   UNL     1       0.094  10.639  19.594  0.00  0.00    +0.000 S 
ATOM      9  H   UNL     1       1.769   8.105  21.519  0.00  0.00    +0.000 HD
ENDROOT
BRANCH   2  10
ATOM     10  C   UNL     1       2.460   6.656  19.557  0.00  0.00    +0.000 C 
ATOM     11  C   UNL     1       2.446   5.978  18.181  0.00  0.00    +0.000 C 
ATOM     12  C   UNL     1       2.095   4.603  18.600  0.00  0.00    +0.000 A 
ATOM     13  C   UNL     1       2.102   3.428  17.871  0.00  0.00    +0.000 A 
ATOM     14  C   UNL     1       1.668   2.258  18.503  0.00  0.00    +0.000 A 
ATOM     15  C   UNL     1       1.226   2.287  19.837  0.00  0.00    +0.000 A 
ATOM     16  C   UNL     1       1.218   3.482  20.556  0.00  0.00    +0.000 A 
ATOM     17  C   UNL     1       1.663   4.618  19.917  0.00  0.00    +0.000 A 
ATOM     18  O   UNL     1       1.701   5.857  20.498  0.00  0.00    +0.000 OA
ENDBRANCH   2  10
BRANCH   7  19
ATOM     19  C   UNL     1      -0.876  13.200  20.302  0.00  0.00    +0.000 C 
ATOM     20  C   UNL     1      -0.499  14.469  21.039  0.00  0.00    +0.000 C 
ATOM     21  C   UNL     1      -0.012  14.259  19.646  0.00  0.00    +0.000 C 
ENDBRANCH   7  19
TORSDOF 2
ENDMDL
MODEL 4
REMARK VINA RESULT:      -7.1      7.685     10.763
REMARK  Name = 
REMARK  2 active torsions:
REMARK  status: ('A' for Active; 'I' for Inactive)
REMARK    1  A    between atoms: C_2  and  C_12
REMARK    2  A    between atoms: C_7  and  C_8
REMARK                            x       y       z     vdW  Elec       q    Type
REMARK                         _______ _______ _______ _____ _____    ______ ____
ROOT
ATOM      1  O   UNL     1       7.723   9.567  17.677  0.00  0.00    +0.000 OA
ATOM      2  C   UNL     1       8.554   9.200  18.506  0.00  0.00    +0.000 C 
ATOM      3  N   UNL     1       8.725   7.920  18.991  0.00  0.00    +0.000 N 
ATOM      4  C   UNL     1       7.984   6.825  18.622  0.00  0.00    +0.000 A 
ATOM      5  N   UNL     1       7.931   5.716  19.327  0.00  0.00    +0.000 NA
ATOM      6  N   UNL     1       7.067   4.787  18.766  0.00  0.00    +0.000 NA
ATOM      7  C   UNL     1       6.569   5.218  17.627  0.00  0.00    +0.000 A 
ATOM      8  S   UNL     1       7.119   6.763  17.153  0.00  0.00    +0.000 S 
ATOM      9  H   UNL     1       9.275   7.805  19.834  0.00  0.00    +0.000 HD
ENDROOT
BRANCH   2  10
ATOM     10  C   UNL     1       9.558  10.205  19.067  0.00  0.00    +0.000 C 
ATOM     11  C   UNL     1       9.230  10.537  20.528  0.00  0.00    +0.000 C 
ATOM     12  C   UNL     1       9.560  11.980  20.521  0.00  0.00    +0.000 A 
ATOM     13  C   UNL     1       9.673  12.866  21.577  0.00  0.00    +0.000 A 
ATOM     14  C   UNL     1       9.949  14.205  21.286  0.00  0.00    +0.000 A 
ATOM     15  C   UNL     1      10.091  14.634  19.954  0.00  0.00    +0.000 A 
ATOM     16  C   UNL     1       9.966  13.729  18.900  0.00  0.00    +0.000 A 
ATOM     17  C   UNL     1       9.709  12.412  19.213  0.00  0.00    +0.000 A 
ATOM     18  O   UNL     1       9.554  11.421  18.281  0.00  0.00    +0.000 OA
ENDBRANCH   2  10
BRANCH   7  19
ATOM     19  C   UNL     1       5.568   4.426  16.790  0.00  0.00    +0.000 C 
ATOM     20  C   UNL     1       5.212   4.932  15.407  0.00  0.00    +0.000 C 
ATOM     21  C   UNL     1       6.071   3.723  15.545  0.00  0.00    +0.000 C 
ENDBRANCH   7  19
TORSDOF 2
ENDMDL
MODEL 5
REMARK VINA RESULT:      -7.0      2.830      3.771
REMARK  Name = 
REMARK  2 active torsions:
REMARK  status: ('A' for Active; 'I' for Inactive)
REMARK    1  A    between atoms: C_2  and  C_12
REMARK    2  A    between atoms: C_7  and  C_8
REMARK                            x       y       z     vdW  Elec       q    Type
REMARK                         _______ _______ _______ _____ _____    ______ ____
ROOT
ATOM      1  O   UNL     1       1.799   5.699  20.518  0.00  0.00    +0.000 OA
ATOM      2  C   UNL     1       2.519   5.988  19.564  0.00  0.00    +0.000 C 
ATOM      3  N   UNL     1       2.560   7.194  18.897  0.00  0.00    +0.000 N 
ATOM      4  C   UNL     1       1.789   8.292  19.192  0.00  0.00    +0.000 A 
ATOM      5  N   UNL     1       1.596   9.286  18.354  0.00  0.00    +0.000 NA
ATOM      6  N   UNL     1       0.733  10.240  18.874  0.00  0.00    +0.000 NA
ATOM      7  C   UNL     1       0.377   9.949  20.107  0.00  0.00    +0.000 A 
ATOM      8  S   UNL     1       1.070   8.515  20.723  0.00  0.00    +0.000 S 
ATOM      9  H   UNL     1       3.016   7.218  17.992  0.00  0.00    +0.000 HD
ENDROOT
BRANCH   2  10
ATOM     10  C   UNL     1       3.527   4.967  19.039  0.00  0.00    +0.000 C 
ATOM     11  C   UNL     1       4.958   5.389  19.394  0.00  0.00    +0.000 C 
ATOM     12  C   UNL     1       5.644   4.963  18.154  0.00  0.00    +0.000 A 
ATOM     13  C   UNL     1       6.996   4.876  17.877  0.00  0.00    +0.000 A 
ATOM     14  C   UNL     1       7.380   4.488  16.590  0.00  0.00    +0.000 A 
ATOM     15  C   UNL     1       6.414   4.210  15.606  0.00  0.00    +0.000 A 
ATOM     16  C   UNL     1       5.055   4.310  15.900  0.00  0.00    +0.000 A 
ATOM     17  C   UNL     1       4.700   4.680  17.179  0.00  0.00    +0.000 A 
ATOM     18  O   UNL     1       3.406   4.826  17.602  0.00  0.00    +0.000 OA
ENDBRANCH   2  10
BRANCH   7  19
ATOM     19  C   UNL     1      -0.585  10.799  20.932  0.00  0.00    +0.000 C 
ATOM     20  C   UNL     1      -0.482  10.758  22.443  0.00  0.00    +0.000 C 
ATOM     21  C   UNL     1      -0.022  11.971  21.710  0.00  0.00    +0.000 C 
ENDBRANCH   7  19
TORSDOF 2
ENDMDL
MODEL 6
REMARK VINA RESULT:      -7.0      1.391      1.592
REMARK  Name = 
REMARK  2 active torsions:
REMARK  status: ('A' for Active; 'I' for Inactive)
REMARK    1  A    between atoms: C_2  and  C_12
REMARK    2  A    between atoms: C_7  and  C_8
REMARK                            x       y       z     vdW  Elec       q    Type
REMARK                         _______ _______ _______ _____ _____    ______ ____
ROOT
ATOM      1  O   UNL     1       2.242   8.579  17.954  0.00  0.00    +0.000 OA
ATOM      2  C   UNL     1       2.402   7.619  18.705  0.00  0.00    +0.000 C 
ATOM      3  N   UNL     1       2.060   7.549  20.039  0.00  0.00    +0.000 N 
ATOM      4  C   UNL     1       1.474   8.558  20.763  0.00  0.00    +0.000 A 
ATOM      5  N   UNL     1       1.472   8.598  22.077  0.00  0.00    +0.000 NA
ATOM      6  N   UNL     1       0.866   9.750  22.558  0.00  0.00    +0.000 NA
ATOM      7  C   UNL     1       0.378  10.483  21.581  0.00  0.00    +0.000 A 
ATOM      8  S   UNL     1       0.606   9.826  20.021  0.00  0.00    +0.000 S 
ATOM      9  H   UNL     1       2.461   6.799  20.591  0.00  0.00    +0.000 HD
ENDROOT
BRANCH   2  10
ATOM     10  C   UNL     1       2.997   6.322  18.159  0.00  0.00    +0.000 C 
ATOM     11  C   UNL     1       1.887   5.315  17.832  0.00  0.00    +0.000 C 
ATOM     12  C   UNL     1       2.561   4.071  18.266  0.00  0.00    +0.000 A 
ATOM     13  C   UNL     1       2.192   2.753  18.074  0.00  0.00    +0.000 A 
ATOM     14  C   UNL     1       2.993   1.756  18.640  0.00  0.00    +0.000 A 
ATOM     15  C   UNL     1       4.130   2.093  19.395  0.00  0.00    +0.000 A 
ATOM     16  C   UNL     1       4.483   3.428  19.587  0.00  0.00    +0.000 A 
ATOM     17  C   UNL     1       3.688   4.393  19.006  0.00  0.00    +0.000 A 
ATOM     18  O   UNL     1       3.912   5.738  19.120  0.00  0.00    +0.000 OA
ENDBRANCH   2  10
BRANCH   7  19
ATOM     19  C   UNL     1      -0.324  11.821  21.797  0.00  0.00    +0.000 C 
ATOM     20  C   UNL     1      -1.641  12.076  21.092  0.00  0.00    +0.000 C 
ATOM     21  C   UNL     1      -1.633  11.829  22.561  0.00  0.00    +0.000 C 
ENDBRANCH   7  19
TORSDOF 2
ENDMDL
MODEL 7
REMARK VINA RESULT:      -6.9      2.154      2.885
REMARK  Name = 
REMARK  2 active torsions:
REMARK  status: ('A' for Active; 'I' for Inactive)
REMARK    1  A    between atoms: C_2  and  C_12
REMARK    2  A    between atoms: C_7  and  C_8
REMARK                            x       y       z     vdW  Elec       q    Type
REMARK                         _______ _______ _______ _____ _____    ______ ____
ROOT
ATOM      1  O   UNL     1       1.541   9.370  18.338  0.00  0.00    +0.000 OA
ATOM      2  C   UNL     1       1.827   8.368  18.991  0.00  0.00    +0.000 C 
ATOM      3  N   UNL     1       1.581   8.160  20.332  0.00  0.00    +0.000 N 
ATOM      4  C   UNL     1       0.967   9.053  21.175  0.00  0.00    +0.000 A 
ATOM      5  N   UNL     1       1.050   8.985  22.486  0.00  0.00    +0.000 NA
ATOM      6  N   UNL     1       0.389  10.038  23.101  0.00  0.00    +0.000 NA
ATOM      7  C   UNL     1      -0.219  10.806  22.222  0.00  0.00    +0.000 A 
ATOM      8  S   UNL     1      -0.045  10.301  20.601  0.00  0.00    +0.000 S 
ATOM      9  H   UNL     1       2.076   7.404  20.791  0.00  0.00    +0.000 HD
ENDROOT
BRANCH   2  10
ATOM     10  C   UNL     1       2.484   7.175  18.300  0.00  0.00    +0.000 C 
ATOM     11  C   UNL     1       3.066   6.205  19.335  0.00  0.00    +0.000 C 
ATOM     12  C   UNL     1       4.300   5.809  18.620  0.00  0.00    +0.000 A 
ATOM     13  C   UNL     1       5.204   4.803  18.907  0.00  0.00    +0.000 A 
ATOM     14  C   UNL     1       6.329   4.676  18.087  0.00  0.00    +0.000 A 
ATOM     15  C   UNL     1       6.536   5.558  17.012  0.00  0.00    +0.000 A 
ATOM     16  C   UNL     1       5.619   6.573  16.741  0.00  0.00    +0.000 A 
ATOM     17  C   UNL     1       4.510   6.669  17.553  0.00  0.00    +0.000 A 
ATOM     18  O   UNL     1       3.536   7.621  17.409  0.00  0.00    +0.000 OA
ENDBRANCH   2  10
BRANCH   7  19
ATOM     19  C   UNL     1      -1.009  12.057  22.597  0.00  0.00    +0.000 C 
ATOM     20  C   UNL     1      -2.220  12.431  21.767  0.00  0.00    +0.000 C 
ATOM     21  C   UNL     1      -2.413  11.885  23.140  0.00  0.00    +0.000 C 
ENDBRANCH   7  19
TORSDOF 2
ENDMDL
MODEL 8
REMARK VINA RESULT:      -6.8      2.213      7.916
REMARK  Name = 
REMARK  2 active torsions:
REMARK  status: ('A' for Active; 'I' for Inactive)
REMARK    1  A    between atoms: C_2  and  C_12
REMARK    2  A    between atoms: C_7  and  C_8
REMARK                            x       y       z     vdW  Elec       q    Type
REMARK                         _______ _______ _______ _____ _____    ______ ____
ROOT
ATOM      1  O   UNL     1       1.770   8.512  18.651  0.00  0.00    +0.000 OA
ATOM      2  C   UNL     1       1.617   8.478  19.871  0.00  0.00    +0.000 C 
ATOM      3  N   UNL     1       1.794   7.385  20.693  0.00  0.00    +0.000 N 
ATOM      4  C   UNL     1       2.177   6.133  20.280  0.00  0.00    +0.000 A 
ATOM      5  N   UNL     1       2.009   5.049  21.005  0.00  0.00    +0.000 NA
ATOM      6  N   UNL     1       2.428   3.909  20.335  0.00  0.00    +0.000 NA
ATOM      7  C   UNL     1       2.956   4.202  19.166  0.00  0.00    +0.000 A 
ATOM      8  S   UNL     1       2.995   5.871  18.805  0.00  0.00    +0.000 S 
ATOM      9  H   UNL     1       1.407   7.431  21.629  0.00  0.00    +0.000 HD
ENDROOT
BRANCH   2  10
ATOM     10  C   UNL     1       1.233   9.751  20.623  0.00  0.00    +0.000 C 
ATOM     11  C   UNL     1       0.682   9.411  22.014  0.00  0.00    +0.000 C 
ATOM     12  C   UNL     1      -0.384  10.434  22.101  0.00  0.00    +0.000 A 
ATOM     13  C   UNL     1      -1.155  10.815  23.183  0.00  0.00    +0.000 A 
ATOM     14  C   UNL     1      -2.142  11.785  22.979  0.00  0.00    +0.000 A 
ATOM     15  C   UNL     1      -2.348  12.340  21.704  0.00  0.00    +0.000 A 
ATOM     16  C   UNL     1      -1.567  11.937  20.621  0.00  0.00    +0.000 A 
ATOM     17  C   UNL     1      -0.590  10.992  20.850  0.00  0.00    +0.000 A 
ATOM     18  O   UNL     1       0.241  10.500  19.879  0.00  0.00    +0.000 OA
ENDBRANCH   2  10
BRANCH   7  19
ATOM     19  C   UNL     1       3.483   3.154  18.189  0.00  0.00    +0.000 C 
ATOM     20  C   UNL     1       3.390   1.690  18.571  0.00  0.00    +0.000 C 
ATOM     21  C   UNL     1       2.485   2.232  17.518  0.00  0.00    +0.000 C 
ENDBRANCH   7  19
TORSDOF 2
ENDMDL
MODEL 9
REMARK VINA RESULT:      -6.7      2.187      8.054
REMARK  Name = 
REMARK  2 active torsions:
REMARK  status: ('A' for Active; 'I' for Inactive)
REMARK    1  A    between atoms: C_2  and  C_12
REMARK    2  A    between atoms: C_7  and  C_8
REMARK                            x       y       z     vdW  Elec       q    Type
REMARK                         _______ _______ _______ _____ _____    ______ ____
ROOT
ATOM      1  O   UNL     1       1.578   8.706  19.371  0.00  0.00    +0.000 OA
ATOM      2  C   UNL     1       1.419   8.394  20.550  0.00  0.00    +0.000 C 
ATOM      3  N   UNL     1       1.472   7.122  21.079  0.00  0.00    +0.000 N 
ATOM      4  C   UNL     1       1.715   5.973  20.367  0.00  0.00    +0.000 A 
ATOM      5  N   UNL     1       1.427   4.771  20.812  0.00  0.00    +0.000 NA
ATOM      6  N   UNL     1       1.719   3.789  19.877  0.00  0.00    +0.000 NA
ATOM      7  C   UNL     1       2.280   4.299  18.801  0.00  0.00    +0.000 A 
ATOM      8  S   UNL     1       2.503   5.990  18.853  0.00  0.00    +0.000 S 
ATOM      9  H   UNL     1       1.089   6.980  22.007  0.00  0.00    +0.000 HD
ENDROOT
BRANCH   2  10
ATOM     10  C   UNL     1       1.175   9.480  21.595  0.00  0.00    +0.000 C 
ATOM     11  C   UNL     1      -0.136   9.221  22.347  0.00  0.00    +0.000 C 
ATOM     12  C   UNL     1      -0.608  10.617  22.487  0.00  0.00    +0.000 A 
ATOM     13  C   UNL     1      -1.649  11.127  23.240  0.00  0.00    +0.000 A 
ATOM     14  C   UNL     1      -1.917  12.496  23.151  0.00  0.00    +0.000 A 
ATOM     15  C   UNL     1      -1.156  13.322  22.304  0.00  0.00    +0.000 A 
ATOM     16  C   UNL     1      -0.114  12.790  21.545  0.00  0.00    +0.000 A 
ATOM     17  C   UNL     1       0.141  11.441  21.661  0.00  0.00    +0.000 A 
ATOM     18  O   UNL     1       1.124  10.786  20.969  0.00  0.00    +0.000 OA
ENDBRANCH   2  10
BRANCH   7  19
ATOM     19  C   UNL     1       2.690   3.468  17.588  0.00  0.00    +0.000 C 
ATOM     20  C   UNL     1       4.089   3.635  17.030  0.00  0.00    +0.000 C 
ATOM     21  C   UNL     1       3.742   2.393  17.777  0.00  0.00    +0.000 C 
ENDBRANCH   7  19
TORSDOF 2
ENDMDL
