MODEL 1
REMARK VINA RESULT:      -6.7      0.000      0.000
REMARK  Name = 
REMARK  13 active torsions:
REMARK  status: ('A' for Active; 'I' for Inactive)
REMARK    1  A    between atoms: O_1  and  C_2
REMARK    2  A    between atoms: C_2  and  C_3
REMARK    3  A    between atoms: C_5  and  S_6
REMARK    4  A    between atoms: S_6  and  S_7
REMARK    5  A    between atoms: S_7  and  C_8
REMARK    6  A    between atoms: C_10  and  C_11
REMARK    7  A    between atoms: C_11  and  O_12
REMARK    8  A    between atoms: C_13  and  O_14
REMARK    9  A    between atoms: C_15  and  O_16
REMARK   10  A    between atoms: C_17  and  O_18
REMARK   11  A    between atoms: C_19  and  O_20
REMARK   12  A    between atoms: C_21  and  O_22
REMARK   13  A    between atoms: C_23  and  O_24
REMARK                            x       y       z     vdW  Elec       q    Type
REMARK                         _______ _______ _______ _____ _____    ______ ____
ROOT
ATOM      1  S   UNL     1       2.260   7.738  18.198  0.00  0.00    +0.000 S 
ENDROOT
BRANCH   1   4
ATOM      2  C   UNL     1       0.058   9.299  21.218  0.00  0.00    +0.000 C 
ATOM      3  O   UNL     1       0.573   8.414  20.209  0.00  0.00    +0.000 OA
ATOM      4  C   UNL     1       1.612   8.978  19.402  0.00  0.00    +0.000 C 
ATOM      5  C   UNL     1       1.137  10.259  18.686  0.00  0.00    +0.000 C 
ATOM      6  C   UNL     1       0.608  11.270  19.707  0.00  0.00    +0.000 C 
ATOM      7  C   UNL     1      -0.439  10.612  20.619  0.00  0.00    +0.000 C 
BRANCH   5   8
ATOM      8  O   UNL     1       0.054  10.031  17.757  0.00  0.00    +0.000 OA
ATOM      9  H   UNL     1      -0.482  10.850  17.746  0.00  0.00    +0.000 HD
ENDBRANCH   5   8
BRANCH   6  10
ATOM     10  O   UNL     1      -0.009  12.377  19.023  0.00  0.00    +0.000 OA
ATOM     11  H   UNL     1      -0.791  11.995  18.570  0.00  0.00    +0.000 HD
ENDBRANCH   6  10
BRANCH   7  12
ATOM     12  O   UNL     1      -0.848  11.509  21.665  0.00  0.00    +0.000 OA
ATOM     13  H   UNL     1      -1.824  11.544  21.640  0.00  0.00    +0.000 HD
ENDBRANCH   7  12
BRANCH   2  14
ATOM     14  C   UNL     1       1.043   9.489  22.405  0.00  0.00    +0.000 C 
BRANCH  14  15
ATOM     15  O   UNL     1       0.371   9.720  23.640  0.00  0.00    +0.000 OA
ATOM     16  H   UNL     1       0.677  10.589  23.962  0.00  0.00    +0.000 HD
ENDBRANCH  14  15
ENDBRANCH   2  14
ENDBRANCH   1   4
BRANCH   1  17
ATOM     17  S   UNL     1       3.164   6.282  19.341  0.00  0.00    +0.000 S 
BRANCH  17  18
ATOM     18  C   UNL     1       3.282   4.883  18.172  0.00  0.00    +0.000 C 
ATOM     19  O   UNL     1       2.033   4.202  17.932  0.00  0.00    +0.000 OA
ATOM     20  C   UNL     1       1.587   3.234  18.897  0.00  0.00    +0.000 C 
ATOM     21  C   UNL     1       2.684   2.203  19.213  0.00  0.00    +0.000 C 
ATOM     22  C   UNL     1       3.994   2.898  19.589  0.00  0.00    +0.000 C 
ATOM     23  C   UNL     1       4.428   3.914  18.520  0.00  0.00    +0.000 C 
BRANCH  21  24
ATOM     24  O   UNL     1       2.950   1.385  18.046  0.00  0.00    +0.000 OA
ATOM     25  H   UNL     1       2.211   0.760  17.937  0.00  0.00    +0.000 HD
ENDBRANCH  21  24
BRANCH  22  26
ATOM     26  O   UNL     1       5.025   1.912  19.756  0.00  0.00    +0.000 OA
ATOM     27  H   UNL     1       5.676   2.334  20.354  0.00  0.00    +0.000 HD
ENDBRANCH  22  26
BRANCH  23  28
ATOM     28  O   UNL     1       4.868   3.241  17.319  0.00  0.00    +0.000 OA
ATOM     29  H   UNL     1       5.011   3.918  16.634  0.00  0.00    +0.000 HD
ENDBRANCH  23  28
BRANCH  20  30
ATOM     30  C   UNL     1       0.926   3.854  20.136  0.00  0.00    +0.000 C 
BRANCH  30  31
ATOM     31  O   UNL     1       0.800   2.874  21.160  0.00  0.00    +0.000 OA
ATOM     32  H   UNL     1       0.118   2.240  20.875  0.00  0.00    +0.000 HD
ENDBRANCH  30  31
ENDBRANCH  20  30
ENDBRANCH  17  18
ENDBRANCH   1  17
TORSDOF 13
ENDMDL
MODEL 2
REMARK VINA RESULT:      -6.4      0.993      1.154
REMARK  Name = 
REMARK  13 active torsions:
REMARK  status: ('A' for Active; 'I' for Inactive)
REMARK    1  A    between atoms: O_1  and  C_2
REMARK    2  A    between atoms: C_2  and  C_3
REMARK    3  A    between atoms: C_5  and  S_6
REMARK    4  A    between atoms: S_6  and  S_7
REMARK    5  A    between atoms: S_7  and  C_8
REMARK    6  A    between atoms: C_10  and  C_11
REMARK    7  A    between atoms: C_11  and  O_12
REMARK    8  A    between atoms: C_13  and  O_14
REMARK    9  A    between atoms: C_15  and  O_16
REMARK   10  A    between atoms: C_17  and  O_18
REMARK   11  A    between atoms: C_19  and  O_20
REMARK   12  A    between atoms: C_21  and  O_22
REMARK   13  A    between atoms: C_23  and  O_24
REMARK                            x       y       z     vdW  Elec       q    Type
REMARK                         _______ _______ _______ _____ _____    ______ ____
ROOT
ATOM      1  S   UNL     1       2.572   7.882  18.157  0.00  0.00    +0.000 S 
ENDROOT
BRANCH   1   4
ATOM      2  C   UNL     1       0.194   9.174  21.170  0.00  0.00    +0.000 C 
ATOM      3  O   UNL     1       0.810   8.357  20.160  0.00  0.00    +0.000 OA
ATOM      4  C   UNL     1       1.786   9.036  19.364  0.00  0.00    +0.000 C 
ATOM      5  C   UNL     1       1.178  10.262  18.651  0.00  0.00    +0.000 C 
ATOM      6  C   UNL     1       0.535  11.203  19.674  0.00  0.00    +0.000 C 
ATOM      7  C   UNL     1      -0.440  10.429  20.575  0.00  0.00    +0.000 C 
BRANCH   5   8
ATOM      8  O   UNL     1       0.132   9.923  17.714  0.00  0.00    +0.000 OA
ATOM      9  H   UNL     1      -0.085  10.744  17.227  0.00  0.00    +0.000 HD
ENDBRANCH   5   8
BRANCH   6  10
ATOM     10  O   UNL     1      -0.195  12.240  18.992  0.00  0.00    +0.000 OA
ATOM     11  H   UNL     1      -1.088  11.865  18.834  0.00  0.00    +0.000 HD
ENDBRANCH   6  10
BRANCH   7  12
ATOM     12  O   UNL     1      -0.951  11.269  21.623  0.00  0.00    +0.000 OA
ATOM     13  H   UNL     1      -0.218  11.854  21.897  0.00  0.00    +0.000 HD
ENDBRANCH   7  12
BRANCH   2  14
ATOM     14  C   UNL     1       1.145   9.463  22.365  0.00  0.00    +0.000 C 
BRANCH  14  15
ATOM     15  O   UNL     1       0.439   9.701  23.579  0.00  0.00    +0.000 OA
ATOM     16  H   UNL     1       1.092   9.618  24.299  0.00  0.00    +0.000 HD
ENDBRANCH  14  15
ENDBRANCH   2  14
ENDBRANCH   1   4
BRANCH   1  17
ATOM     17  S   UNL     1       3.054   6.198  19.241  0.00  0.00    +0.000 S 
BRANCH  17  18
ATOM     18  C   UNL     1       2.076   4.900  18.405  0.00  0.00    +0.000 C 
ATOM     19  O   UNL     1       1.052   4.305  19.229  0.00  0.00    +0.000 OA
ATOM     20  C   UNL     1       1.435   3.282  20.163  0.00  0.00    +0.000 C 
ATOM     21  C   UNL     1       2.257   2.174  19.482  0.00  0.00    +0.000 C 
ATOM     22  C   UNL     1       3.427   2.768  18.695  0.00  0.00    +0.000 C 
ATOM     23  C   UNL     1       2.960   3.849  17.707  0.00  0.00    +0.000 C 
BRANCH  21  24
ATOM     24  O   UNL     1       1.429   1.447  18.540  0.00  0.00    +0.000 OA
ATOM     25  H   UNL     1       1.838   1.513  17.659  0.00  0.00    +0.000 HD
ENDBRANCH  21  24
BRANCH  22  26
ATOM     26  O   UNL     1       4.096   1.721  17.974  0.00  0.00    +0.000 OA
ATOM     27  H   UNL     1       4.654   1.278  18.646  0.00  0.00    +0.000 HD
ENDBRANCH  22  26
BRANCH  23  28
ATOM     28  O   UNL     1       2.227   3.260  16.609  0.00  0.00    +0.000 OA
ATOM     29  H   UNL     1       2.218   3.905  15.879  0.00  0.00    +0.000 HD
ENDBRANCH  23  28
BRANCH  20  30
ATOM     30  C   UNL     1       2.056   3.826  21.457  0.00  0.00    +0.000 C 
BRANCH  30  31
ATOM     31  O   UNL     1       2.587   2.753  22.228  0.00  0.00    +0.000 OA
ATOM     32  H   UNL     1       2.683   1.987  21.634  0.00  0.00    +0.000 HD
ENDBRANCH  30  31
ENDBRANCH  20  30
ENDBRANCH  17  18
ENDBRANCH   1  17
TORSDOF 13
ENDMDL
MODEL 3
REMARK VINA RESULT:      -6.4      1.399      2.664
REMARK  Name = 
REMARK  13 active torsions:
REMARK  status: ('A' for Active; 'I' for Inactive)
REMARK    1  A    between atoms: O_1  and  C_2
REMARK    2  A    between atoms: C_2  and  C_3
REMARK    3  A    between atoms: C_5  and  S_6
REMARK    4  A    between atoms: S_6  and  S_7
REMARK    5  A    between atoms: S_7  and  C_8
REMARK    6  A    between atoms: C_10  and  C_11
REMARK    7  A    between atoms: C_11  and  O_12
REMARK    8  A    between atoms: C_13  and  O_14
REMARK    9  A    between atoms: C_15  and  O_16
REMARK   10  A    between atoms: C_17  and  O_18
REMARK   11  A    between atoms: C_19  and  O_20
REMARK   12  A    between atoms: C_21  and  O_22
REMARK   13  A    between atoms: C_23  and  O_24
REMARK                            x       y       z     vdW  Elec       q    Type
REMARK                         _______ _______ _______ _____ _____    ______ ____
ROOT
ATOM      1  S   UNL     1       2.239   7.659  19.570  0.00  0.00    +0.000 S 
ENDROOT
BRANCH   1   4
ATOM      2  C   UNL     1       0.107  11.033  20.260  0.00  0.00    +0.000 C 
ATOM      3  O   UNL     1       1.125  10.117  19.824  0.00  0.00    +0.000 OA
ATOM      4  C   UNL     1       0.927   8.765  20.250  0.00  0.00    +0.000 C 
ATOM      5  C   UNL     1       0.849   8.664  21.787  0.00  0.00    +0.000 C 
ATOM      6  C   UNL     1      -0.247   9.588  22.323  0.00  0.00    +0.000 C 
ATOM      7  C   UNL     1      -0.062  11.012  21.777  0.00  0.00    +0.000 C 
BRANCH   5   8
ATOM      8  O   UNL     1       2.068   9.067  22.452  0.00  0.00    +0.000 OA
ATOM      9  H   UNL     1       1.827   9.267  23.380  0.00  0.00    +0.000 HD
ENDBRANCH   5   8
BRANCH   6  10
ATOM     10  O   UNL     1      -0.185   9.635  23.761  0.00  0.00    +0.000 OA
ATOM     11  H   UNL     1      -0.153  10.590  23.986  0.00  0.00    +0.000 HD
ENDBRANCH   6  10
BRANCH   7  12
ATOM     12  O   UNL     1      -1.156  11.859  22.165  0.00  0.00    +0.000 OA
ATOM     13  H   UNL     1      -0.764  12.681  22.518  0.00  0.00    +0.000 HD
ENDBRANCH   7  12
BRANCH   2  14
ATOM     14  C   UNL     1      -1.227  10.856  19.483  0.00  0.00    +0.000 C 
BRANCH  14  15
ATOM     15  O   UNL     1      -1.948  12.078  19.353  0.00  0.00    +0.000 OA
ATOM     16  H   UNL     1      -1.283  12.776  19.203  0.00  0.00    +0.000 HD
ENDBRANCH  14  15
ENDBRANCH   2  14
ENDBRANCH   1   4
BRANCH   1  17
ATOM     17  S   UNL     1       1.924   5.825  20.457  0.00  0.00    +0.000 S 
BRANCH  17  18
ATOM     18  C   UNL     1       2.187   4.668  19.067  0.00  0.00    +0.000 C 
ATOM     19  O   UNL     1       1.770   3.313  19.335  0.00  0.00    +0.000 OA
ATOM     20  C   UNL     1       2.653   2.463  20.086  0.00  0.00    +0.000 C 
ATOM     21  C   UNL     1       4.073   2.458  19.493  0.00  0.00    +0.000 C 
ATOM     22  C   UNL     1       4.592   3.885  19.308  0.00  0.00    +0.000 C 
ATOM     23  C   UNL     1       3.615   4.746  18.493  0.00  0.00    +0.000 C 
BRANCH  21  24
ATOM     24  O   UNL     1       4.065   1.829  18.188  0.00  0.00    +0.000 OA
ATOM     25  H   UNL     1       3.365   1.152  18.178  0.00  0.00    +0.000 HD
ENDBRANCH  21  24
BRANCH  22  26
ATOM     26  O   UNL     1       5.863   3.846  18.642  0.00  0.00    +0.000 OA
ATOM     27  H   UNL     1       6.087   2.894  18.593  0.00  0.00    +0.000 HD
ENDBRANCH  22  26
BRANCH  23  28
ATOM     28  O   UNL     1       3.597   4.333  17.108  0.00  0.00    +0.000 OA
ATOM     29  H   UNL     1       3.008   4.939  16.624  0.00  0.00    +0.000 HD
ENDBRANCH  23  28
BRANCH  20  30
ATOM     30  C   UNL     1       2.601   2.701  21.602  0.00  0.00    +0.000 C 
BRANCH  30  31
ATOM     31  O   UNL     1       1.263   2.560  22.068  0.00  0.00    +0.000 OA
ATOM     32  H   UNL     1       0.722   2.257  21.317  0.00  0.00    +0.000 HD
ENDBRANCH  30  31
ENDBRANCH  20  30
ENDBRANCH  17  18
ENDBRANCH   1  17
TORSDOF 13
ENDMDL
MODEL 4
REMARK VINA RESULT:      -6.3      1.023      1.123
REMARK  Name = 
REMARK  13 active torsions:
REMARK  status: ('A' for Active; 'I' for Inactive)
REMARK    1  A    between atoms: O_1  and  C_2
REMARK    2  A    between atoms: C_2  and  C_3
REMARK    3  A    between atoms: C_5  and  S_6
REMARK    4  A    between atoms: S_6  and  S_7
REMARK    5  A    between atoms: S_7  and  C_8
REMARK    6  A    between atoms: C_10  and  C_11
REMARK    7  A    between atoms: C_11  and  O_12
REMARK    8  A    between atoms: C_13  and  O_14
REMARK    9  A    between atoms: C_15  and  O_16
REMARK   10  A    between atoms: C_17  and  O_18
REMARK   11  A    between atoms: C_19  and  O_20
REMARK   12  A    between atoms: C_21  and  O_22
REMARK   13  A    between atoms: C_23  and  O_24
REMARK                            x       y       z     vdW  Elec       q    Type
REMARK                         _______ _______ _______ _____ _____    ______ ____
ROOT
ATOM      1  S   UNL     1       2.370   7.980  18.440  0.00  0.00    +0.000 S 
ENDROOT
BRANCH   1   4
ATOM      2  C   UNL     1      -0.278   9.787  20.916  0.00  0.00    +0.000 C 
ATOM      3  O   UNL     1       0.436   8.799  20.153  0.00  0.00    +0.000 OA
ATOM      4  C   UNL     1       1.462   9.332  19.310  0.00  0.00    +0.000 C 
ATOM      5  C   UNL     1       0.893  10.359  18.309  0.00  0.00    +0.000 C 
ATOM      6  C   UNL     1       0.148  11.468  19.056  0.00  0.00    +0.000 C 
ATOM      7  C   UNL     1      -0.883  10.865  20.021  0.00  0.00    +0.000 C 
BRANCH   5   8
ATOM      8  O   UNL     1      -0.064   9.792  17.385  0.00  0.00    +0.000 OA
ATOM      9  H   UNL     1       0.121  10.191  16.511  0.00  0.00    +0.000 HD
ENDBRANCH   5   8
BRANCH   6  10
ATOM     10  O   UNL     1      -0.542  12.312  18.114  0.00  0.00    +0.000 OA
ATOM     11  H   UNL     1       0.167  12.772  17.615  0.00  0.00    +0.000 HD
ENDBRANCH   6  10
BRANCH   7  12
ATOM     12  O   UNL     1      -1.497  11.886  20.825  0.00  0.00    +0.000 OA
ATOM     13  H   UNL     1      -2.129  11.436  21.417  0.00  0.00    +0.000 HD
ENDBRANCH   7  12
BRANCH   2  14
ATOM     14  C   UNL     1       0.564  10.354  22.093  0.00  0.00    +0.000 C 
BRANCH  14  15
ATOM     15  O   UNL     1      -0.220  10.592  23.259  0.00  0.00    +0.000 OA
ATOM     16  H   UNL     1       0.410  10.756  23.986  0.00  0.00    +0.000 HD
ENDBRANCH  14  15
ENDBRANCH   2  14
ENDBRANCH   1   4
BRANCH   1  17
ATOM     17  S   UNL     1       2.272   6.353  19.700  0.00  0.00    +0.000 S 
BRANCH  17  18
ATOM     18  C   UNL     1       2.506   4.952  18.550  0.00  0.00    +0.000 C 
ATOM     19  O   UNL     1       1.854   3.732  18.960  0.00  0.00    +0.000 OA
ATOM     20  C   UNL     1       2.503   2.909  19.944  0.00  0.00    +0.000 C 
ATOM     21  C   UNL     1       3.963   2.610  19.559  0.00  0.00    +0.000 C 
ATOM     22  C   UNL     1       4.716   3.902  19.233  0.00  0.00    +0.000 C 
ATOM     23  C   UNL     1       3.984   4.737  18.171  0.00  0.00    +0.000 C 
BRANCH  21  24
ATOM     24  O   UNL     1       4.004   1.777  18.374  0.00  0.00    +0.000 OA
ATOM     25  H   UNL     1       4.933   1.550  18.192  0.00  0.00    +0.000 HD
ENDBRANCH  21  24
BRANCH  22  26
ATOM     26  O   UNL     1       6.032   3.578  18.760  0.00  0.00    +0.000 OA
ATOM     27  H   UNL     1       5.900   2.806  18.171  0.00  0.00    +0.000 HD
ENDBRANCH  22  26
BRANCH  23  28
ATOM     28  O   UNL     1       4.058   4.101  16.875  0.00  0.00    +0.000 OA
ATOM     29  H   UNL     1       3.240   4.315  16.392  0.00  0.00    +0.000 HD
ENDBRANCH  23  28
BRANCH  20  30
ATOM     30  C   UNL     1       2.318   3.405  21.385  0.00  0.00    +0.000 C 
BRANCH  30  31
ATOM     31  O   UNL     1       1.647   2.415  22.156  0.00  0.00    +0.000 OA
ATOM     32  H   UNL     1       1.110   2.878  22.823  0.00  0.00    +0.000 HD
ENDBRANCH  30  31
ENDBRANCH  20  30
ENDBRANCH  17  18
ENDBRANCH   1  17
TORSDOF 13
ENDMDL
MODEL 5
REMARK VINA RESULT:      -6.2      1.270      2.562
REMARK  Name = 
REMARK  13 active torsions:
REMARK  status: ('A' for Active; 'I' for Inactive)
REMARK    1  A    between atoms: O_1  and  C_2
REMARK    2  A    between atoms: C_2  and  C_3
REMARK    3  A    between atoms: C_5  and  S_6
REMARK    4  A    between atoms: S_6  and  S_7
REMARK    5  A    between atoms: S_7  and  C_8
REMARK    6  A    between atoms: C_10  and  C_11
REMARK    7  A    between atoms: C_11  and  O_12
REMARK    8  A    between atoms: C_13  and  O_14
REMARK    9  A    between atoms: C_15  and  O_16
REMARK   10  A    between atoms: C_17  and  O_18
REMARK   11  A    between atoms: C_19  and  O_20
REMARK   12  A    between atoms: C_21  and  O_22
REMARK   13  A    between atoms: C_23  and  O_24
REMARK                            x       y       z     vdW  Elec       q    Type
REMARK                         _______ _______ _______ _____ _____    ______ ____
ROOT
ATOM      1  S   UNL     1       2.463   7.818  18.854  0.00  0.00    +0.000 S 
ENDROOT
BRANCH   1   4
ATOM      2  C   UNL     1       0.083  10.879  20.030  0.00  0.00    +0.000 C 
ATOM      3  O   UNL     1       1.177  10.119  19.488  0.00  0.00    +0.000 OA
ATOM      4  C   UNL     1       1.054   8.703  19.654  0.00  0.00    +0.000 C 
ATOM      5  C   UNL     1       0.924   8.319  21.143  0.00  0.00    +0.000 C 
ATOM      6  C   UNL     1      -0.251   9.065  21.780  0.00  0.00    +0.000 C 
ATOM      7  C   UNL     1      -0.141  10.572  21.508  0.00  0.00    +0.000 C 
BRANCH   5   8
ATOM      8  O   UNL     1       2.086   8.667  21.929  0.00  0.00    +0.000 OA
ATOM      9  H   UNL     1       2.024   8.154  22.761  0.00  0.00    +0.000 HD
ENDBRANCH   5   8
BRANCH   6  10
ATOM     10  O   UNL     1      -0.248   8.853  23.205  0.00  0.00    +0.000 OA
ATOM     11  H   UNL     1      -0.044   9.731  23.594  0.00  0.00    +0.000 HD
ENDBRANCH   6  10
BRANCH   7  12
ATOM     12  O   UNL     1      -1.304  11.269  21.985  0.00  0.00    +0.000 OA
ATOM     13  H   UNL     1      -1.838  11.497  21.200  0.00  0.00    +0.000 HD
ENDBRANCH   7  12
BRANCH   2  14
ATOM     14  C   UNL     1      -1.204  10.768  19.167  0.00  0.00    +0.000 C 
BRANCH  14  15
ATOM     15  O   UNL     1      -0.952  10.983  17.781  0.00  0.00    +0.000 OA
ATOM     16  H   UNL     1       0.017  10.956  17.670  0.00  0.00    +0.000 HD
ENDBRANCH  14  15
ENDBRANCH   2  14
ENDBRANCH   1   4
BRANCH   1  17
ATOM     17  S   UNL     1       2.550   5.978  19.777  0.00  0.00    +0.000 S 
BRANCH  17  18
ATOM     18  C   UNL     1       3.613   5.020  18.640  0.00  0.00    +0.000 C 
ATOM     19  O   UNL     1       2.894   4.324  17.600  0.00  0.00    +0.000 OA
ATOM     20  C   UNL     1       2.270   3.069  17.924  0.00  0.00    +0.000 C 
ATOM     21  C   UNL     1       3.259   2.105  18.602  0.00  0.00    +0.000 C 
ATOM     22  C   UNL     1       3.952   2.779  19.788  0.00  0.00    +0.000 C 
ATOM     23  C   UNL     1       4.608   4.110  19.385  0.00  0.00    +0.000 C 
BRANCH  21  24
ATOM     24  O   UNL     1       4.292   1.711  17.665  0.00  0.00    +0.000 OA
ATOM     25  H   UNL     1       4.449   0.756  17.766  0.00  0.00    +0.000 HD
ENDBRANCH  21  24
BRANCH  22  26
ATOM     26  O   UNL     1       4.953   1.896  20.318  0.00  0.00    +0.000 OA
ATOM     27  H   UNL     1       5.702   2.483  20.550  0.00  0.00    +0.000 HD
ENDBRANCH  22  26
BRANCH  23  28
ATOM     28  O   UNL     1       5.765   3.880  18.549  0.00  0.00    +0.000 OA
ATOM     29  H   UNL     1       5.632   3.036  18.083  0.00  0.00    +0.000 HD
ENDBRANCH  23  28
BRANCH  20  30
ATOM     30  C   UNL     1       0.928   3.215  18.653  0.00  0.00    +0.000 C 
BRANCH  30  31
ATOM     31  O   UNL     1       0.270   1.954  18.714  0.00  0.00    +0.000 OA
ATOM     32  H   UNL     1      -0.259   1.860  17.902  0.00  0.00    +0.000 HD
ENDBRANCH  30  31
ENDBRANCH  20  30
ENDBRANCH  17  18
ENDBRANCH   1  17
TORSDOF 13
ENDMDL
MODEL 6
REMARK VINA RESULT:      -6.1      4.181      6.730
REMARK  Name = 
REMARK  13 active torsions:
REMARK  status: ('A' for Active; 'I' for Inactive)
REMARK    1  A    between atoms: O_1  and  C_2
REMARK    2  A    between atoms: C_2  and  C_3
REMARK    3  A    between atoms: C_5  and  S_6
REMARK    4  A    between atoms: S_6  and  S_7
REMARK    5  A    between atoms: S_7  and  C_8
REMARK    6  A    between atoms: C_10  and  C_11
REMARK    7  A    between atoms: C_11  and  O_12
REMARK    8  A    between atoms: C_13  and  O_14
REMARK    9  A    between atoms: C_15  and  O_16
REMARK   10  A    between atoms: C_17  and  O_18
REMARK   11  A    between atoms: C_19  and  O_20
REMARK   12  A    between atoms: C_21  and  O_22
REMARK   13  A    between atoms: C_23  and  O_24
REMARK                            x       y       z     vdW  Elec       q    Type
REMARK                         _______ _______ _______ _____ _____    ______ ____
ROOT
ATOM      1  S   UNL     1       4.667   4.668  19.568  0.00  0.00    +0.000 S 
ENDROOT
BRANCH   1   4
ATOM      2  C   UNL     1       6.380   4.157  15.933  0.00  0.00    +0.000 C 
ATOM      3  O   UNL     1       5.887   3.926  17.264  0.00  0.00    +0.000 OA
ATOM      4  C   UNL     1       5.345   5.087  17.903  0.00  0.00    +0.000 C 
ATOM      5  C   UNL     1       6.389   6.220  17.993  0.00  0.00    +0.000 C 
ATOM      6  C   UNL     1       6.933   6.548  16.600  0.00  0.00    +0.000 C 
ATOM      7  C   UNL     1       7.423   5.271  15.901  0.00  0.00    +0.000 C 
BRANCH   5   8
ATOM      8  O   UNL     1       7.541   5.878  18.797  0.00  0.00    +0.000 OA
ATOM      9  H   UNL     1       7.357   5.000  19.189  0.00  0.00    +0.000 HD
ENDBRANCH   5   8
BRANCH   6  10
ATOM     10  O   UNL     1       8.038   7.464  16.712  0.00  0.00    +0.000 OA
ATOM     11  H   UNL     1       7.630   8.355  16.760  0.00  0.00    +0.000 HD
ENDBRANCH   6  10
BRANCH   7  12
ATOM     12  O   UNL     1       7.813   5.543  14.545  0.00  0.00    +0.000 OA
ATOM     13  H   UNL     1       7.668   6.497  14.396  0.00  0.00    +0.000 HD
ENDBRANCH   7  12
BRANCH   2  14
ATOM     14  C   UNL     1       5.237   4.343  14.897  0.00  0.00    +0.000 C 
BRANCH  14  15
ATOM     15  O   UNL     1       5.623   3.952  13.583  0.00  0.00    +0.000 OA
ATOM     16  H   UNL     1       6.098   4.713  13.198  0.00  0.00    +0.000 HD
ENDBRANCH  14  15
ENDBRANCH   2  14
ENDBRANCH   1   4
BRANCH   1  17
ATOM     17  S   UNL     1       3.102   5.974  19.868  0.00  0.00    +0.000 S 
BRANCH  17  18
ATOM     18  C   UNL     1       1.693   5.074  19.129  0.00  0.00    +0.000 C 
ATOM     19  O   UNL     1       0.787   4.497  20.092  0.00  0.00    +0.000 OA
ATOM     20  C   UNL     1       1.144   3.245  20.702  0.00  0.00    +0.000 C 
ATOM     21  C   UNL     1       1.518   2.189  19.647  0.00  0.00    +0.000 C 
ATOM     22  C   UNL     1       2.571   2.733  18.679  0.00  0.00    +0.000 C 
ATOM     23  C   UNL     1       2.134   4.066  18.051  0.00  0.00    +0.000 C 
BRANCH  21  24
ATOM     24  O   UNL     1       0.352   1.836  18.862  0.00  0.00    +0.000 OA
ATOM     25  H   UNL     1       0.375   0.877  18.694  0.00  0.00    +0.000 HD
ENDBRANCH  21  24
BRANCH  22  26
ATOM     26  O   UNL     1       2.804   1.770  17.640  0.00  0.00    +0.000 OA
ATOM     27  H   UNL     1       2.677   2.270  16.807  0.00  0.00    +0.000 HD
ENDBRANCH  22  26
BRANCH  23  28
ATOM     28  O   UNL     1       1.052   3.863  17.114  0.00  0.00    +0.000 OA
ATOM     29  H   UNL     1       0.916   4.698  16.632  0.00  0.00    +0.000 HD
ENDBRANCH  23  28
BRANCH  20  30
ATOM     30  C   UNL     1       2.157   3.382  21.847  0.00  0.00    +0.000 C 
BRANCH  30  31
ATOM     31  O   UNL     1       2.920   2.186  21.964  0.00  0.00    +0.000 OA
ATOM     32  H   UNL     1       2.974   1.965  22.911  0.00  0.00    +0.000 HD
ENDBRANCH  30  31
ENDBRANCH  20  30
ENDBRANCH  17  18
ENDBRANCH   1  17
TORSDOF 13
ENDMDL
MODEL 7
REMARK VINA RESULT:      -6.1      4.421      6.417
REMARK  Name = 
REMARK  13 active torsions:
REMARK  status: ('A' for Active; 'I' for Inactive)
REMARK    1  A    between atoms: O_1  and  C_2
REMARK    2  A    between atoms: C_2  and  C_3
REMARK    3  A    between atoms: C_5  and  S_6
REMARK    4  A    between atoms: S_6  and  S_7
REMARK    5  A    between atoms: S_7  and  C_8
REMARK    6  A    between atoms: C_10  and  C_11
REMARK    7  A    between atoms: C_11  and  O_12
REMARK    8  A    between atoms: C_13  and  O_14
REMARK    9  A    between atoms: C_15  and  O_16
REMARK   10  A    between atoms: C_17  and  O_18
REMARK   11  A    between atoms: C_19  and  O_20
REMARK   12  A    between atoms: C_21  and  O_22
REMARK   13  A    between atoms: C_23  and  O_24
REMARK                            x       y       z     vdW  Elec       q    Type
REMARK                         _______ _______ _______ _____ _____    ______ ____
ROOT
ATOM      1  S   UNL     1       3.332   7.318  17.920  0.00  0.00    +0.000 S 
ENDROOT
BRANCH   1   4
ATOM      2  C   UNL     1       5.899   4.710  16.183  0.00  0.00    +0.000 C 
ATOM      3  O   UNL     1       4.706   5.330  16.691  0.00  0.00    +0.000 OA
ATOM      4  C   UNL     1       4.929   6.565  17.381  0.00  0.00    +0.000 C 
ATOM      5  C   UNL     1       5.891   6.379  18.573  0.00  0.00    +0.000 C 
ATOM      6  C   UNL     1       7.206   5.755  18.098  0.00  0.00    +0.000 C 
ATOM      7  C   UNL     1       6.932   4.482  17.283  0.00  0.00    +0.000 C 
BRANCH   5   8
ATOM      8  O   UNL     1       5.378   5.493  19.593  0.00  0.00    +0.000 OA
ATOM      9  H   UNL     1       4.733   6.011  20.115  0.00  0.00    +0.000 HD
ENDBRANCH   5   8
BRANCH   6  10
ATOM     10  O   UNL     1       8.019   5.408  19.234  0.00  0.00    +0.000 OA
ATOM     11  H   UNL     1       8.805   4.954  18.859  0.00  0.00    +0.000 HD
ENDBRANCH   6  10
BRANCH   7  12
ATOM     12  O   UNL     1       8.146   3.959  16.720  0.00  0.00    +0.000 OA
ATOM     13  H   UNL     1       8.228   4.340  15.825  0.00  0.00    +0.000 HD
ENDBRANCH   7  12
BRANCH   2  14
ATOM     14  C   UNL     1       6.467   5.444  14.936  0.00  0.00    +0.000 C 
BRANCH  14  15
ATOM     15  O   UNL     1       6.957   4.541  13.949  0.00  0.00    +0.000 OA
ATOM     16  H   UNL     1       7.858   4.291  14.227  0.00  0.00    +0.000 HD
ENDBRANCH  14  15
ENDBRANCH   2  14
ENDBRANCH   1   4
BRANCH   1  17
ATOM     17  S   UNL     1       2.661   6.134  19.467  0.00  0.00    +0.000 S 
BRANCH  17  18
ATOM     18  C   UNL     1       1.790   4.792  18.583  0.00  0.00    +0.000 C 
ATOM     19  O   UNL     1       0.831   4.075  19.388  0.00  0.00    +0.000 OA
ATOM     20  C   UNL     1       1.315   3.050  20.274  0.00  0.00    +0.000 C 
ATOM     21  C   UNL     1       2.222   2.049  19.537  0.00  0.00    +0.000 C 
ATOM     22  C   UNL     1       3.326   2.777  18.767  0.00  0.00    +0.000 C 
ATOM     23  C   UNL     1       2.754   3.854  17.832  0.00  0.00    +0.000 C 
BRANCH  21  24
ATOM     24  O   UNL     1       1.449   1.293  18.572  0.00  0.00    +0.000 OA
ATOM     25  H   UNL     1       2.063   0.747  18.049  0.00  0.00    +0.000 HD
ENDBRANCH  21  24
BRANCH  22  26
ATOM     26  O   UNL     1       4.075   1.825  17.996  0.00  0.00    +0.000 OA
ATOM     27  H   UNL     1       3.506   1.028  17.967  0.00  0.00    +0.000 HD
ENDBRANCH  22  26
BRANCH  23  28
ATOM     28  O   UNL     1       2.062   3.250  16.715  0.00  0.00    +0.000 OA
ATOM     29  H   UNL     1       1.122   3.497  16.780  0.00  0.00    +0.000 HD
ENDBRANCH  23  28
BRANCH  20  30
ATOM     30  C   UNL     1       1.901   3.590  21.585  0.00  0.00    +0.000 C 
BRANCH  30  31
ATOM     31  O   UNL     1       2.672   2.579  22.224  0.00  0.00    +0.000 OA
ATOM     32  H   UNL     1       2.858   2.882  23.130  0.00  0.00    +0.000 HD
ENDBRANCH  30  31
ENDBRANCH  20  30
ENDBRANCH  17  18
ENDBRANCH   1  17
TORSDOF 13
ENDMDL
MODEL 8
REMARK VINA RESULT:      -6.1      3.631      6.278
REMARK  Name = 
REMARK  13 active torsions:
REMARK  status: ('A' for Active; 'I' for Inactive)
REMARK    1  A    between atoms: O_1  and  C_2
REMARK    2  A    between atoms: C_2  and  C_3
REMARK    3  A    between atoms: C_5  and  S_6
REMARK    4  A    between atoms: S_6  and  S_7
REMARK    5  A    between atoms: S_7  and  C_8
REMARK    6  A    between atoms: C_10  and  C_11
REMARK    7  A    between atoms: C_11  and  O_12
REMARK    8  A    between atoms: C_13  and  O_14
REMARK    9  A    between atoms: C_15  and  O_16
REMARK   10  A    between atoms: C_17  and  O_18
REMARK   11  A    between atoms: C_19  and  O_20
REMARK   12  A    between atoms: C_21  and  O_22
REMARK   13  A    between atoms: C_23  and  O_24
REMARK                            x       y       z     vdW  Elec       q    Type
REMARK                         _______ _______ _______ _____ _____    ______ ____
ROOT
ATOM      1  S   UNL     1       3.378   7.482  17.940  0.00  0.00    +0.000 S 
ENDROOT
BRANCH   1   4
ATOM      2  C   UNL     1       1.462   3.915  18.075  0.00  0.00    +0.000 C 
ATOM      3  O   UNL     1       1.799   5.284  17.789  0.00  0.00    +0.000 OA
ATOM      4  C   UNL     1       2.989   5.747  18.436  0.00  0.00    +0.000 C 
ATOM      5  C   UNL     1       2.886   5.613  19.970  0.00  0.00    +0.000 C 
ATOM      6  C   UNL     1       2.565   4.165  20.353  0.00  0.00    +0.000 C 
ATOM      7  C   UNL     1       1.339   3.664  19.575  0.00  0.00    +0.000 C 
BRANCH   5   8
ATOM      8  O   UNL     1       1.834   6.418  20.548  0.00  0.00    +0.000 OA
ATOM      9  H   UNL     1       2.025   7.346  20.303  0.00  0.00    +0.000 HD
ENDBRANCH   5   8
BRANCH   6  10
ATOM     10  O   UNL     1       2.280   4.086  21.762  0.00  0.00    +0.000 OA
ATOM     11  H   UNL     1       1.879   3.200  21.894  0.00  0.00    +0.000 HD
ENDBRANCH   6  10
BRANCH   7  12
ATOM     12  O   UNL     1       1.105   2.268  19.825  0.00  0.00    +0.000 OA
ATOM     13  H   UNL     1       0.318   2.018  19.305  0.00  0.00    +0.000 HD
ENDBRANCH   7  12
BRANCH   2  14
ATOM     14  C   UNL     1       2.395   2.907  17.348  0.00  0.00    +0.000 C 
BRANCH  14  15
ATOM     15  O   UNL     1       3.282   2.243  18.243  0.00  0.00    +0.000 OA
ATOM     16  H   UNL     1       2.723   1.809  18.915  0.00  0.00    +0.000 HD
ENDBRANCH  14  15
ENDBRANCH   2  14
ENDBRANCH   1   4
BRANCH   1  17
ATOM     17  S   UNL     1       4.735   7.321  16.398  0.00  0.00    +0.000 S 
BRANCH  17  18
ATOM     18  C   UNL     1       6.267   6.845  17.272  0.00  0.00    +0.000 C 
ATOM     19  O   UNL     1       7.359   6.482  16.402  0.00  0.00    +0.000 OA
ATOM     20  C   UNL     1       7.378   5.157  15.844  0.00  0.00    +0.000 C 
ATOM     21  C   UNL     1       7.207   4.083  16.934  0.00  0.00    +0.000 C 
ATOM     22  C   UNL     1       5.982   4.377  17.802  0.00  0.00    +0.000 C 
ATOM     23  C   UNL     1       6.018   5.801  18.378  0.00  0.00    +0.000 C 
BRANCH  21  24
ATOM     24  O   UNL     1       8.363   4.074  17.808  0.00  0.00    +0.000 OA
ATOM     25  H   UNL     1       8.718   3.168  17.835  0.00  0.00    +0.000 HD
ENDBRANCH  21  24
BRANCH  22  26
ATOM     26  O   UNL     1       5.925   3.428  18.879  0.00  0.00    +0.000 OA
ATOM     27  H   UNL     1       4.969   3.260  19.009  0.00  0.00    +0.000 HD
ENDBRANCH  22  26
BRANCH  23  28
ATOM     28  O   UNL     1       7.044   5.921  19.389  0.00  0.00    +0.000 OA
ATOM     29  H   UNL     1       7.900   5.722  18.969  0.00  0.00    +0.000 HD
ENDBRANCH  23  28
BRANCH  20  30
ATOM     30  C   UNL     1       6.451   4.982  14.633  0.00  0.00    +0.000 C 
BRANCH  30  31
ATOM     31  O   UNL     1       7.163   5.267  13.434  0.00  0.00    +0.000 OA
ATOM     32  H   UNL     1       7.622   6.117  13.561  0.00  0.00    +0.000 HD
ENDBRANCH  30  31
ENDBRANCH  20  30
ENDBRANCH  17  18
ENDBRANCH   1  17
TORSDOF 13
ENDMDL
MODEL 9
REMARK VINA RESULT:      -6.1      1.027      1.167
REMARK  Name = 
REMARK  13 active torsions:
REMARK  status: ('A' for Active; 'I' for Inactive)
REMARK    1  A    between atoms: O_1  and  C_2
REMARK    2  A    between atoms: C_2  and  C_3
REMARK    3  A    between atoms: C_5  and  S_6
REMARK    4  A    between atoms: S_6  and  S_7
REMARK    5  A    between atoms: S_7  and  C_8
REMARK    6  A    between atoms: C_10  and  C_11
REMARK    7  A    between atoms: C_11  and  O_12
REMARK    8  A    between atoms: C_13  and  O_14
REMARK    9  A    between atoms: C_15  and  O_16
REMARK   10  A    between atoms: C_17  and  O_18
REMARK   11  A    between atoms: C_19  and  O_20
REMARK   12  A    between atoms: C_21  and  O_22
REMARK   13  A    between atoms: C_23  and  O_24
REMARK                            x       y       z     vdW  Elec       q    Type
REMARK                         _______ _______ _______ _____ _____    ______ ____
ROOT
ATOM      1  S   UNL     1       1.953   8.430  18.333  0.00  0.00    +0.000 S 
ENDROOT
BRANCH   1   4
ATOM      2  C   UNL     1      -0.412   9.921  21.264  0.00  0.00    +0.000 C 
ATOM      3  O   UNL     1       0.115   9.098  20.209  0.00  0.00    +0.000 OA
ATOM      4  C   UNL     1       1.317   9.596  19.614  0.00  0.00    +0.000 C 
ATOM      5  C   UNL     1       1.113  11.011  19.031  0.00  0.00    +0.000 C 
ATOM      6  C   UNL     1       0.587  11.957  20.114  0.00  0.00    +0.000 C 
ATOM      7  C   UNL     1      -0.649  11.355  20.799  0.00  0.00    +0.000 C 
BRANCH   5   8
ATOM      8  O   UNL     1       0.143  11.057  17.960  0.00  0.00    +0.000 OA
ATOM      9  H   UNL     1      -0.684  10.671  18.315  0.00  0.00    +0.000 HD
ENDBRANCH   5   8
BRANCH   6  10
ATOM     10  O   UNL     1       0.217  13.217  19.522  0.00  0.00    +0.000 OA
ATOM     11  H   UNL     1       0.130  13.839  20.276  0.00  0.00    +0.000 HD
ENDBRANCH   6  10
BRANCH   7  12
ATOM     12  O   UNL     1      -1.074  12.169  21.904  0.00  0.00    +0.000 OA
ATOM     13  H   UNL     1      -1.439  12.991  21.523  0.00  0.00    +0.000 HD
ENDBRANCH   7  12
BRANCH   2  14
ATOM     14  C   UNL     1       0.422   9.820  22.572  0.00  0.00    +0.000 C 
BRANCH  14  15
ATOM     15  O   UNL     1      -0.395   9.794  23.738  0.00  0.00    +0.000 OA
ATOM     16  H   UNL     1      -1.088  10.468  23.605  0.00  0.00    +0.000 HD
ENDBRANCH  14  15
ENDBRANCH   2  14
ENDBRANCH   1   4
BRANCH   1  17
ATOM     17  S   UNL     1       2.506   6.732  19.362  0.00  0.00    +0.000 S 
BRANCH  17  18
ATOM     18  C   UNL     1       2.929   5.576  18.012  0.00  0.00    +0.000 C 
ATOM     19  O   UNL     1       2.130   4.375  17.987  0.00  0.00    +0.000 OA
ATOM     20  C   UNL     1       2.476   3.305  18.884  0.00  0.00    +0.000 C 
ATOM     21  C   UNL     1       3.966   2.937  18.775  0.00  0.00    +0.000 C 
ATOM     22  C   UNL     1       4.848   4.179  18.918  0.00  0.00    +0.000 C 
ATOM     23  C   UNL     1       4.440   5.285  17.932  0.00  0.00    +0.000 C 
BRANCH  21  24
ATOM     24  O   UNL     1       4.242   2.359  17.475  0.00  0.00    +0.000 OA
ATOM     25  H   UNL     1       4.616   1.470  17.608  0.00  0.00    +0.000 HD
ENDBRANCH  21  24
BRANCH  22  26
ATOM     26  O   UNL     1       6.219   3.818  18.689  0.00  0.00    +0.000 OA
ATOM     27  H   UNL     1       6.415   3.146  19.374  0.00  0.00    +0.000 HD
ENDBRANCH  22  26
BRANCH  23  28
ATOM     28  O   UNL     1       4.786   4.919  16.577  0.00  0.00    +0.000 OA
ATOM     29  H   UNL     1       5.662   5.297  16.382  0.00  0.00    +0.000 HD
ENDBRANCH  23  28
BRANCH  20  30
ATOM     30  C   UNL     1       1.980   3.517  20.321  0.00  0.00    +0.000 C 
BRANCH  30  31
ATOM     31  O   UNL     1       0.559   3.590  20.337  0.00  0.00    +0.000 OA
ATOM     32  H   UNL     1       0.309   4.285  20.972  0.00  0.00    +0.000 HD
ENDBRANCH  30  31
ENDBRANCH  20  30
ENDBRANCH  17  18
ENDBRANCH   1  17
TORSDOF 13
ENDMDL
