MODEL 1
REMARK VINA RESULT:      -8.0      0.000      0.000
REMARK  Name = 
REMARK  9 active torsions:
REMARK  status: ('A' for Active; 'I' for Inactive)
REMARK    1  A    between atoms: C_1  and  N_2
REMARK    2  A    between atoms: N_2  and  C_3
REMARK    3  A    between atoms: C_6  and  C_7
REMARK    4  A    between atoms: C_7  and  O_9
REMARK    5  A    between atoms: C_14  and  C_15
REMARK    6  A    between atoms: C_18  and  O_19
REMARK    7  A    between atoms: O_19  and  C_20
REMARK    8  A    between atoms: CA_30  and  C_31
REMARK    9  A    between atoms: C_31  and  OXT_33
REMARK                            x       y       z     vdW  Elec       q    Type
REMARK                         _______ _______ _______ _____ _____    ______ ____
ROOT
ATOM      1  C   UNL     1      -0.321  13.001  22.188  0.00  0.00    +0.000 C 
ATOM      2  N   UNL     1      -1.583  12.678  21.509  0.00  0.00    +0.000 N 
ATOM      3  C   UNL     1      -1.501  11.878  20.343  0.00  0.00    +0.000 A 
ATOM      4  C   UNL     1      -0.440  10.986  20.154  0.00  0.00    +0.000 A 
ATOM      5  C   UNL     1      -0.342  10.158  19.023  0.00  0.00    +0.000 A 
ATOM      6  C   UNL     1      -1.342  10.275  18.064  0.00  0.00    +0.000 A 
ATOM      7  CA  UNL     1      -2.357  11.184  18.289  0.00  0.00    +0.000 A 
ATOM      8  N   UNL     1      -2.466  11.972  19.401  0.00  0.00    +0.000 NA
ENDROOT
BRANCH   2   9
ATOM      9  C   UNL     1      -2.736  13.368  21.945  0.00  0.00    +0.000 A 
ATOM     10  C   UNL     1      -2.984  14.706  21.605  0.00  0.00    +0.000 A 
ATOM     11  C   UNL     1      -4.119  15.379  22.067  0.00  0.00    +0.000 A 
ATOM     12  C   UNL     1      -5.048  14.724  22.878  0.00  0.00    +0.000 A 
ATOM     13  C   UNL     1      -4.839  13.383  23.210  0.00  0.00    +0.000 A 
ATOM     14  C   UNL     1      -3.690  12.723  22.753  0.00  0.00    +0.000 A 
BRANCH  12  15
ATOM     15  C   UNL     1      -6.251  15.486  23.299  0.00  0.00    +0.000 C 
ATOM     16  O   UNL     1      -6.580  16.534  22.772  0.00  0.00    +0.000 OA
BRANCH  15  17
ATOM     17  O   UNL     1      -6.919  14.947  24.341  0.00  0.00    +0.000 OA
ATOM     18  H   UNL     1      -6.715  15.330  25.211  0.00  0.00    +0.000 HD
ENDBRANCH  15  17
ENDBRANCH  12  15
ENDBRANCH   2   9
BRANCH   5  19
ATOM     19  C   UNL     1       0.788   9.222  18.873  0.00  0.00    +0.000 A 
ATOM     20  C   UNL     1       1.193   8.388  19.932  0.00  0.00    +0.000 A 
ATOM     21  C   UNL     1       2.267   7.506  19.792  0.00  0.00    +0.000 A 
ATOM     22  C   UNL     1       2.945   7.424  18.581  0.00  0.00    +0.000 A 
ATOM     23  C   UNL     1       2.598   8.284  17.538  0.00  0.00    +0.000 A 
ATOM     24  C   UNL     1       1.514   9.152  17.675  0.00  0.00    +0.000 A 
BRANCH  22  25
ATOM     25  O   UNL     1       3.966   6.505  18.522  0.00  0.00    +0.000 OA
BRANCH  25  26
ATOM     26  C   UNL     1       3.666   5.162  18.491  0.00  0.00    +0.000 A 
ATOM     27  C   UNL     1       4.453   4.343  19.306  0.00  0.00    +0.000 A 
ATOM     28  C   UNL     1       4.240   2.965  19.320  0.00  0.00    +0.000 A 
ATOM     29  C   UNL     1       3.246   2.415  18.519  0.00  0.00    +0.000 A 
ATOM     30  F   UNL     1       3.065   1.090  18.504  0.00  0.00    +0.000 F 
ATOM     31  C   UNL     1       2.431   3.224  17.733  0.00  0.00    +0.000 A 
ATOM     32  C   UNL     1       2.620   4.605  17.744  0.00  0.00    +0.000 A 
ENDBRANCH  25  26
ENDBRANCH  22  25
ENDBRANCH   5  19
BRANCH   7  33
ATOM     33  C   UNL     1      -3.432  11.361  17.269  0.00  0.00    +0.000 C 
ATOM     34  O   UNL     1      -4.626  11.270  17.497  0.00  0.00    +0.000 OA
BRANCH  33  35
ATOM     35  OXT UNL     1      -2.903  11.636  16.056  0.00  0.00    +0.000 OA
ATOM     36  HXT UNL     1      -3.161  12.553  15.797  0.00  0.00    +0.000 HD
ENDBRANCH  33  35
ENDBRANCH   7  33
TORSDOF 8
ENDMDL
MODEL 2
REMARK VINA RESULT:      -7.9      1.974      2.545
REMARK  Name = 
REMARK  9 active torsions:
REMARK  status: ('A' for Active; 'I' for Inactive)
REMARK    1  A    between atoms: C_1  and  N_2
REMARK    2  A    between atoms: N_2  and  C_3
REMARK    3  A    between atoms: C_6  and  C_7
REMARK    4  A    between atoms: C_7  and  O_9
REMARK    5  A    between atoms: C_14  and  C_15
REMARK    6  A    between atoms: C_18  and  O_19
REMARK    7  A    between atoms: O_19  and  C_20
REMARK    8  A    between atoms: CA_30  and  C_31
REMARK    9  A    between atoms: C_31  and  OXT_33
REMARK                            x       y       z     vdW  Elec       q    Type
REMARK                         _______ _______ _______ _____ _____    ______ ____
ROOT
ATOM      1  C   UNL     1      -1.310  10.721  23.358  0.00  0.00    +0.000 C 
ATOM      2  N   UNL     1      -1.587  11.781  22.379  0.00  0.00    +0.000 N 
ATOM      3  C   UNL     1      -0.731  11.860  21.253  0.00  0.00    +0.000 A 
ATOM      4  C   UNL     1      -0.058  10.728  20.779  0.00  0.00    +0.000 A 
ATOM      5  C   UNL     1       0.776  10.765  19.650  0.00  0.00    +0.000 A 
ATOM      6  C   UNL     1       0.936  11.994  19.020  0.00  0.00    +0.000 A 
ATOM      7  CA  UNL     1       0.265  13.084  19.539  0.00  0.00    +0.000 A 
ATOM      8  N   UNL     1      -0.567  13.044  20.623  0.00  0.00    +0.000 NA
ENDROOT
BRANCH   2   9
ATOM      9  C   UNL     1      -2.537  12.759  22.752  0.00  0.00    +0.000 A 
ATOM     10  C   UNL     1      -2.245  13.777  23.672  0.00  0.00    +0.000 A 
ATOM     11  C   UNL     1      -3.206  14.720  24.046  0.00  0.00    +0.000 A 
ATOM     12  C   UNL     1      -4.490  14.677  23.498  0.00  0.00    +0.000 A 
ATOM     13  C   UNL     1      -4.799  13.690  22.559  0.00  0.00    +0.000 A 
ATOM     14  C   UNL     1      -3.831  12.741  22.203  0.00  0.00    +0.000 A 
BRANCH  12  15
ATOM     15  C   UNL     1      -5.448  15.735  23.909  0.00  0.00    +0.000 C 
ATOM     16  O   UNL     1      -6.496  15.935  23.319  0.00  0.00    +0.000 OA
BRANCH  15  17
ATOM     17  O   UNL     1      -5.041  16.484  24.955  0.00  0.00    +0.000 OA
ATOM     18  H   UNL     1      -4.151  16.867  24.875  0.00  0.00    +0.000 HD
ENDBRANCH  15  17
ENDBRANCH  12  15
ENDBRANCH   2   9
BRANCH   5  19
ATOM     19  C   UNL     1       1.455   9.544  19.177  0.00  0.00    +0.000 A 
ATOM     20  C   UNL     1       1.922   9.432  17.853  0.00  0.00    +0.000 A 
ATOM     21  C   UNL     1       2.558   8.274  17.403  0.00  0.00    +0.000 A 
ATOM     22  C   UNL     1       2.760   7.209  18.274  0.00  0.00    +0.000 A 
ATOM     23  C   UNL     1       2.253   7.275  19.573  0.00  0.00    +0.000 A 
ATOM     24  C   UNL     1       1.632   8.441  20.025  0.00  0.00    +0.000 A 
BRANCH  22  25
ATOM     25  O   UNL     1       3.425   6.122  17.756  0.00  0.00    +0.000 OA
BRANCH  25  26
ATOM     26  C   UNL     1       3.098   4.859  18.192  0.00  0.00    +0.000 A 
ATOM     27  C   UNL     1       1.850   4.379  17.785  0.00  0.00    +0.000 A 
ATOM     28  C   UNL     1       1.419   3.119  18.201  0.00  0.00    +0.000 A 
ATOM     29  C   UNL     1       2.236   2.350  19.022  0.00  0.00    +0.000 A 
ATOM     30  F   UNL     1       1.810   1.157  19.450  0.00  0.00    +0.000 F 
ATOM     31  C   UNL     1       3.497   2.800  19.401  0.00  0.00    +0.000 A 
ATOM     32  C   UNL     1       3.942   4.045  18.959  0.00  0.00    +0.000 A 
ENDBRANCH  25  26
ENDBRANCH  22  25
ENDBRANCH   5  19
BRANCH   7  33
ATOM     33  C   UNL     1       0.435  14.427  18.909  0.00  0.00    +0.000 C 
ATOM     34  O   UNL     1       1.506  14.906  18.578  0.00  0.00    +0.000 OA
BRANCH  33  35
ATOM     35  OXT UNL     1      -0.759  15.040  18.753  0.00  0.00    +0.000 OA
ATOM     36  HXT UNL     1      -0.604  15.991  18.543  0.00  0.00    +0.000 HD
ENDBRANCH  33  35
ENDBRANCH   7  33
TORSDOF 8
ENDMDL
MODEL 3
REMARK VINA RESULT:      -7.9      2.528      3.017
REMARK  Name = 
REMARK  9 active torsions:
REMARK  status: ('A' for Active; 'I' for Inactive)
REMARK    1  A    between atoms: C_1  and  N_2
REMARK    2  A    between atoms: N_2  and  C_3
REMARK    3  A    between atoms: C_6  and  C_7
REMARK    4  A    between atoms: C_7  and  O_9
REMARK    5  A    between atoms: C_14  and  C_15
REMARK    6  A    between atoms: C_18  and  O_19
REMARK    7  A    between atoms: O_19  and  C_20
REMARK    8  A    between atoms: CA_30  and  C_31
REMARK    9  A    between atoms: C_31  and  OXT_33
REMARK                            x       y       z     vdW  Elec       q    Type
REMARK                         _______ _______ _______ _____ _____    ______ ____
ROOT
ATOM      1  C   UNL     1      -1.178  10.505  23.282  0.00  0.00    +0.000 C 
ATOM      2  N   UNL     1      -1.416  11.499  22.227  0.00  0.00    +0.000 N 
ATOM      3  C   UNL     1      -0.545  11.477  21.111  0.00  0.00    +0.000 A 
ATOM      4  C   UNL     1       0.106  10.298  20.728  0.00  0.00    +0.000 A 
ATOM      5  C   UNL     1       0.955  10.234  19.611  0.00  0.00    +0.000 A 
ATOM      6  C   UNL     1       1.153  11.412  18.898  0.00  0.00    +0.000 A 
ATOM      7  CA  UNL     1       0.502  12.552  19.327  0.00  0.00    +0.000 A 
ATOM      8  N   UNL     1      -0.344  12.609  20.400  0.00  0.00    +0.000 NA
ENDROOT
BRANCH   2   9
ATOM      9  C   UNL     1      -2.346  12.523  22.516  0.00  0.00    +0.000 A 
ATOM     10  C   UNL     1      -3.607  12.587  21.903  0.00  0.00    +0.000 A 
ATOM     11  C   UNL     1      -4.504  13.621  22.183  0.00  0.00    +0.000 A 
ATOM     12  C   UNL     1      -4.166  14.621  23.098  0.00  0.00    +0.000 A 
ATOM     13  C   UNL     1      -2.928  14.567  23.743  0.00  0.00    +0.000 A 
ATOM     14  C   UNL     1      -2.032  13.533  23.443  0.00  0.00    +0.000 A 
BRANCH  12  15
ATOM     15  C   UNL     1      -5.183  15.667  23.380  0.00  0.00    +0.000 C 
ATOM     16  O   UNL     1      -5.797  16.238  22.495  0.00  0.00    +0.000 OA
BRANCH  15  17
ATOM     17  O   UNL     1      -5.333  15.964  24.687  0.00  0.00    +0.000 OA
ATOM     18  H   UNL     1      -5.226  16.902  24.918  0.00  0.00    +0.000 HD
ENDBRANCH  15  17
ENDBRANCH  12  15
ENDBRANCH   2   9
BRANCH   5  19
ATOM     19  C   UNL     1       1.609   8.967  19.236  0.00  0.00    +0.000 A 
ATOM     20  C   UNL     1       1.774   7.925  20.168  0.00  0.00    +0.000 A 
ATOM     21  C   UNL     1       2.399   6.727  19.815  0.00  0.00    +0.000 A 
ATOM     22  C   UNL     1       2.854   6.538  18.515  0.00  0.00    +0.000 A 
ATOM     23  C   UNL     1       2.755   7.580  17.592  0.00  0.00    +0.000 A 
ATOM     24  C   UNL     1       2.114   8.770  17.942  0.00  0.00    +0.000 A 
BRANCH  22  25
ATOM     25  O   UNL     1       3.426   5.316  18.247  0.00  0.00    +0.000 OA
BRANCH  25  26
ATOM     26  C   UNL     1       4.537   5.254  17.438  0.00  0.00    +0.000 A 
ATOM     27  C   UNL     1       4.385   4.533  16.249  0.00  0.00    +0.000 A 
ATOM     28  C   UNL     1       5.465   4.391  15.378  0.00  0.00    +0.000 A 
ATOM     29  C   UNL     1       6.688   4.967  15.700  0.00  0.00    +0.000 A 
ATOM     30  F   UNL     1       7.734   4.802  14.883  0.00  0.00    +0.000 F 
ATOM     31  C   UNL     1       6.841   5.720  16.861  0.00  0.00    +0.000 A 
ATOM     32  C   UNL     1       5.754   5.891  17.716  0.00  0.00    +0.000 A 
ENDBRANCH  25  26
ENDBRANCH  22  25
ENDBRANCH   5  19
BRANCH   7  33
ATOM     33  C   UNL     1       0.714  13.841  18.606  0.00  0.00    +0.000 C 
ATOM     34  O   UNL     1       1.802  14.283  18.281  0.00  0.00    +0.000 OA
BRANCH  33  35
ATOM     35  OXT UNL     1      -0.466  14.453  18.361  0.00  0.00    +0.000 OA
ATOM     36  HXT UNL     1      -1.148  14.087  18.973  0.00  0.00    +0.000 HD
ENDBRANCH  33  35
ENDBRANCH   7  33
TORSDOF 8
ENDMDL
MODEL 4
REMARK VINA RESULT:      -7.9      2.577      3.176
REMARK  Name = 
REMARK  9 active torsions:
REMARK  status: ('A' for Active; 'I' for Inactive)
REMARK    1  A    between atoms: C_1  and  N_2
REMARK    2  A    between atoms: N_2  and  C_3
REMARK    3  A    between atoms: C_6  and  C_7
REMARK    4  A    between atoms: C_7  and  O_9
REMARK    5  A    between atoms: C_14  and  C_15
REMARK    6  A    between atoms: C_18  and  O_19
REMARK    7  A    between atoms: O_19  and  C_20
REMARK    8  A    between atoms: CA_30  and  C_31
REMARK    9  A    between atoms: C_31  and  OXT_33
REMARK                            x       y       z     vdW  Elec       q    Type
REMARK                         _______ _______ _______ _____ _____    ______ ____
ROOT
ATOM      1  C   UNL     1      -0.811  10.333  23.332  0.00  0.00    +0.000 C 
ATOM      2  N   UNL     1      -0.980  11.258  22.203  0.00  0.00    +0.000 N 
ATOM      3  C   UNL     1      -0.129  11.076  21.086  0.00  0.00    +0.000 A 
ATOM      4  C   UNL     1       0.418   9.821  20.794  0.00  0.00    +0.000 A 
ATOM      5  C   UNL     1       1.244   9.599  19.680  0.00  0.00    +0.000 A 
ATOM      6  C   UNL     1       1.529  10.696  18.875  0.00  0.00    +0.000 A 
ATOM      7  CA  UNL     1       0.981  11.916  19.217  0.00  0.00    +0.000 A 
ATOM      8  N   UNL     1       0.156  12.127  20.287  0.00  0.00    +0.000 NA
ENDROOT
BRANCH   2   9
ATOM      9  C   UNL     1      -1.819  12.375  22.416  0.00  0.00    +0.000 A 
ATOM     10  C   UNL     1      -3.075  12.499  21.802  0.00  0.00    +0.000 A 
ATOM     11  C   UNL     1      -3.879  13.623  22.006  0.00  0.00    +0.000 A 
ATOM     12  C   UNL     1      -3.452  14.656  22.843  0.00  0.00    +0.000 A 
ATOM     13  C   UNL     1      -2.218  14.546  23.488  0.00  0.00    +0.000 A 
ATOM     14  C   UNL     1      -1.414  13.420  23.265  0.00  0.00    +0.000 A 
BRANCH  12  15
ATOM     15  C   UNL     1      -4.375  15.802  23.047  0.00  0.00    +0.000 C 
ATOM     16  O   UNL     1      -5.387  15.715  23.721  0.00  0.00    +0.000 OA
BRANCH  15  17
ATOM     17  O   UNL     1      -4.026  16.926  22.387  0.00  0.00    +0.000 OA
ATOM     18  H   UNL     1      -3.415  16.802  21.642  0.00  0.00    +0.000 HD
ENDBRANCH  15  17
ENDBRANCH  12  15
ENDBRANCH   2   9
BRANCH   5  19
ATOM     19  C   UNL     1       1.786   8.256  19.402  0.00  0.00    +0.000 A 
ATOM     20  C   UNL     1       2.344   7.936  18.150  0.00  0.00    +0.000 A 
ATOM     21  C   UNL     1       2.851   6.663  17.884  0.00  0.00    +0.000 A 
ATOM     22  C   UNL     1       2.831   5.687  18.873  0.00  0.00    +0.000 A 
ATOM     23  C   UNL     1       2.230   5.964  20.102  0.00  0.00    +0.000 A 
ATOM     24  C   UNL     1       1.738   7.243  20.371  0.00  0.00    +0.000 A 
BRANCH  22  25
ATOM     25  O   UNL     1       3.382   4.473  18.536  0.00  0.00    +0.000 OA
BRANCH  25  26
ATOM     26  C   UNL     1       4.476   4.437  17.701  0.00  0.00    +0.000 A 
ATOM     27  C   UNL     1       5.699   4.779  18.285  0.00  0.00    +0.000 A 
ATOM     28  C   UNL     1       6.860   4.798  17.511  0.00  0.00    +0.000 A 
ATOM     29  C   UNL     1       6.789   4.478  16.160  0.00  0.00    +0.000 A 
ATOM     30  F   UNL     1       7.894   4.529  15.409  0.00  0.00    +0.000 F 
ATOM     31  C   UNL     1       5.585   4.097  15.577  0.00  0.00    +0.000 A 
ATOM     32  C   UNL     1       4.431   4.046  16.357  0.00  0.00    +0.000 A 
ENDBRANCH  25  26
ENDBRANCH  22  25
ENDBRANCH   5  19
BRANCH   7  33
ATOM     33  C   UNL     1       1.288  13.123  18.395  0.00  0.00    +0.000 C 
ATOM     34  O   UNL     1       0.739  14.205  18.519  0.00  0.00    +0.000 OA
BRANCH  33  35
ATOM     35  OXT UNL     1       2.260  12.856  17.494  0.00  0.00    +0.000 OA
ATOM     36  HXT UNL     1       2.574  11.930  17.630  0.00  0.00    +0.000 HD
ENDBRANCH  33  35
ENDBRANCH   7  33
TORSDOF 8
ENDMDL
MODEL 5
REMARK VINA RESULT:      -7.8      0.908      1.176
REMARK  Name = 
REMARK  9 active torsions:
REMARK  status: ('A' for Active; 'I' for Inactive)
REMARK    1  A    between atoms: C_1  and  N_2
REMARK    2  A    between atoms: N_2  and  C_3
REMARK    3  A    between atoms: C_6  and  C_7
REMARK    4  A    between atoms: C_7  and  O_9
REMARK    5  A    between atoms: C_14  and  C_15
REMARK    6  A    between atoms: C_18  and  O_19
REMARK    7  A    between atoms: O_19  and  C_20
REMARK    8  A    between atoms: CA_30  and  C_31
REMARK    9  A    between atoms: C_31  and  OXT_33
REMARK                            x       y       z     vdW  Elec       q    Type
REMARK                         _______ _______ _______ _____ _____    ______ ____
ROOT
ATOM      1  C   UNL     1      -0.720  13.484  22.288  0.00  0.00    +0.000 C 
ATOM      2  N   UNL     1      -2.005  13.102  21.687  0.00  0.00    +0.000 N 
ATOM      3  C   UNL     1      -1.961  12.248  20.558  0.00  0.00    +0.000 A 
ATOM      4  C   UNL     1      -0.889  11.370  20.361  0.00  0.00    +0.000 A 
ATOM      5  C   UNL     1      -0.826  10.490  19.267  0.00  0.00    +0.000 A 
ATOM      6  C   UNL     1      -1.873  10.540  18.353  0.00  0.00    +0.000 A 
ATOM      7  CA  UNL     1      -2.897  11.437  18.584  0.00  0.00    +0.000 A 
ATOM      8  N   UNL     1      -2.971  12.276  19.661  0.00  0.00    +0.000 NA
ENDROOT
BRANCH   2   9
ATOM      9  C   UNL     1      -3.152  13.788  22.146  0.00  0.00    +0.000 A 
ATOM     10  C   UNL     1      -3.339  15.163  21.934  0.00  0.00    +0.000 A 
ATOM     11  C   UNL     1      -4.469  15.828  22.417  0.00  0.00    +0.000 A 
ATOM     12  C   UNL     1      -5.454  15.131  23.120  0.00  0.00    +0.000 A 
ATOM     13  C   UNL     1      -5.306  13.757  23.322  0.00  0.00    +0.000 A 
ATOM     14  C   UNL     1      -4.161  13.103  22.845  0.00  0.00    +0.000 A 
BRANCH  12  15
ATOM     15  C   UNL     1      -6.648  15.893  23.569  0.00  0.00    +0.000 C 
ATOM     16  O   UNL     1      -7.724  15.360  23.776  0.00  0.00    +0.000 OA
BRANCH  15  17
ATOM     17  O   UNL     1      -6.454  17.224  23.679  0.00  0.00    +0.000 OA
ATOM     18  H   UNL     1      -5.533  17.522  23.588  0.00  0.00    +0.000 HD
ENDBRANCH  15  17
ENDBRANCH  12  15
ENDBRANCH   2   9
BRANCH   5  19
ATOM     19  C   UNL     1       0.316   9.571  19.107  0.00  0.00    +0.000 A 
ATOM     20  C   UNL     1       0.803   8.813  20.188  0.00  0.00    +0.000 A 
ATOM     21  C   UNL     1       1.889   7.948  20.038  0.00  0.00    +0.000 A 
ATOM     22  C   UNL     1       2.498   7.807  18.797  0.00  0.00    +0.000 A 
ATOM     23  C   UNL     1       2.070   8.593  17.726  0.00  0.00    +0.000 A 
ATOM     24  C   UNL     1       0.973   9.444  17.874  0.00  0.00    +0.000 A 
BRANCH  22  25
ATOM     25  O   UNL     1       3.537   6.908  18.732  0.00  0.00    +0.000 OA
BRANCH  25  26
ATOM     26  C   UNL     1       3.302   5.636  18.263  0.00  0.00    +0.000 A 
ATOM     27  C   UNL     1       2.011   5.139  18.473  0.00  0.00    +0.000 A 
ATOM     28  C   UNL     1       1.687   3.848  18.057  0.00  0.00    +0.000 A 
ATOM     29  C   UNL     1       2.652   3.063  17.436  0.00  0.00    +0.000 A 
ATOM     30  F   UNL     1       2.352   1.812  17.068  0.00  0.00    +0.000 F 
ATOM     31  C   UNL     1       3.927   3.561  17.186  0.00  0.00    +0.000 A 
ATOM     32  C   UNL     1       4.243   4.862  17.572  0.00  0.00    +0.000 A 
ENDBRANCH  25  26
ENDBRANCH  22  25
ENDBRANCH   5  19
BRANCH   7  33
ATOM     33  C   UNL     1      -4.023  11.542  17.609  0.00  0.00    +0.000 C 
ATOM     34  O   UNL     1      -5.195  11.347  17.881  0.00  0.00    +0.000 OA
BRANCH  33  35
ATOM     35  OXT UNL     1      -3.568  11.883  16.383  0.00  0.00    +0.000 OA
ATOM     36  HXT UNL     1      -3.510  12.867  16.328  0.00  0.00    +0.000 HD
ENDBRANCH  33  35
ENDBRANCH   7  33
TORSDOF 8
ENDMDL
MODEL 6
REMARK VINA RESULT:      -7.7      0.515      1.167
REMARK  Name = 
REMARK  9 active torsions:
REMARK  status: ('A' for Active; 'I' for Inactive)
REMARK    1  A    between atoms: C_1  and  N_2
REMARK    2  A    between atoms: N_2  and  C_3
REMARK    3  A    between atoms: C_6  and  C_7
REMARK    4  A    between atoms: C_7  and  O_9
REMARK    5  A    between atoms: C_14  and  C_15
REMARK    6  A    between atoms: C_18  and  O_19
REMARK    7  A    between atoms: O_19  and  C_20
REMARK    8  A    between atoms: CA_30  and  C_31
REMARK    9  A    between atoms: C_31  and  OXT_33
REMARK                            x       y       z     vdW  Elec       q    Type
REMARK                         _______ _______ _______ _____ _____    ______ ____
ROOT
ATOM      1  C   UNL     1      -0.303  12.647  22.183  0.00  0.00    +0.000 C 
ATOM      2  N   UNL     1      -1.503  12.380  21.380  0.00  0.00    +0.000 N 
ATOM      3  C   UNL     1      -1.329  11.638  20.186  0.00  0.00    +0.000 A 
ATOM      4  C   UNL     1      -0.266  10.738  20.046  0.00  0.00    +0.000 A 
ATOM      5  C   UNL     1      -0.078   9.967  18.887  0.00  0.00    +0.000 A 
ATOM      6  C   UNL     1      -0.988  10.149  17.851  0.00  0.00    +0.000 A 
ATOM      7  CA  UNL     1      -2.008  11.063  18.032  0.00  0.00    +0.000 A 
ATOM      8  N   UNL     1      -2.205  11.795  19.169  0.00  0.00    +0.000 NA
ENDROOT
BRANCH   2   9
ATOM      9  C   UNL     1      -2.682  13.067  21.748  0.00  0.00    +0.000 A 
ATOM     10  C   UNL     1      -3.566  12.573  22.720  0.00  0.00    +0.000 A 
ATOM     11  C   UNL     1      -4.739  13.255  23.053  0.00  0.00    +0.000 A 
ATOM     12  C   UNL     1      -5.058  14.462  22.427  0.00  0.00    +0.000 A 
ATOM     13  C   UNL     1      -4.182  14.990  21.476  0.00  0.00    +0.000 A 
ATOM     14  C   UNL     1      -3.015  14.290  21.139  0.00  0.00    +0.000 A 
BRANCH  12  15
ATOM     15  C   UNL     1      -6.299  15.154  22.859  0.00  0.00    +0.000 C 
ATOM     16  O   UNL     1      -6.516  15.443  24.023  0.00  0.00    +0.000 OA
BRANCH  15  17
ATOM     17  O   UNL     1      -7.182  15.390  21.867  0.00  0.00    +0.000 OA
ATOM     18  H   UNL     1      -6.795  15.546  20.989  0.00  0.00    +0.000 HD
ENDBRANCH  15  17
ENDBRANCH  12  15
ENDBRANCH   2   9
BRANCH   5  19
ATOM     19  C   UNL     1       1.048   9.020  18.788  0.00  0.00    +0.000 A 
ATOM     20  C   UNL     1       1.361   8.142  19.843  0.00  0.00    +0.000 A 
ATOM     21  C   UNL     1       2.432   7.251  19.753  0.00  0.00    +0.000 A 
ATOM     22  C   UNL     1       3.200   7.203  18.596  0.00  0.00    +0.000 A 
ATOM     23  C   UNL     1       2.945   8.105  17.562  0.00  0.00    +0.000 A 
ATOM     24  C   UNL     1       1.864   8.984  17.648  0.00  0.00    +0.000 A 
BRANCH  22  25
ATOM     25  O   UNL     1       4.212   6.272  18.580  0.00  0.00    +0.000 OA
BRANCH  25  26
ATOM     26  C   UNL     1       3.898   4.935  18.490  0.00  0.00    +0.000 A 
ATOM     27  C   UNL     1       4.485   4.106  19.451  0.00  0.00    +0.000 A 
ATOM     28  C   UNL     1       4.248   2.732  19.424  0.00  0.00    +0.000 A 
ATOM     29  C   UNL     1       3.429   2.196  18.437  0.00  0.00    +0.000 A 
ATOM     30  F   UNL     1       3.229   0.874  18.388  0.00  0.00    +0.000 F 
ATOM     31  C   UNL     1       2.807   3.015  17.499  0.00  0.00    +0.000 A 
ATOM     32  C   UNL     1       3.017   4.393  17.546  0.00  0.00    +0.000 A 
ENDBRANCH  25  26
ENDBRANCH  22  25
ENDBRANCH   5  19
BRANCH   7  33
ATOM     33  C   UNL     1      -2.986  11.309  16.931  0.00  0.00    +0.000 C 
ATOM     34  O   UNL     1      -2.798  11.024  15.761  0.00  0.00    +0.000 OA
BRANCH  33  35
ATOM     35  OXT UNL     1      -4.110  11.889  17.408  0.00  0.00    +0.000 OA
ATOM     36  HXT UNL     1      -4.732  11.182  17.702  0.00  0.00    +0.000 HD
ENDBRANCH  33  35
ENDBRANCH   7  33
TORSDOF 8
ENDMDL
MODEL 7
REMARK VINA RESULT:      -7.7      2.464      2.849
REMARK  Name = 
REMARK  9 active torsions:
REMARK  status: ('A' for Active; 'I' for Inactive)
REMARK    1  A    between atoms: C_1  and  N_2
REMARK    2  A    between atoms: N_2  and  C_3
REMARK    3  A    between atoms: C_6  and  C_7
REMARK    4  A    between atoms: C_7  and  O_9
REMARK    5  A    between atoms: C_14  and  C_15
REMARK    6  A    between atoms: C_18  and  O_19
REMARK    7  A    between atoms: O_19  and  C_20
REMARK    8  A    between atoms: CA_30  and  C_31
REMARK    9  A    between atoms: C_31  and  OXT_33
REMARK                            x       y       z     vdW  Elec       q    Type
REMARK                         _______ _______ _______ _____ _____    ______ ____
ROOT
ATOM      1  C   UNL     1      -1.038  10.415  23.333  0.00  0.00    +0.000 C 
ATOM      2  N   UNL     1      -1.379  11.315  22.224  0.00  0.00    +0.000 N 
ATOM      3  C   UNL     1      -0.564  11.252  21.067  0.00  0.00    +0.000 A 
ATOM      4  C   UNL     1       0.126  10.081  20.736  0.00  0.00    +0.000 A 
ATOM      5  C   UNL     1       0.921   9.975  19.583  0.00  0.00    +0.000 A 
ATOM      6  C   UNL     1       1.023  11.104  18.778  0.00  0.00    +0.000 A 
ATOM      7  CA  UNL     1       0.338  12.241  19.159  0.00  0.00    +0.000 A 
ATOM      8  N   UNL     1      -0.457  12.336  20.268  0.00  0.00    +0.000 NA
ENDROOT
BRANCH   2   9
ATOM      9  C   UNL     1      -2.345  12.313  22.488  0.00  0.00    +0.000 A 
ATOM     10  C   UNL     1      -2.244  13.186  23.581  0.00  0.00    +0.000 A 
ATOM     11  C   UNL     1      -3.222  14.150  23.839  0.00  0.00    +0.000 A 
ATOM     12  C   UNL     1      -4.330  14.275  22.998  0.00  0.00    +0.000 A 
ATOM     13  C   UNL     1      -4.443  13.436  21.887  0.00  0.00    +0.000 A 
ATOM     14  C   UNL     1      -3.462  12.463  21.647  0.00  0.00    +0.000 A 
BRANCH  12  15
ATOM     15  C   UNL     1      -5.310  15.347  23.308  0.00  0.00    +0.000 C 
ATOM     16  O   UNL     1      -5.227  16.042  24.305  0.00  0.00    +0.000 OA
BRANCH  15  17
ATOM     17  O   UNL     1      -6.322  15.454  22.421  0.00  0.00    +0.000 OA
ATOM     18  H   UNL     1      -7.111  15.923  22.741  0.00  0.00    +0.000 HD
ENDBRANCH  15  17
ENDBRANCH  12  15
ENDBRANCH   2   9
BRANCH   5  19
ATOM     19  C   UNL     1       1.620   8.716  19.265  0.00  0.00    +0.000 A 
ATOM     20  C   UNL     1       1.817   7.721  20.242  0.00  0.00    +0.000 A 
ATOM     21  C   UNL     1       2.485   6.532  19.943  0.00  0.00    +0.000 A 
ATOM     22  C   UNL     1       2.951   6.302  18.654  0.00  0.00    +0.000 A 
ATOM     23  C   UNL     1       2.820   7.299  17.685  0.00  0.00    +0.000 A 
ATOM     24  C   UNL     1       2.137   8.480  17.982  0.00  0.00    +0.000 A 
BRANCH  22  25
ATOM     25  O   UNL     1       3.566   5.090  18.440  0.00  0.00    +0.000 OA
BRANCH  25  26
ATOM     26  C   UNL     1       4.563   4.996  17.497  0.00  0.00    +0.000 A 
ATOM     27  C   UNL     1       5.737   5.702  17.779  0.00  0.00    +0.000 A 
ATOM     28  C   UNL     1       6.793   5.689  16.868  0.00  0.00    +0.000 A 
ATOM     29  C   UNL     1       6.669   4.973  15.683  0.00  0.00    +0.000 A 
ATOM     30  F   UNL     1       7.667   4.988  14.793  0.00  0.00    +0.000 F 
ATOM     31  C   UNL     1       5.522   4.234  15.409  0.00  0.00    +0.000 A 
ATOM     32  C   UNL     1       4.479   4.220  16.334  0.00  0.00    +0.000 A 
ENDBRANCH  25  26
ENDBRANCH  22  25
ENDBRANCH   5  19
BRANCH   7  33
ATOM     33  C   UNL     1       0.447  13.482  18.338  0.00  0.00    +0.000 C 
ATOM     34  O   UNL     1       1.350  14.296  18.428  0.00  0.00    +0.000 OA
BRANCH  33  35
ATOM     35  OXT UNL     1      -0.591  13.582  17.477  0.00  0.00    +0.000 OA
ATOM     36  HXT UNL     1      -1.381  13.910  17.969  0.00  0.00    +0.000 HD
ENDBRANCH  33  35
ENDBRANCH   7  33
TORSDOF 8
ENDMDL
MODEL 8
REMARK VINA RESULT:      -7.7      0.574      1.321
REMARK  Name = 
REMARK  9 active torsions:
REMARK  status: ('A' for Active; 'I' for Inactive)
REMARK    1  A    between atoms: C_1  and  N_2
REMARK    2  A    between atoms: N_2  and  C_3
REMARK    3  A    between atoms: C_6  and  C_7
REMARK    4  A    between atoms: C_7  and  O_9
REMARK    5  A    between atoms: C_14  and  C_15
REMARK    6  A    between atoms: C_18  and  O_19
REMARK    7  A    between atoms: O_19  and  C_20
REMARK    8  A    between atoms: CA_30  and  C_31
REMARK    9  A    between atoms: C_31  and  OXT_33
REMARK                            x       y       z     vdW  Elec       q    Type
REMARK                         _______ _______ _______ _____ _____    ______ ____
ROOT
ATOM      1  C   UNL     1      -0.144  13.194  22.329  0.00  0.00    +0.000 C 
ATOM      2  N   UNL     1      -1.457  12.858  21.762  0.00  0.00    +0.000 N 
ATOM      3  C   UNL     1      -1.471  12.034  20.610  0.00  0.00    +0.000 A 
ATOM      4  C   UNL     1      -0.427  11.137  20.354  0.00  0.00    +0.000 A 
ATOM      5  C   UNL     1      -0.422  10.286  19.236  0.00  0.00    +0.000 A 
ATOM      6  C   UNL     1      -1.497  10.385  18.360  0.00  0.00    +0.000 A 
ATOM      7  CA  UNL     1      -2.492  11.299  18.649  0.00  0.00    +0.000 A 
ATOM      8  N   UNL     1      -2.509  12.109  19.750  0.00  0.00    +0.000 NA
ENDROOT
BRANCH   2   9
ATOM      9  C   UNL     1      -2.571  13.558  22.277  0.00  0.00    +0.000 A 
ATOM     10  C   UNL     1      -2.853  14.886  21.923  0.00  0.00    +0.000 A 
ATOM     11  C   UNL     1      -3.946  15.569  22.462  0.00  0.00    +0.000 A 
ATOM     12  C   UNL     1      -4.799  14.936  23.369  0.00  0.00    +0.000 A 
ATOM     13  C   UNL     1      -4.557  13.605  23.718  0.00  0.00    +0.000 A 
ATOM     14  C   UNL     1      -3.449  12.935  23.182  0.00  0.00    +0.000 A 
BRANCH  12  15
ATOM     15  C   UNL     1      -5.964  15.707  23.870  0.00  0.00    +0.000 C 
ATOM     16  O   UNL     1      -5.974  16.925  23.913  0.00  0.00    +0.000 OA
BRANCH  15  17
ATOM     17  O   UNL     1      -6.986  14.949  24.319  0.00  0.00    +0.000 OA
ATOM     18  H   UNL     1      -6.911  14.647  25.240  0.00  0.00    +0.000 HD
ENDBRANCH  15  17
ENDBRANCH  12  15
ENDBRANCH   2   9
BRANCH   5  19
ATOM     19  C   UNL     1       0.692   9.346  19.013  0.00  0.00    +0.000 A 
ATOM     20  C   UNL     1       1.354   9.277  17.773  0.00  0.00    +0.000 A 
ATOM     21  C   UNL     1       2.404   8.382  17.558  0.00  0.00    +0.000 A 
ATOM     22  C   UNL     1       2.829   7.550  18.588  0.00  0.00    +0.000 A 
ATOM     23  C   UNL     1       2.148   7.560  19.807  0.00  0.00    +0.000 A 
ATOM     24  C   UNL     1       1.110   8.467  20.024  0.00  0.00    +0.000 A 
BRANCH  22  25
ATOM     25  O   UNL     1       3.891   6.726  18.300  0.00  0.00    +0.000 OA
BRANCH  25  26
ATOM     26  C   UNL     1       3.755   5.366  18.463  0.00  0.00    +0.000 A 
ATOM     27  C   UNL     1       3.344   4.655  17.331  0.00  0.00    +0.000 A 
ATOM     28  C   UNL     1       3.151   3.276  17.407  0.00  0.00    +0.000 A 
ATOM     29  C   UNL     1       3.367   2.617  18.612  0.00  0.00    +0.000 A 
ATOM     30  F   UNL     1       3.149   1.301  18.696  0.00  0.00    +0.000 F 
ATOM     31  C   UNL     1       3.814   3.308  19.735  0.00  0.00    +0.000 A 
ATOM     32  C   UNL     1       4.039   4.681  19.652  0.00  0.00    +0.000 A 
ENDBRANCH  25  26
ENDBRANCH  22  25
ENDBRANCH   5  19
BRANCH   7  33
ATOM     33  C   UNL     1      -3.646  11.455  17.716  0.00  0.00    +0.000 C 
ATOM     34  O   UNL     1      -3.825  10.783  16.715  0.00  0.00    +0.000 OA
BRANCH  33  35
ATOM     35  OXT UNL     1      -4.470  12.443  18.133  0.00  0.00    +0.000 OA
ATOM     36  HXT UNL     1      -3.938  13.263  18.271  0.00  0.00    +0.000 HD
ENDBRANCH  33  35
ENDBRANCH   7  33
TORSDOF 8
ENDMDL
MODEL 9
REMARK VINA RESULT:      -7.7      1.878      2.328
REMARK  Name = 
REMARK  9 active torsions:
REMARK  status: ('A' for Active; 'I' for Inactive)
REMARK    1  A    between atoms: C_1  and  N_2
REMARK    2  A    between atoms: N_2  and  C_3
REMARK    3  A    between atoms: C_6  and  C_7
REMARK    4  A    between atoms: C_7  and  O_9
REMARK    5  A    between atoms: C_14  and  C_15
REMARK    6  A    between atoms: C_18  and  O_19
REMARK    7  A    between atoms: O_19  and  C_20
REMARK    8  A    between atoms: CA_30  and  C_31
REMARK    9  A    between atoms: C_31  and  OXT_33
REMARK                            x       y       z     vdW  Elec       q    Type
REMARK                         _______ _______ _______ _____ _____    ______ ____
ROOT
ATOM      1  C   UNL     1      -0.256  12.767  21.960  0.00  0.00    +0.000 C 
ATOM      2  N   UNL     1      -1.429  12.505  21.115  0.00  0.00    +0.000 N 
ATOM      3  C   UNL     1      -1.235  11.681  19.979  0.00  0.00    +0.000 A 
ATOM      4  C   UNL     1      -0.212  10.726  19.949  0.00  0.00    +0.000 A 
ATOM      5  C   UNL     1      -0.009   9.874  18.850  0.00  0.00    +0.000 A 
ATOM      6  C   UNL     1      -0.858  10.033  17.760  0.00  0.00    +0.000 A 
ATOM      7  CA  UNL     1      -1.838  11.002  17.833  0.00  0.00    +0.000 A 
ATOM      8  N   UNL     1      -2.053  11.814  18.912  0.00  0.00    +0.000 NA
ENDROOT
BRANCH   2   9
ATOM      9  C   UNL     1      -2.588  13.268  21.380  0.00  0.00    +0.000 A 
ATOM     10  C   UNL     1      -3.732  12.714  21.973  0.00  0.00    +0.000 A 
ATOM     11  C   UNL     1      -4.878  13.480  22.205  0.00  0.00    +0.000 A 
ATOM     12  C   UNL     1      -4.907  14.832  21.859  0.00  0.00    +0.000 A 
ATOM     13  C   UNL     1      -3.771  15.416  21.293  0.00  0.00    +0.000 A 
ATOM     14  C   UNL     1      -2.633  14.635  21.051  0.00  0.00    +0.000 A 
BRANCH  12  15
ATOM     15  C   UNL     1      -6.142  15.595  22.172  0.00  0.00    +0.000 C 
ATOM     16  O   UNL     1      -6.668  15.568  23.271  0.00  0.00    +0.000 OA
BRANCH  15  17
ATOM     17  O   UNL     1      -6.657  16.279  21.129  0.00  0.00    +0.000 OA
ATOM     18  H   UNL     1      -6.154  17.064  20.853  0.00  0.00    +0.000 HD
ENDBRANCH  15  17
ENDBRANCH  12  15
ENDBRANCH   2   9
BRANCH   5  19
ATOM     19  C   UNL     1       1.073   8.872  18.867  0.00  0.00    +0.000 A 
ATOM     20  C   UNL     1       1.303   8.062  19.995  0.00  0.00    +0.000 A 
ATOM     21  C   UNL     1       2.331   7.118  20.015  0.00  0.00    +0.000 A 
ATOM     22  C   UNL     1       3.138   6.947  18.896  0.00  0.00    +0.000 A 
ATOM     23  C   UNL     1       2.966   7.780  17.788  0.00  0.00    +0.000 A 
ATOM     24  C   UNL     1       1.927   8.712  17.766  0.00  0.00    +0.000 A 
BRANCH  22  25
ATOM     25  O   UNL     1       4.103   5.972  18.989  0.00  0.00    +0.000 OA
BRANCH  25  26
ATOM     26  C   UNL     1       4.864   5.666  17.884  0.00  0.00    +0.000 A 
ATOM     27  C   UNL     1       6.135   6.249  17.841  0.00  0.00    +0.000 A 
ATOM     28  C   UNL     1       6.968   6.020  16.746  0.00  0.00    +0.000 A 
ATOM     29  C   UNL     1       6.527   5.214  15.703  0.00  0.00    +0.000 A 
ATOM     30  F   UNL     1       7.311   5.022  14.637  0.00  0.00    +0.000 F 
ATOM     31  C   UNL     1       5.281   4.596  15.754  0.00  0.00    +0.000 A 
ATOM     32  C   UNL     1       4.460   4.797  16.863  0.00  0.00    +0.000 A 
ENDBRANCH  25  26
ENDBRANCH  22  25
ENDBRANCH   5  19
BRANCH   7  33
ATOM     33  C   UNL     1      -2.749  11.223  16.671  0.00  0.00    +0.000 C 
ATOM     34  O   UNL     1      -2.558  10.788  15.549  0.00  0.00    +0.000 OA
BRANCH  33  35
ATOM     35  OXT UNL     1      -3.816  11.970  17.032  0.00  0.00    +0.000 OA
ATOM     36  HXT UNL     1      -4.592  11.703  16.485  0.00  0.00    +0.000 HD
ENDBRANCH  33  35
ENDBRANCH   7  33
TORSDOF 8
ENDMDL
