MODEL 1
REMARK VINA RESULT:      -8.5      0.000      0.000
REMARK  Name = 
REMARK  10 active torsions:
REMARK  status: ('A' for Active; 'I' for Inactive)
REMARK    1  A    between atoms: C_1  and  O_2
REMARK    2  A    between atoms: O_2  and  C_3
REMARK    3  A    between atoms: N_10  and  C_11
REMARK    4  A    between atoms: C_14  and  O_15
REMARK    5  A    between atoms: O_15  and  C_16
REMARK    6  A    between atoms: C_16  and  C_17
REMARK    7  A    between atoms: C_24  and  O_25
REMARK    8  A    between atoms: O_25  and  C_26
REMARK    9  A    between atoms: C_30  and  O_31
REMARK   10  A    between atoms: O_31  and  C_32
REMARK                            x       y       z     vdW  Elec       q    Type
REMARK                         _______ _______ _______ _____ _____    ______ ____
ROOT
ATOM      1  C   UNL     1       2.124   8.248  19.228  0.00  0.00    +0.000 A 
ATOM      2  C   UNL     1       1.680   9.128  18.239  0.00  0.00    +0.000 A 
ATOM      3  C   UNL     1       0.541   9.897  18.431  0.00  0.00    +0.000 A 
ATOM      4  C   UNL     1      -0.202   9.768  19.607  0.00  0.00    +0.000 A 
ATOM      5  C   UNL     1       0.300   8.984  20.665  0.00  0.00    +0.000 A 
ATOM      6  C   UNL     1       1.473   8.239  20.467  0.00  0.00    +0.000 A 
ENDROOT
BRANCH   1  14
ATOM      7  C   UNL     1       5.952   4.411  15.903  0.00  0.00    +0.000 A 
ATOM      8  C   UNL     1       4.754   3.745  16.218  0.00  0.00    +0.000 A 
ATOM      9  C   UNL     1       3.800   4.285  17.066  0.00  0.00    +0.000 A 
ATOM     10  N   UNL     1       2.637   3.646  17.215  0.00  0.00    +0.000 NA
ATOM     11  C   UNL     1       1.709   4.263  17.952  0.00  0.00    +0.000 A 
ATOM     12  N   UNL     1       1.846   5.447  18.551  0.00  0.00    +0.000 NA
ATOM     13  C   UNL     1       3.033   6.071  18.414  0.00  0.00    +0.000 A 
ATOM     14  N   UNL     1       3.191   7.371  18.961  0.00  0.00    +0.000 N 
ATOM     15  C   UNL     1       4.080   5.507  17.678  0.00  0.00    +0.000 A 
ATOM     16  C   UNL     1       5.332   6.120  17.472  0.00  0.00    +0.000 A 
ATOM     17  C   UNL     1       6.269   5.592  16.581  0.00  0.00    +0.000 A 
ATOM     18  H   UNL     1       3.940   7.390  19.641  0.00  0.00    +0.000 HD
BRANCH   7  20
ATOM     19  C   UNL     1       6.345   3.989  13.604  0.00  0.00    +0.000 C 
ATOM     20  O   UNL     1       6.809   3.916  14.956  0.00  0.00    +0.000 OA
ENDBRANCH   7  20
BRANCH  17  21
ATOM     21  O   UNL     1       7.379   6.381  16.501  0.00  0.00    +0.000 OA
ATOM     22  C   UNL     1       7.607   7.374  17.486  0.00  0.00    +0.000 C 
ENDBRANCH  17  21
ENDBRANCH   1  14
BRANCH   5  23
ATOM     23  O   UNL     1      -0.435   8.970  21.825  0.00  0.00    +0.000 OA
ATOM     24  C   UNL     1       0.134   9.606  22.963  0.00  0.00    +0.000 C 
ENDBRANCH   5  23
BRANCH   4  25
ATOM     25  O   UNL     1      -1.439  10.359  19.765  0.00  0.00    +0.000 OA
BRANCH  25  26
ATOM     26  C   UNL     1      -1.650  11.494  18.907  0.00  0.00    +0.000 C 
BRANCH  26  27
ATOM     27  C   UNL     1      -3.103  11.731  18.563  0.00  0.00    +0.000 A 
ATOM     28  C   UNL     1      -3.957  12.350  19.491  0.00  0.00    +0.000 A 
ATOM     29  C   UNL     1      -5.324  12.471  19.236  0.00  0.00    +0.000 A 
ATOM     30  C   UNL     1      -5.863  11.973  18.052  0.00  0.00    +0.000 A 
ATOM     31  C   UNL     1      -5.035  11.358  17.121  0.00  0.00    +0.000 A 
ATOM     32  C   UNL     1      -3.667  11.226  17.377  0.00  0.00    +0.000 A 
ATOM     33 BR   UNL     1      -2.635  10.299  16.071  0.00  0.00    +0.000 Br
ENDBRANCH  26  27
ENDBRANCH  25  26
ENDBRANCH   4  25
TORSDOF 7
ENDMDL
MODEL 2
REMARK VINA RESULT:      -8.2      1.160      1.529
REMARK  Name = 
REMARK  10 active torsions:
REMARK  status: ('A' for Active; 'I' for Inactive)
REMARK    1  A    between atoms: C_1  and  O_2
REMARK    2  A    between atoms: O_2  and  C_3
REMARK    3  A    between atoms: N_10  and  C_11
REMARK    4  A    between atoms: C_14  and  O_15
REMARK    5  A    between atoms: O_15  and  C_16
REMARK    6  A    between atoms: C_16  and  C_17
REMARK    7  A    between atoms: C_24  and  O_25
REMARK    8  A    between atoms: O_25  and  C_26
REMARK    9  A    between atoms: C_30  and  O_31
REMARK   10  A    between atoms: O_31  and  C_32
REMARK                            x       y       z     vdW  Elec       q    Type
REMARK                         _______ _______ _______ _____ _____    ______ ____
ROOT
ATOM      1  C   UNL     1       2.075   7.924  19.845  0.00  0.00    +0.000 A 
ATOM      2  C   UNL     1       1.799   8.928  18.914  0.00  0.00    +0.000 A 
ATOM      3  C   UNL     1       0.732   9.795  19.098  0.00  0.00    +0.000 A 
ATOM      4  C   UNL     1      -0.109   9.646  20.204  0.00  0.00    +0.000 A 
ATOM      5  C   UNL     1       0.229   8.726  21.216  0.00  0.00    +0.000 A 
ATOM      6  C   UNL     1       1.332   7.880  21.031  0.00  0.00    +0.000 A 
ENDROOT
BRANCH   1  14
ATOM      7  C   UNL     1       5.911   4.173  16.433  0.00  0.00    +0.000 A 
ATOM      8  C   UNL     1       4.613   3.633  16.469  0.00  0.00    +0.000 A 
ATOM      9  C   UNL     1       3.608   4.158  17.265  0.00  0.00    +0.000 A 
ATOM     10  N   UNL     1       2.372   3.666  17.148  0.00  0.00    +0.000 NA
ATOM     11  C   UNL     1       1.417   4.279  17.854  0.00  0.00    +0.000 A 
ATOM     12  N   UNL     1       1.593   5.326  18.662  0.00  0.00    +0.000 NA
ATOM     13  C   UNL     1       2.848   5.798  18.792  0.00  0.00    +0.000 A 
ATOM     14  N   UNL     1       3.066   6.964  19.572  0.00  0.00    +0.000 N 
ATOM     15  C   UNL     1       3.926   5.220  18.112  0.00  0.00    +0.000 A 
ATOM     16  C   UNL     1       5.255   5.684  18.181  0.00  0.00    +0.000 A 
ATOM     17  C   UNL     1       6.251   5.180  17.342  0.00  0.00    +0.000 A 
ATOM     18  H   UNL     1       3.701   6.775  20.337  0.00  0.00    +0.000 HD
BRANCH   7  20
ATOM     19  C   UNL     1       6.848   4.384  14.267  0.00  0.00    +0.000 C 
ATOM     20  O   UNL     1       6.841   3.721  15.535  0.00  0.00    +0.000 OA
ENDBRANCH   7  20
BRANCH  17  21
ATOM     21  O   UNL     1       7.442   5.815  17.546  0.00  0.00    +0.000 OA
ATOM     22  C   UNL     1       7.521   7.221  17.397  0.00  0.00    +0.000 C 
ENDBRANCH  17  21
ENDBRANCH   1  14
BRANCH   5  23
ATOM     23  O   UNL     1      -0.593   8.693  22.317  0.00  0.00    +0.000 OA
ATOM     24  C   UNL     1      -0.298   9.597  23.376  0.00  0.00    +0.000 C 
ENDBRANCH   5  23
BRANCH   4  25
ATOM     25  O   UNL     1      -1.288  10.351  20.331  0.00  0.00    +0.000 OA
BRANCH  25  26
ATOM     26  C   UNL     1      -1.409  11.447  19.407  0.00  0.00    +0.000 C 
BRANCH  26  27
ATOM     27  C   UNL     1      -2.446  11.220  18.330  0.00  0.00    +0.000 A 
ATOM     28  C   UNL     1      -2.082  10.610  17.117  0.00  0.00    +0.000 A 
ATOM     29  C   UNL     1      -2.998  10.500  16.069  0.00  0.00    +0.000 A 
ATOM     30  C   UNL     1      -4.290  10.998  16.213  0.00  0.00    +0.000 A 
ATOM     31  C   UNL     1      -4.670  11.604  17.404  0.00  0.00    +0.000 A 
ATOM     32  C   UNL     1      -3.753  11.726  18.452  0.00  0.00    +0.000 A 
ATOM     33 BR   UNL     1      -4.350  12.641  20.013  0.00  0.00    +0.000 Br
ENDBRANCH  26  27
ENDBRANCH  25  26
ENDBRANCH   4  25
TORSDOF 7
ENDMDL
MODEL 3
REMARK VINA RESULT:      -8.0      1.915      2.582
REMARK  Name = 
REMARK  10 active torsions:
REMARK  status: ('A' for Active; 'I' for Inactive)
REMARK    1  A    between atoms: C_1  and  O_2
REMARK    2  A    between atoms: O_2  and  C_3
REMARK    3  A    between atoms: N_10  and  C_11
REMARK    4  A    between atoms: C_14  and  O_15
REMARK    5  A    between atoms: O_15  and  C_16
REMARK    6  A    between atoms: C_16  and  C_17
REMARK    7  A    between atoms: C_24  and  O_25
REMARK    8  A    between atoms: O_25  and  C_26
REMARK    9  A    between atoms: C_30  and  O_31
REMARK   10  A    between atoms: O_31  and  C_32
REMARK                            x       y       z     vdW  Elec       q    Type
REMARK                         _______ _______ _______ _____ _____    ______ ____
ROOT
ATOM      1  C   UNL     1       2.046   8.423  19.042  0.00  0.00    +0.000 A 
ATOM      2  C   UNL     1       1.559   9.196  17.986  0.00  0.00    +0.000 A 
ATOM      3  C   UNL     1       0.400   9.945  18.130  0.00  0.00    +0.000 A 
ATOM      4  C   UNL     1      -0.319   9.902  19.327  0.00  0.00    +0.000 A 
ATOM      5  C   UNL     1       0.225   9.233  20.441  0.00  0.00    +0.000 A 
ATOM      6  C   UNL     1       1.417   8.508  20.289  0.00  0.00    +0.000 A 
ENDROOT
BRANCH   1  14
ATOM      7  C   UNL     1       6.004   4.507  15.970  0.00  0.00    +0.000 A 
ATOM      8  C   UNL     1       4.816   3.832  16.303  0.00  0.00    +0.000 A 
ATOM      9  C   UNL     1       3.839   4.393  17.109  0.00  0.00    +0.000 A 
ATOM     10  N   UNL     1       2.688   3.737  17.274  0.00  0.00    +0.000 NA
ATOM     11  C   UNL     1       1.736   4.370  17.966  0.00  0.00    +0.000 A 
ATOM     12  N   UNL     1       1.838   5.586  18.505  0.00  0.00    +0.000 NA
ATOM     13  C   UNL     1       3.013   6.228  18.354  0.00  0.00    +0.000 A 
ATOM     14  N   UNL     1       3.136   7.557  18.835  0.00  0.00    +0.000 N 
ATOM     15  C   UNL     1       4.084   5.651  17.662  0.00  0.00    +0.000 A 
ATOM     16  C   UNL     1       5.325   6.280  17.442  0.00  0.00    +0.000 A 
ATOM     17  C   UNL     1       6.286   5.728  16.592  0.00  0.00    +0.000 A 
ATOM     18  H   UNL     1       3.874   7.627  19.524  0.00  0.00    +0.000 HD
BRANCH   7  20
ATOM     19  C   UNL     1       6.479   4.060  13.692  0.00  0.00    +0.000 C 
ATOM     20  O   UNL     1       6.886   3.984  15.062  0.00  0.00    +0.000 OA
ENDBRANCH   7  20
BRANCH  17  21
ATOM     21  O   UNL     1       7.381   6.537  16.487  0.00  0.00    +0.000 OA
ATOM     22  C   UNL     1       7.680   7.451  17.527  0.00  0.00    +0.000 C 
ENDBRANCH  17  21
ENDBRANCH   1  14
BRANCH   5  23
ATOM     23  O   UNL     1      -0.491   9.303  21.612  0.00  0.00    +0.000 OA
ATOM     24  C   UNL     1       0.228   9.634  22.794  0.00  0.00    +0.000 C 
ENDBRANCH   5  23
BRANCH   4  25
ATOM     25  O   UNL     1      -1.571  10.468  19.454  0.00  0.00    +0.000 OA
BRANCH  25  26
ATOM     26  C   UNL     1      -1.554  11.905  19.493  0.00  0.00    +0.000 C 
BRANCH  26  27
ATOM     27  C   UNL     1      -1.624  12.475  20.892  0.00  0.00    +0.000 A 
ATOM     28  C   UNL     1      -2.858  12.570  21.555  0.00  0.00    +0.000 A 
ATOM     29  C   UNL     1      -2.958  13.199  22.797  0.00  0.00    +0.000 A 
ATOM     30  C   UNL     1      -1.827  13.746  23.397  0.00  0.00    +0.000 A 
ATOM     31  C   UNL     1      -0.596  13.663  22.759  0.00  0.00    +0.000 A 
ATOM     32  C   UNL     1      -0.494  13.043  21.510  0.00  0.00    +0.000 A 
ATOM     33 BR   UNL     1       1.224  13.049  20.685  0.00  0.00    +0.000 Br
ENDBRANCH  26  27
ENDBRANCH  25  26
ENDBRANCH   4  25
TORSDOF 7
ENDMDL
MODEL 4
REMARK VINA RESULT:      -8.0      2.425      3.346
REMARK  Name = 
REMARK  10 active torsions:
REMARK  status: ('A' for Active; 'I' for Inactive)
REMARK    1  A    between atoms: C_1  and  O_2
REMARK    2  A    between atoms: O_2  and  C_3
REMARK    3  A    between atoms: N_10  and  C_11
REMARK    4  A    between atoms: C_14  and  O_15
REMARK    5  A    between atoms: O_15  and  C_16
REMARK    6  A    between atoms: C_16  and  C_17
REMARK    7  A    between atoms: C_24  and  O_25
REMARK    8  A    between atoms: O_25  and  C_26
REMARK    9  A    between atoms: C_30  and  O_31
REMARK   10  A    between atoms: O_31  and  C_32
REMARK                            x       y       z     vdW  Elec       q    Type
REMARK                         _______ _______ _______ _____ _____    ______ ____
ROOT
ATOM      1  C   UNL     1       1.933   7.750  19.966  0.00  0.00    +0.000 A 
ATOM      2  C   UNL     1       1.279   7.647  21.195  0.00  0.00    +0.000 A 
ATOM      3  C   UNL     1       0.305   8.564  21.561  0.00  0.00    +0.000 A 
ATOM      4  C   UNL     1      -0.007   9.631  20.715  0.00  0.00    +0.000 A 
ATOM      5  C   UNL     1       0.547   9.676  19.420  0.00  0.00    +0.000 A 
ATOM      6  C   UNL     1       1.506   8.721  19.053  0.00  0.00    +0.000 A 
ENDROOT
BRANCH   1  14
ATOM      7  C   UNL     1       6.131   4.488  16.477  0.00  0.00    +0.000 A 
ATOM      8  C   UNL     1       4.896   3.817  16.500  0.00  0.00    +0.000 A 
ATOM      9  C   UNL     1       3.843   4.218  17.307  0.00  0.00    +0.000 A 
ATOM     10  N   UNL     1       2.664   3.604  17.178  0.00  0.00    +0.000 NA
ATOM     11  C   UNL     1       1.653   4.100  17.896  0.00  0.00    +0.000 A 
ATOM     12  N   UNL     1       1.720   5.142  18.726  0.00  0.00    +0.000 NA
ATOM     13  C   UNL     1       2.921   5.738  18.867  0.00  0.00    +0.000 A 
ATOM     14  N   UNL     1       3.018   6.903  19.673  0.00  0.00    +0.000 N 
ATOM     15  C   UNL     1       4.051   5.289  18.176  0.00  0.00    +0.000 A 
ATOM     16  C   UNL     1       5.325   5.886  18.256  0.00  0.00    +0.000 A 
ATOM     17  C   UNL     1       6.367   5.505  17.407  0.00  0.00    +0.000 A 
ATOM     18  H   UNL     1       3.670   6.765  20.434  0.00  0.00    +0.000 HD
BRANCH   7  20
ATOM     19  C   UNL     1       7.038   4.841  14.316  0.00  0.00    +0.000 C 
ATOM     20  O   UNL     1       7.102   4.154  15.570  0.00  0.00    +0.000 OA
ENDBRANCH   7  20
BRANCH  17  21
ATOM     21  O   UNL     1       7.486   6.256  17.626  0.00  0.00    +0.000 OA
ATOM     22  C   UNL     1       7.427   7.663  17.475  0.00  0.00    +0.000 C 
ENDBRANCH  17  21
ENDBRANCH   1  14
BRANCH   5  23
ATOM     23  O   UNL     1       0.131  10.704  18.608  0.00  0.00    +0.000 OA
ATOM     24  C   UNL     1      -1.014  10.469  17.797  0.00  0.00    +0.000 C 
ENDBRANCH   5  23
BRANCH   4  25
ATOM     25  O   UNL     1      -0.820  10.672  21.113  0.00  0.00    +0.000 OA
BRANCH  25  26
ATOM     26  C   UNL     1      -0.376  11.327  22.313  0.00  0.00    +0.000 C 
BRANCH  26  27
ATOM     27  C   UNL     1      -1.378  12.311  22.874  0.00  0.00    +0.000 A 
ATOM     28  C   UNL     1      -2.592  11.852  23.411  0.00  0.00    +0.000 A 
ATOM     29  C   UNL     1      -3.577  12.752  23.825  0.00  0.00    +0.000 A 
ATOM     30  C   UNL     1      -3.367  14.123  23.706  0.00  0.00    +0.000 A 
ATOM     31  C   UNL     1      -2.173  14.597  23.177  0.00  0.00    +0.000 A 
ATOM     32  C   UNL     1      -1.189  13.700  22.752  0.00  0.00    +0.000 A 
ATOM     33 BR   UNL     1       0.379  14.450  21.971  0.00  0.00    +0.000 Br
ENDBRANCH  26  27
ENDBRANCH  25  26
ENDBRANCH   4  25
TORSDOF 7
ENDMDL
MODEL 5
REMARK VINA RESULT:      -8.0      1.654      2.322
REMARK  Name = 
REMARK  10 active torsions:
REMARK  status: ('A' for Active; 'I' for Inactive)
REMARK    1  A    between atoms: C_1  and  O_2
REMARK    2  A    between atoms: O_2  and  C_3
REMARK    3  A    between atoms: N_10  and  C_11
REMARK    4  A    between atoms: C_14  and  O_15
REMARK    5  A    between atoms: O_15  and  C_16
REMARK    6  A    between atoms: C_16  and  C_17
REMARK    7  A    between atoms: C_24  and  O_25
REMARK    8  A    between atoms: O_25  and  C_26
REMARK    9  A    between atoms: C_30  and  O_31
REMARK   10  A    between atoms: O_31  and  C_32
REMARK                            x       y       z     vdW  Elec       q    Type
REMARK                         _______ _______ _______ _____ _____    ______ ____
ROOT
ATOM      1  C   UNL     1       2.072   8.349  19.084  0.00  0.00    +0.000 A 
ATOM      2  C   UNL     1       1.616   9.169  18.050  0.00  0.00    +0.000 A 
ATOM      3  C   UNL     1       0.477   9.946  18.209  0.00  0.00    +0.000 A 
ATOM      4  C   UNL     1      -0.252   9.884  19.398  0.00  0.00    +0.000 A 
ATOM      5  C   UNL     1       0.263   9.165  20.495  0.00  0.00    +0.000 A 
ATOM      6  C   UNL     1       1.435   8.412  20.328  0.00  0.00    +0.000 A 
ENDROOT
BRANCH   1  14
ATOM      7  C   UNL     1       5.895   4.358  15.939  0.00  0.00    +0.000 A 
ATOM      8  C   UNL     1       4.697   3.708  16.286  0.00  0.00    +0.000 A 
ATOM      9  C   UNL     1       3.744   4.288  17.108  0.00  0.00    +0.000 A 
ATOM     10  N   UNL     1       2.581   3.658  17.287  0.00  0.00    +0.000 NA
ATOM     11  C   UNL     1       1.654   4.309  17.996  0.00  0.00    +0.000 A 
ATOM     12  N   UNL     1       1.792   5.520  18.538  0.00  0.00    +0.000 NA
ATOM     13  C   UNL     1       2.979   6.135  18.372  0.00  0.00    +0.000 A 
ATOM     14  N   UNL     1       3.139   7.459  18.858  0.00  0.00    +0.000 N 
ATOM     15  C   UNL     1       4.026   5.537  17.663  0.00  0.00    +0.000 A 
ATOM     16  C   UNL     1       5.278   6.139  17.427  0.00  0.00    +0.000 A 
ATOM     17  C   UNL     1       6.214   5.569  16.562  0.00  0.00    +0.000 A 
ATOM     18  H   UNL     1       3.888   7.509  19.536  0.00  0.00    +0.000 HD
BRANCH   7  20
ATOM     19  C   UNL     1       6.357   3.966  13.648  0.00  0.00    +0.000 C 
ATOM     20  O   UNL     1       6.751   3.819  15.016  0.00  0.00    +0.000 OA
ENDBRANCH   7  20
BRANCH  17  21
ATOM     21  O   UNL     1       7.325   6.353  16.444  0.00  0.00    +0.000 OA
ATOM     22  C   UNL     1       7.630   7.294  17.458  0.00  0.00    +0.000 C 
ENDBRANCH  17  21
ENDBRANCH   1  14
BRANCH   5  23
ATOM     23  O   UNL     1      -0.461   9.218  21.662  0.00  0.00    +0.000 OA
ATOM     24  C   UNL     1       0.267   9.404  22.870  0.00  0.00    +0.000 C 
ENDBRANCH   5  23
BRANCH   4  25
ATOM     25  O   UNL     1      -1.489  10.482  19.534  0.00  0.00    +0.000 OA
BRANCH  25  26
ATOM     26  C   UNL     1      -1.437  11.919  19.558  0.00  0.00    +0.000 C 
BRANCH  26  27
ATOM     27  C   UNL     1      -1.849  12.519  20.883  0.00  0.00    +0.000 A 
ATOM     28  C   UNL     1      -0.901  12.694  21.905  0.00  0.00    +0.000 A 
ATOM     29  C   UNL     1      -1.287  13.136  23.171  0.00  0.00    +0.000 A 
ATOM     30  C   UNL     1      -2.626  13.408  23.441  0.00  0.00    +0.000 A 
ATOM     31  C   UNL     1      -3.579  13.241  22.444  0.00  0.00    +0.000 A 
ATOM     32  C   UNL     1      -3.199  12.789  21.177  0.00  0.00    +0.000 A 
ATOM     33 BR   UNL     1      -4.592  12.521  19.906  0.00  0.00    +0.000 Br
ENDBRANCH  26  27
ENDBRANCH  25  26
ENDBRANCH   4  25
TORSDOF 7
ENDMDL
MODEL 6
REMARK VINA RESULT:      -7.9      1.067      1.361
REMARK  Name = 
REMARK  10 active torsions:
REMARK  status: ('A' for Active; 'I' for Inactive)
REMARK    1  A    between atoms: C_1  and  O_2
REMARK    2  A    between atoms: O_2  and  C_3
REMARK    3  A    between atoms: N_10  and  C_11
REMARK    4  A    between atoms: C_14  and  O_15
REMARK    5  A    between atoms: O_15  and  C_16
REMARK    6  A    between atoms: C_16  and  C_17
REMARK    7  A    between atoms: C_24  and  O_25
REMARK    8  A    between atoms: O_25  and  C_26
REMARK    9  A    between atoms: C_30  and  O_31
REMARK   10  A    between atoms: O_31  and  C_32
REMARK                            x       y       z     vdW  Elec       q    Type
REMARK                         _______ _______ _______ _____ _____    ______ ____
ROOT
ATOM      1  C   UNL     1       2.029   8.411  19.100  0.00  0.00    +0.000 A 
ATOM      2  C   UNL     1       1.475   9.114  18.028  0.00  0.00    +0.000 A 
ATOM      3  C   UNL     1       0.305   9.842  18.184  0.00  0.00    +0.000 A 
ATOM      4  C   UNL     1      -0.358   9.848  19.414  0.00  0.00    +0.000 A 
ATOM      5  C   UNL     1       0.252   9.254  20.536  0.00  0.00    +0.000 A 
ATOM      6  C   UNL     1       1.454   8.550  20.368  0.00  0.00    +0.000 A 
ENDROOT
BRANCH   1  14
ATOM      7  C   UNL     1       6.061   4.591  16.003  0.00  0.00    +0.000 A 
ATOM      8  C   UNL     1       4.877   3.897  16.313  0.00  0.00    +0.000 A 
ATOM      9  C   UNL     1       3.886   4.434  17.117  0.00  0.00    +0.000 A 
ATOM     10  N   UNL     1       2.740   3.763  17.261  0.00  0.00    +0.000 NA
ATOM     11  C   UNL     1       1.775   4.374  17.954  0.00  0.00    +0.000 A 
ATOM     12  N   UNL     1       1.858   5.581  18.514  0.00  0.00    +0.000 NA
ATOM     13  C   UNL     1       3.028   6.238  18.385  0.00  0.00    +0.000 A 
ATOM     14  N   UNL     1       3.131   7.561  18.890  0.00  0.00    +0.000 N 
ATOM     15  C   UNL     1       4.111   5.685  17.694  0.00  0.00    +0.000 A 
ATOM     16  C   UNL     1       5.347   6.332  17.497  0.00  0.00    +0.000 A 
ATOM     17  C   UNL     1       6.323   5.804  16.648  0.00  0.00    +0.000 A 
ATOM     18  H   UNL     1       3.861   7.628  19.586  0.00  0.00    +0.000 HD
BRANCH   7  20
ATOM     19  C   UNL     1       6.512   4.074  13.735  0.00  0.00    +0.000 C 
ATOM     20  O   UNL     1       6.957   4.093  15.095  0.00  0.00    +0.000 OA
ENDBRANCH   7  20
BRANCH  17  21
ATOM     21  O   UNL     1       7.409   6.627  16.567  0.00  0.00    +0.000 OA
ATOM     22  C   UNL     1       7.537   7.710  17.470  0.00  0.00    +0.000 C 
ENDBRANCH  17  21
ENDBRANCH   1  14
BRANCH   5  23
ATOM     23  O   UNL     1      -0.412   9.371  21.734  0.00  0.00    +0.000 OA
ATOM     24  C   UNL     1       0.381   9.427  22.914  0.00  0.00    +0.000 C 
ENDBRANCH   5  23
BRANCH   4  25
ATOM     25  O   UNL     1      -1.617  10.391  19.569  0.00  0.00    +0.000 OA
BRANCH  25  26
ATOM     26  C   UNL     1      -1.944  11.383  18.580  0.00  0.00    +0.000 C 
BRANCH  26  27
ATOM     27  C   UNL     1      -3.416  11.724  18.527  0.00  0.00    +0.000 A 
ATOM     28  C   UNL     1      -4.160  11.464  17.365  0.00  0.00    +0.000 A 
ATOM     29  C   UNL     1      -5.489  11.878  17.257  0.00  0.00    +0.000 A 
ATOM     30  C   UNL     1      -6.096  12.562  18.307  0.00  0.00    +0.000 A 
ATOM     31  C   UNL     1      -5.378  12.829  19.466  0.00  0.00    +0.000 A 
ATOM     32  C   UNL     1      -4.044  12.425  19.574  0.00  0.00    +0.000 A 
ATOM     33 BR   UNL     1      -3.126  12.907  21.172  0.00  0.00    +0.000 Br
ENDBRANCH  26  27
ENDBRANCH  25  26
ENDBRANCH   4  25
TORSDOF 7
ENDMDL
MODEL 7
REMARK VINA RESULT:      -7.9      2.155      3.344
REMARK  Name = 
REMARK  10 active torsions:
REMARK  status: ('A' for Active; 'I' for Inactive)
REMARK    1  A    between atoms: C_1  and  O_2
REMARK    2  A    between atoms: O_2  and  C_3
REMARK    3  A    between atoms: N_10  and  C_11
REMARK    4  A    between atoms: C_14  and  O_15
REMARK    5  A    between atoms: O_15  and  C_16
REMARK    6  A    between atoms: C_16  and  C_17
REMARK    7  A    between atoms: C_24  and  O_25
REMARK    8  A    between atoms: O_25  and  C_26
REMARK    9  A    between atoms: C_30  and  O_31
REMARK   10  A    between atoms: O_31  and  C_32
REMARK                            x       y       z     vdW  Elec       q    Type
REMARK                         _______ _______ _______ _____ _____    ______ ____
ROOT
ATOM      1  C   UNL     1       2.102   7.864  19.552  0.00  0.00    +0.000 A 
ATOM      2  C   UNL     1       1.621   7.838  20.862  0.00  0.00    +0.000 A 
ATOM      3  C   UNL     1       0.622   8.710  21.270  0.00  0.00    +0.000 A 
ATOM      4  C   UNL     1       0.112   9.657  20.378  0.00  0.00    +0.000 A 
ATOM      5  C   UNL     1       0.491   9.612  19.022  0.00  0.00    +0.000 A 
ATOM      6  C   UNL     1       1.478   8.700  18.619  0.00  0.00    +0.000 A 
ENDROOT
BRANCH   1  14
ATOM      7  C   UNL     1       6.065   4.535  15.858  0.00  0.00    +0.000 A 
ATOM      8  C   UNL     1       4.918   3.774  16.146  0.00  0.00    +0.000 A 
ATOM      9  C   UNL     1       3.956   4.188  17.053  0.00  0.00    +0.000 A 
ATOM     10  N   UNL     1       2.838   3.469  17.177  0.00  0.00    +0.000 NA
ATOM     11  C   UNL     1       1.894   3.969  17.980  0.00  0.00    +0.000 A 
ATOM     12  N   UNL     1       1.975   5.111  18.665  0.00  0.00    +0.000 NA
ATOM     13  C   UNL     1       3.118   5.815  18.552  0.00  0.00    +0.000 A 
ATOM     14  N   UNL     1       3.213   7.077  19.195  0.00  0.00    +0.000 N 
ATOM     15  C   UNL     1       4.178   5.375  17.753  0.00  0.00    +0.000 A 
ATOM     16  C   UNL     1       5.386   6.078  17.568  0.00  0.00    +0.000 A 
ATOM     17  C   UNL     1       6.329   5.678  16.619  0.00  0.00    +0.000 A 
ATOM     18  H   UNL     1       3.977   7.091  19.858  0.00  0.00    +0.000 HD
BRANCH   7  20
ATOM     19  C   UNL     1       6.367   4.144  13.540  0.00  0.00    +0.000 C 
ATOM     20  O   UNL     1       6.926   4.168  14.857  0.00  0.00    +0.000 OA
ENDBRANCH   7  20
BRANCH  17  21
ATOM     21  O   UNL     1       7.387   6.539  16.577  0.00  0.00    +0.000 OA
ATOM     22  C   UNL     1       7.555   7.496  17.607  0.00  0.00    +0.000 C 
ENDBRANCH  17  21
ENDBRANCH   1  14
BRANCH   5  23
ATOM     23  O   UNL     1      -0.114  10.515  18.182  0.00  0.00    +0.000 OA
ATOM     24  C   UNL     1      -1.258  10.069  17.463  0.00  0.00    +0.000 C 
ENDBRANCH   5  23
BRANCH   4  25
ATOM     25  O   UNL     1      -0.736  10.668  20.784  0.00  0.00    +0.000 OA
BRANCH  25  26
ATOM     26  C   UNL     1      -0.072  11.729  21.493  0.00  0.00    +0.000 C 
BRANCH  26  27
ATOM     27  C   UNL     1       0.330  12.889  20.610  0.00  0.00    +0.000 A 
ATOM     28  C   UNL     1       1.666  13.039  20.206  0.00  0.00    +0.000 A 
ATOM     29  C   UNL     1       2.076  14.166  19.490  0.00  0.00    +0.000 A 
ATOM     30  C   UNL     1       1.159  15.163  19.169  0.00  0.00    +0.000 A 
ATOM     31  C   UNL     1      -0.168  15.033  19.559  0.00  0.00    +0.000 A 
ATOM     32  C   UNL     1      -0.581  13.912  20.285  0.00  0.00    +0.000 A 
ATOM     33 BR   UNL     1      -2.403  13.868  20.838  0.00  0.00    +0.000 Br
ENDBRANCH  26  27
ENDBRANCH  25  26
ENDBRANCH   4  25
TORSDOF 7
ENDMDL
MODEL 8
REMARK VINA RESULT:      -7.8      1.609      2.039
REMARK  Name = 
REMARK  10 active torsions:
REMARK  status: ('A' for Active; 'I' for Inactive)
REMARK    1  A    between atoms: C_1  and  O_2
REMARK    2  A    between atoms: O_2  and  C_3
REMARK    3  A    between atoms: N_10  and  C_11
REMARK    4  A    between atoms: C_14  and  O_15
REMARK    5  A    between atoms: O_15  and  C_16
REMARK    6  A    between atoms: C_16  and  C_17
REMARK    7  A    between atoms: C_24  and  O_25
REMARK    8  A    between atoms: O_25  and  C_26
REMARK    9  A    between atoms: C_30  and  O_31
REMARK   10  A    between atoms: O_31  and  C_32
REMARK                            x       y       z     vdW  Elec       q    Type
REMARK                         _______ _______ _______ _____ _____    ______ ____
ROOT
ATOM      1  C   UNL     1       2.057   8.387  19.061  0.00  0.00    +0.000 A 
ATOM      2  C   UNL     1       1.566   9.167  18.012  0.00  0.00    +0.000 A 
ATOM      3  C   UNL     1       0.413   9.922  18.167  0.00  0.00    +0.000 A 
ATOM      4  C   UNL     1      -0.297   9.879  19.370  0.00  0.00    +0.000 A 
ATOM      5  C   UNL     1       0.252   9.203  20.477  0.00  0.00    +0.000 A 
ATOM      6  C   UNL     1       1.438   8.472  20.313  0.00  0.00    +0.000 A 
ENDROOT
BRANCH   1  14
ATOM      7  C   UNL     1       5.995   4.495  15.934  0.00  0.00    +0.000 A 
ATOM      8  C   UNL     1       4.799   3.824  16.249  0.00  0.00    +0.000 A 
ATOM      9  C   UNL     1       3.823   4.379  17.060  0.00  0.00    +0.000 A 
ATOM     10  N   UNL     1       2.665   3.730  17.208  0.00  0.00    +0.000 NA
ATOM     11  C   UNL     1       1.716   4.358  17.908  0.00  0.00    +0.000 A 
ATOM     12  N   UNL     1       1.827   5.563  18.470  0.00  0.00    +0.000 NA
ATOM     13  C   UNL     1       3.008   6.197  18.336  0.00  0.00    +0.000 A 
ATOM     14  N   UNL     1       3.140   7.516  18.843  0.00  0.00    +0.000 N 
ATOM     15  C   UNL     1       4.076   5.623  17.638  0.00  0.00    +0.000 A 
ATOM     16  C   UNL     1       5.325   6.246  17.435  0.00  0.00    +0.000 A 
ATOM     17  C   UNL     1       6.285   5.701  16.580  0.00  0.00    +0.000 A 
ATOM     18  H   UNL     1       3.876   7.566  19.536  0.00  0.00    +0.000 HD
BRANCH   7  20
ATOM     19  C   UNL     1       6.421   3.968  13.663  0.00  0.00    +0.000 C 
ATOM     20  O   UNL     1       6.876   3.981  15.020  0.00  0.00    +0.000 OA
ENDBRANCH   7  20
BRANCH  17  21
ATOM     21  O   UNL     1       7.386   6.502  16.495  0.00  0.00    +0.000 OA
ATOM     22  C   UNL     1       7.590   7.519  17.459  0.00  0.00    +0.000 C 
ENDBRANCH  17  21
ENDBRANCH   1  14
BRANCH   5  23
ATOM     23  O   UNL     1      -0.454   9.273  21.654  0.00  0.00    +0.000 OA
ATOM     24  C   UNL     1       0.293   9.449  22.851  0.00  0.00    +0.000 C 
ENDBRANCH   5  23
BRANCH   4  25
ATOM     25  O   UNL     1      -1.544  10.452  19.508  0.00  0.00    +0.000 OA
BRANCH  25  26
ATOM     26  C   UNL     1      -1.508  11.877  19.696  0.00  0.00    +0.000 C 
BRANCH  26  27
ATOM     27  C   UNL     1      -2.730  12.428  20.395  0.00  0.00    +0.000 A 
ATOM     28  C   UNL     1      -3.961  12.490  19.721  0.00  0.00    +0.000 A 
ATOM     29  C   UNL     1      -5.070  13.102  20.309  0.00  0.00    +0.000 A 
ATOM     30  C   UNL     1      -4.967  13.665  21.579  0.00  0.00    +0.000 A 
ATOM     31  C   UNL     1      -3.759  13.613  22.263  0.00  0.00    +0.000 A 
ATOM     32  C   UNL     1      -2.644  13.011  21.673  0.00  0.00    +0.000 A 
ATOM     33 BR   UNL     1      -1.016  13.061  22.662  0.00  0.00    +0.000 Br
ENDBRANCH  26  27
ENDBRANCH  25  26
ENDBRANCH   4  25
TORSDOF 7
ENDMDL
MODEL 9
REMARK VINA RESULT:      -7.8      4.546     11.193
REMARK  Name = 
REMARK  10 active torsions:
REMARK  status: ('A' for Active; 'I' for Inactive)
REMARK    1  A    between atoms: C_1  and  O_2
REMARK    2  A    between atoms: O_2  and  C_3
REMARK    3  A    between atoms: N_10  and  C_11
REMARK    4  A    between atoms: C_14  and  O_15
REMARK    5  A    between atoms: O_15  and  C_16
REMARK    6  A    between atoms: C_16  and  C_17
REMARK    7  A    between atoms: C_24  and  O_25
REMARK    8  A    between atoms: O_25  and  C_26
REMARK    9  A    between atoms: C_30  and  O_31
REMARK   10  A    between atoms: O_31  and  C_32
REMARK                            x       y       z     vdW  Elec       q    Type
REMARK                         _______ _______ _______ _____ _____    ______ ____
ROOT
ATOM      1  C   UNL     1      -0.522  10.476  22.217  0.00  0.00    +0.000 A 
ATOM      2  C   UNL     1       0.360   9.546  22.773  0.00  0.00    +0.000 A 
ATOM      3  C   UNL     1       1.163   8.756  21.964  0.00  0.00    +0.000 A 
ATOM      4  C   UNL     1       1.068   8.853  20.573  0.00  0.00    +0.000 A 
ATOM      5  C   UNL     1       0.283   9.872  19.999  0.00  0.00    +0.000 A 
ATOM      6  C   UNL     1      -0.497  10.686  20.834  0.00  0.00    +0.000 A 
ENDROOT
BRANCH   1  14
ATOM      7  C   UNL     1      -5.076  14.592  23.873  0.00  0.00    +0.000 A 
ATOM      8  C   UNL     1      -3.848  15.262  23.726  0.00  0.00    +0.000 A 
ATOM      9  C   UNL     1      -2.653  14.593  23.520  0.00  0.00    +0.000 A 
ATOM     10  N   UNL     1      -1.553  15.306  23.266  0.00  0.00    +0.000 NA
ATOM     11  C   UNL     1      -0.451  14.613  22.963  0.00  0.00    +0.000 A 
ATOM     12  N   UNL     1      -0.356  13.284  22.899  0.00  0.00    +0.000 NA
ATOM     13  C   UNL     1      -1.466  12.575  23.182  0.00  0.00    +0.000 A 
ATOM     14  N   UNL     1      -1.432  11.162  23.041  0.00  0.00    +0.000 N 
ATOM     15  C   UNL     1      -2.669  13.198  23.529  0.00  0.00    +0.000 A 
ATOM     16  C   UNL     1      -3.871  12.516  23.805  0.00  0.00    +0.000 A 
ATOM     17  C   UNL     1      -5.080  13.197  23.967  0.00  0.00    +0.000 A 
ATOM     18  H   UNL     1      -1.644  10.705  23.918  0.00  0.00    +0.000 HD
BRANCH   7  20
ATOM     19  C   UNL     1      -6.218  16.620  23.425  0.00  0.00    +0.000 C 
ATOM     20  O   UNL     1      -6.257  15.284  23.936  0.00  0.00    +0.000 OA
ENDBRANCH   7  20
BRANCH  17  21
ATOM     21  O   UNL     1      -6.115  12.331  24.168  0.00  0.00    +0.000 OA
ATOM     22  C   UNL     1      -7.143  12.229  23.199  0.00  0.00    +0.000 C 
ENDBRANCH  17  21
ENDBRANCH   1  14
BRANCH   5  23
ATOM     23  O   UNL     1       0.303   9.968  18.628  0.00  0.00    +0.000 OA
ATOM     24  C   UNL     1      -0.943  10.168  17.972  0.00  0.00    +0.000 C 
ENDBRANCH   5  23
BRANCH   4  25
ATOM     25  O   UNL     1       1.697   7.961  19.729  0.00  0.00    +0.000 OA
BRANCH  25  26
ATOM     26  C   UNL     1       2.267   6.828  20.407  0.00  0.00    +0.000 C 
BRANCH  26  27
ATOM     27  C   UNL     1       1.949   5.504  19.748  0.00  0.00    +0.000 A 
ATOM     28  C   UNL     1       1.113   4.577  20.392  0.00  0.00    +0.000 A 
ATOM     29  C   UNL     1       0.904   3.306  19.853  0.00  0.00    +0.000 A 
ATOM     30  C   UNL     1       1.528   2.939  18.664  0.00  0.00    +0.000 A 
ATOM     31  C   UNL     1       2.357   3.841  18.010  0.00  0.00    +0.000 A 
ATOM     32  C   UNL     1       2.578   5.111  18.552  0.00  0.00    +0.000 A 
ATOM     33 BR   UNL     1       3.793   6.244  17.619  0.00  0.00    +0.000 Br
ENDBRANCH  26  27
ENDBRANCH  25  26
ENDBRANCH   4  25
TORSDOF 7
ENDMDL
