MODEL 1
REMARK VINA RESULT:      -8.7      0.000      0.000
REMARK  Name = 
REMARK  4 active torsions:
REMARK  status: ('A' for Active; 'I' for Inactive)
REMARK    1  A    between atoms: N_1  and  S_2
REMARK    2  A    between atoms: S_2  and  C_5
REMARK    3  A    between atoms: C_8  and  N_9
REMARK    4  A    between atoms: C_17  and  C_18
REMARK                            x       y       z     vdW  Elec       q    Type
REMARK                         _______ _______ _______ _____ _____    ______ ____
ROOT
ATOM      1  N   UNL     1       1.440   7.485  21.116  0.00  0.00    +0.000 N 
ATOM      2  C   UNL     1       1.843   6.332  20.439  0.00  0.00    +0.000 A 
ATOM      3  N   UNL     1       1.316   5.165  20.839  0.00  0.00    +0.000 NA
ATOM      4  C   UNL     1       1.698   4.059  20.159  0.00  0.00    +0.000 A 
ATOM      5  C   UNL     1       2.582   4.085  19.104  0.00  0.00    +0.000 A 
ATOM      6  C   UNL     1       3.091   5.320  18.771  0.00  0.00    +0.000 A 
ATOM      7  N   UNL     1       2.721   6.439  19.424  0.00  0.00    +0.000 NA
ATOM      8  C   UNL     1       4.047   5.505  17.627  0.00  0.00    +0.000 C 
ATOM      9  C   UNL     1       4.751   4.196  17.237  0.00  0.00    +0.000 C 
ATOM     10  C   UNL     1       3.730   3.065  17.076  0.00  0.00    +0.000 C 
ATOM     11  C   UNL     1       2.946   2.876  18.355  0.00  0.00    +0.000 C 
ATOM     12  O   UNL     1       2.557   1.778  18.738  0.00  0.00    +0.000 OA
ATOM     13  H   UNL     1       0.671   7.234  21.725  0.00  0.00    +0.000 HD
ENDROOT
BRANCH   1  17
ATOM     14  C   UNL     1       1.005  11.321  19.444  0.00  0.00    +0.000 A 
ATOM     15  C   UNL     1       1.297  10.247  18.605  0.00  0.00    +0.000 A 
ATOM     16  C   UNL     1       1.439   8.972  19.157  0.00  0.00    +0.000 A 
ATOM     17  C   UNL     1       1.310   8.762  20.538  0.00  0.00    +0.000 A 
ATOM     18  C   UNL     1       0.976   9.850  21.355  0.00  0.00    +0.000 A 
ATOM     19  C   UNL     1       0.838  11.133  20.816  0.00  0.00    +0.000 A 
BRANCH  14  20
ATOM     20  S   UNL     1       0.810  12.932  18.742  0.00  0.00    +0.000 S 
ATOM     21  O   UNL     1       1.220  13.917  19.713  0.00  0.00    +0.000 OA
ATOM     22  O   UNL     1      -0.440  13.002  18.030  0.00  0.00    +0.000 OA
BRANCH  20  23
ATOM     23  N   UNL     1       1.997  12.924  17.549  0.00  0.00    +0.000 NA
ATOM     24  H   UNL     1       1.611  12.540  16.686  0.00  0.00    +0.000 HD
ATOM     25  H   UNL     1       2.831  12.446  17.884  0.00  0.00    +0.000 HD
ENDBRANCH  20  23
ENDBRANCH  14  20
ENDBRANCH   1  17
BRANCH   9  26
ATOM     26  C   UNL     1       5.600   4.364  15.990  0.00  0.00    +0.000 A 
ATOM     27  C   UNL     1       6.820   5.052  16.064  0.00  0.00    +0.000 A 
ATOM     28  C   UNL     1       7.609   5.231  14.925  0.00  0.00    +0.000 A 
ATOM     29  C   UNL     1       7.190   4.720  13.698  0.00  0.00    +0.000 A 
ATOM     30  C   UNL     1       5.987   4.025  13.611  0.00  0.00    +0.000 A 
ATOM     31  C   UNL     1       5.199   3.845  14.748  0.00  0.00    +0.000 A 
ENDBRANCH   9  26
TORSDOF 4
ENDMDL
MODEL 2
REMARK VINA RESULT:      -8.6      0.655      1.174
REMARK  Name = 
REMARK  4 active torsions:
REMARK  status: ('A' for Active; 'I' for Inactive)
REMARK    1  A    between atoms: N_1  and  S_2
REMARK    2  A    between atoms: S_2  and  C_5
REMARK    3  A    between atoms: C_8  and  N_9
REMARK    4  A    between atoms: C_17  and  C_18
REMARK                            x       y       z     vdW  Elec       q    Type
REMARK                         _______ _______ _______ _____ _____    ______ ____
ROOT
ATOM      1  N   UNL     1       1.404   7.543  21.132  0.00  0.00    +0.000 N 
ATOM      2  C   UNL     1       1.801   6.391  20.450  0.00  0.00    +0.000 A 
ATOM      3  N   UNL     1       1.269   5.225  20.846  0.00  0.00    +0.000 NA
ATOM      4  C   UNL     1       1.645   4.120  20.161  0.00  0.00    +0.000 A 
ATOM      5  C   UNL     1       2.528   4.146  19.106  0.00  0.00    +0.000 A 
ATOM      6  C   UNL     1       3.044   5.379  18.777  0.00  0.00    +0.000 A 
ATOM      7  N   UNL     1       2.679   6.497  19.435  0.00  0.00    +0.000 NA
ATOM      8  C   UNL     1       4.000   5.565  17.633  0.00  0.00    +0.000 C 
ATOM      9  C   UNL     1       4.697   4.254  17.237  0.00  0.00    +0.000 C 
ATOM     10  C   UNL     1       3.670   3.128  17.073  0.00  0.00    +0.000 C 
ATOM     11  C   UNL     1       2.886   2.938  18.351  0.00  0.00    +0.000 C 
ATOM     12  O   UNL     1       2.493   1.840  18.730  0.00  0.00    +0.000 OA
ATOM     13  H   UNL     1       0.635   7.293  21.741  0.00  0.00    +0.000 HD
ENDROOT
BRANCH   1  17
ATOM     14  C   UNL     1       0.985  11.387  19.474  0.00  0.00    +0.000 A 
ATOM     15  C   UNL     1       1.290  10.318  18.634  0.00  0.00    +0.000 A 
ATOM     16  C   UNL     1       1.427   9.040  19.181  0.00  0.00    +0.000 A 
ATOM     17  C   UNL     1       1.280   8.823  20.559  0.00  0.00    +0.000 A 
ATOM     18  C   UNL     1       0.933   9.906  21.377  0.00  0.00    +0.000 A 
ATOM     19  C   UNL     1       0.800  11.191  20.844  0.00  0.00    +0.000 A 
BRANCH  14  20
ATOM     20  S   UNL     1       0.797  13.001  18.779  0.00  0.00    +0.000 S 
ATOM     21  O   UNL     1       1.919  13.270  17.911  0.00  0.00    +0.000 OA
ATOM     22  O   UNL     1       0.355  13.919  19.797  0.00  0.00    +0.000 OA
BRANCH  20  23
ATOM     23  N   UNL     1      -0.534  12.781  17.774  0.00  0.00    +0.000 NA
ATOM     24  H   UNL     1      -1.374  12.664  18.341  0.00  0.00    +0.000 HD
ATOM     25  H   UNL     1      -0.360  12.021  17.120  0.00  0.00    +0.000 HD
ENDBRANCH  20  23
ENDBRANCH  14  20
ENDBRANCH   1  17
BRANCH   9  26
ATOM     26  C   UNL     1       5.546   4.422  15.991  0.00  0.00    +0.000 A 
ATOM     27  C   UNL     1       5.147   3.821  14.788  0.00  0.00    +0.000 A 
ATOM     28  C   UNL     1       5.923   3.951  13.634  0.00  0.00    +0.000 A 
ATOM     29  C   UNL     1       7.106   4.686  13.666  0.00  0.00    +0.000 A 
ATOM     30  C   UNL     1       7.510   5.297  14.849  0.00  0.00    +0.000 A 
ATOM     31  C   UNL     1       6.735   5.170  16.003  0.00  0.00    +0.000 A 
ENDBRANCH   9  26
TORSDOF 4
ENDMDL
MODEL 3
REMARK VINA RESULT:      -8.6      0.096      1.293
REMARK  Name = 
REMARK  4 active torsions:
REMARK  status: ('A' for Active; 'I' for Inactive)
REMARK    1  A    between atoms: N_1  and  S_2
REMARK    2  A    between atoms: S_2  and  C_5
REMARK    3  A    between atoms: C_8  and  N_9
REMARK    4  A    between atoms: C_17  and  C_18
REMARK                            x       y       z     vdW  Elec       q    Type
REMARK                         _______ _______ _______ _____ _____    ______ ____
ROOT
ATOM      1  N   UNL     1       1.369   7.478  21.168  0.00  0.00    +0.000 N 
ATOM      2  C   UNL     1       1.778   6.337  20.474  0.00  0.00    +0.000 A 
ATOM      3  N   UNL     1       1.245   5.164  20.846  0.00  0.00    +0.000 NA
ATOM      4  C   UNL     1       1.633   4.070  20.150  0.00  0.00    +0.000 A 
ATOM      5  C   UNL     1       2.530   4.114  19.108  0.00  0.00    +0.000 A 
ATOM      6  C   UNL     1       3.046   5.354  18.804  0.00  0.00    +0.000 A 
ATOM      7  N   UNL     1       2.670   6.461  19.473  0.00  0.00    +0.000 NA
ATOM      8  C   UNL     1       4.017   5.559  17.676  0.00  0.00    +0.000 C 
ATOM      9  C   UNL     1       4.723   4.256  17.270  0.00  0.00    +0.000 C 
ATOM     10  C   UNL     1       3.702   3.130  17.075  0.00  0.00    +0.000 C 
ATOM     11  C   UNL     1       2.902   2.919  18.340  0.00  0.00    +0.000 C 
ATOM     12  O   UNL     1       2.506   1.814  18.697  0.00  0.00    +0.000 OA
ATOM     13  H   UNL     1       0.592   7.217  21.762  0.00  0.00    +0.000 HD
ENDROOT
BRANCH   1  17
ATOM     14  C   UNL     1       1.055  11.306  19.451  0.00  0.00    +0.000 A 
ATOM     15  C   UNL     1       0.912  11.170  20.831  0.00  0.00    +0.000 A 
ATOM     16  C   UNL     1       1.019   9.901  21.403  0.00  0.00    +0.000 A 
ATOM     17  C   UNL     1       1.249   8.766  20.612  0.00  0.00    +0.000 A 
ATOM     18  C   UNL     1       1.430   8.933  19.233  0.00  0.00    +0.000 A 
ATOM     19  C   UNL     1       1.318  10.197  18.646  0.00  0.00    +0.000 A 
BRANCH  14  20
ATOM     20  S   UNL     1       0.935  12.915  18.729  0.00  0.00    +0.000 S 
ATOM     21  O   UNL     1       1.410  13.891  19.680  0.00  0.00    +0.000 OA
ATOM     22  O   UNL     1      -0.320  13.041  18.035  0.00  0.00    +0.000 OA
BRANCH  20  23
ATOM     23  N   UNL     1       2.101  12.829  17.520  0.00  0.00    +0.000 NA
ATOM     24  H   UNL     1       2.953  12.411  17.896  0.00  0.00    +0.000 HD
ATOM     25  H   UNL     1       2.236  13.743  17.094  0.00  0.00    +0.000 HD
ENDBRANCH  20  23
ENDBRANCH  14  20
ENDBRANCH   1  17
BRANCH   9  26
ATOM     26  C   UNL     1       5.589   4.445  16.038  0.00  0.00    +0.000 A 
ATOM     27  C   UNL     1       5.214   3.851  14.824  0.00  0.00    +0.000 A 
ATOM     28  C   UNL     1       6.005   4.000  13.683  0.00  0.00    +0.000 A 
ATOM     29  C   UNL     1       7.180   4.747  13.739  0.00  0.00    +0.000 A 
ATOM     30  C   UNL     1       7.560   5.351  14.934  0.00  0.00    +0.000 A 
ATOM     31  C   UNL     1       6.770   5.205  16.075  0.00  0.00    +0.000 A 
ENDBRANCH   9  26
TORSDOF 4
ENDMDL
MODEL 4
REMARK VINA RESULT:      -7.7      3.659      8.581
REMARK  Name = 
REMARK  4 active torsions:
REMARK  status: ('A' for Active; 'I' for Inactive)
REMARK    1  A    between atoms: N_1  and  S_2
REMARK    2  A    between atoms: S_2  and  C_5
REMARK    3  A    between atoms: C_8  and  N_9
REMARK    4  A    between atoms: C_17  and  C_18
REMARK                            x       y       z     vdW  Elec       q    Type
REMARK                         _______ _______ _______ _____ _____    ______ ____
ROOT
ATOM      1  N   UNL     1       1.919   6.541  19.680  0.00  0.00    +0.000 N 
ATOM      2  C   UNL     1       1.459   7.747  20.210  0.00  0.00    +0.000 A 
ATOM      3  N   UNL     1       0.745   7.691  21.345  0.00  0.00    +0.000 NA
ATOM      4  C   UNL     1       0.325   8.870  21.859  0.00  0.00    +0.000 A 
ATOM      5  C   UNL     1       0.593  10.089  21.279  0.00  0.00    +0.000 A 
ATOM      6  C   UNL     1       1.313  10.056  20.107  0.00  0.00    +0.000 A 
ATOM      7  N   UNL     1       1.753   8.898  19.577  0.00  0.00    +0.000 NA
ATOM      8  C   UNL     1       1.700  11.310  19.374  0.00  0.00    +0.000 C 
ATOM      9  C   UNL     1       0.820  12.508  19.761  0.00  0.00    +0.000 C 
ATOM     10  C   UNL     1       0.719  12.630  21.286  0.00  0.00    +0.000 C 
ATOM     11  C   UNL     1       0.163  11.357  21.882  0.00  0.00    +0.000 C 
ATOM     12  O   UNL     1      -0.564  11.351  22.870  0.00  0.00    +0.000 OA
ATOM     13  H   UNL     1       1.743   5.815  20.364  0.00  0.00    +0.000 HD
ENDROOT
BRANCH   1  17
ATOM     14  C   UNL     1       5.558   6.024  17.633  0.00  0.00    +0.000 A 
ATOM     15  C   UNL     1       4.582   6.853  17.080  0.00  0.00    +0.000 A 
ATOM     16  C   UNL     1       3.375   7.029  17.760  0.00  0.00    +0.000 A 
ATOM     17  C   UNL     1       3.125   6.372  18.973  0.00  0.00    +0.000 A 
ATOM     18  C   UNL     1       4.135   5.576  19.529  0.00  0.00    +0.000 A 
ATOM     19  C   UNL     1       5.346   5.387  18.856  0.00  0.00    +0.000 A 
BRANCH  14  20
ATOM     20  S   UNL     1       7.092   5.815  16.779  0.00  0.00    +0.000 S 
ATOM     21  O   UNL     1       7.710   4.588  17.223  0.00  0.00    +0.000 OA
ATOM     22  O   UNL     1       7.792   7.072  16.726  0.00  0.00    +0.000 OA
BRANCH  20  23
ATOM     23  N   UNL     1       6.566   5.535  15.206  0.00  0.00    +0.000 NA
ATOM     24  H   UNL     1       6.899   4.623  14.892  0.00  0.00    +0.000 HD
ATOM     25  H   UNL     1       6.832   6.309  14.602  0.00  0.00    +0.000 HD
ENDBRANCH  20  23
ENDBRANCH  14  20
ENDBRANCH   1  17
BRANCH   9  26
ATOM     26  C   UNL     1       1.312  13.797  19.129  0.00  0.00    +0.000 A 
ATOM     27  C   UNL     1       2.542  13.818  18.455  0.00  0.00    +0.000 A 
ATOM     28  C   UNL     1       3.020  14.997  17.879  0.00  0.00    +0.000 A 
ATOM     29  C   UNL     1       2.273  16.170  17.967  0.00  0.00    +0.000 A 
ATOM     30  C   UNL     1       1.046  16.163  18.624  0.00  0.00    +0.000 A 
ATOM     31  C   UNL     1       0.566  14.985  19.197  0.00  0.00    +0.000 A 
ENDBRANCH   9  26
TORSDOF 4
ENDMDL
MODEL 5
REMARK VINA RESULT:      -7.6      3.638      8.604
REMARK  Name = 
REMARK  4 active torsions:
REMARK  status: ('A' for Active; 'I' for Inactive)
REMARK    1  A    between atoms: N_1  and  S_2
REMARK    2  A    between atoms: S_2  and  C_5
REMARK    3  A    between atoms: C_8  and  N_9
REMARK    4  A    between atoms: C_17  and  C_18
REMARK                            x       y       z     vdW  Elec       q    Type
REMARK                         _______ _______ _______ _____ _____    ______ ____
ROOT
ATOM      1  N   UNL     1       1.875   6.473  19.724  0.00  0.00    +0.000 N 
ATOM      2  C   UNL     1       1.364   7.664  20.243  0.00  0.00    +0.000 A 
ATOM      3  N   UNL     1       0.601   7.581  21.343  0.00  0.00    +0.000 NA
ATOM      4  C   UNL     1       0.131   8.745  21.848  0.00  0.00    +0.000 A 
ATOM      5  C   UNL     1       0.397   9.976  21.291  0.00  0.00    +0.000 A 
ATOM      6  C   UNL     1       1.170   9.970  20.152  0.00  0.00    +0.000 A 
ATOM      7  N   UNL     1       1.660   8.827  19.633  0.00  0.00    +0.000 NA
ATOM      8  C   UNL     1       1.561  11.238  19.448  0.00  0.00    +0.000 C 
ATOM      9  C   UNL     1       0.637  12.413  19.805  0.00  0.00    +0.000 C 
ATOM     10  C   UNL     1       0.465  12.519  21.324  0.00  0.00    +0.000 C 
ATOM     11  C   UNL     1      -0.089  11.228  21.884  0.00  0.00    +0.000 C 
ATOM     12  O   UNL     1      -0.859  11.196  22.838  0.00  0.00    +0.000 OA
ATOM     13  H   UNL     1       1.685   5.737  20.393  0.00  0.00    +0.000 HD
ENDROOT
BRANCH   1  17
ATOM     14  C   UNL     1       5.546   6.084  17.707  0.00  0.00    +0.000 A 
ATOM     15  C   UNL     1       5.355   5.393  18.903  0.00  0.00    +0.000 A 
ATOM     16  C   UNL     1       4.136   5.518  19.572  0.00  0.00    +0.000 A 
ATOM     17  C   UNL     1       3.115   6.338  19.071  0.00  0.00    +0.000 A 
ATOM     18  C   UNL     1       3.315   6.990  17.847  0.00  0.00    +0.000 A 
ATOM     19  C   UNL     1       4.533   6.879  17.170  0.00  0.00    +0.000 A 
BRANCH  14  20
ATOM     20  S   UNL     1       7.084   5.913  16.852  0.00  0.00    +0.000 S 
ATOM     21  O   UNL     1       7.727   4.695  17.284  0.00  0.00    +0.000 OA
ATOM     22  O   UNL     1       7.759   7.184  16.810  0.00  0.00    +0.000 OA
BRANCH  20  23
ATOM     23  N   UNL     1       6.564   5.637  15.276  0.00  0.00    +0.000 NA
ATOM     24  H   UNL     1       5.964   4.811  15.254  0.00  0.00    +0.000 HD
ATOM     25  H   UNL     1       7.360   5.593  14.644  0.00  0.00    +0.000 HD
ENDBRANCH  20  23
ENDBRANCH  14  20
ENDBRANCH   1  17
BRANCH   9  26
ATOM     26  C   UNL     1       1.128  13.718  19.206  0.00  0.00    +0.000 A 
ATOM     27  C   UNL     1       0.305  14.854  19.237  0.00  0.00    +0.000 A 
ATOM     28  C   UNL     1       0.732  16.060  18.677  0.00  0.00    +0.000 A 
ATOM     29  C   UNL     1       1.988  16.148  18.081  0.00  0.00    +0.000 A 
ATOM     30  C   UNL     1       2.820  15.033  18.052  0.00  0.00    +0.000 A 
ATOM     31  C   UNL     1       2.396  13.827  18.612  0.00  0.00    +0.000 A 
ENDBRANCH   9  26
TORSDOF 4
ENDMDL
MODEL 6
REMARK VINA RESULT:      -7.6      3.628      8.583
REMARK  Name = 
REMARK  4 active torsions:
REMARK  status: ('A' for Active; 'I' for Inactive)
REMARK    1  A    between atoms: N_1  and  S_2
REMARK    2  A    between atoms: S_2  and  C_5
REMARK    3  A    between atoms: C_8  and  N_9
REMARK    4  A    between atoms: C_17  and  C_18
REMARK                            x       y       z     vdW  Elec       q    Type
REMARK                         _______ _______ _______ _____ _____    ______ ____
ROOT
ATOM      1  N   UNL     1       1.894   6.409  19.802  0.00  0.00    +0.000 N 
ATOM      2  C   UNL     1       1.375   7.583  20.351  0.00  0.00    +0.000 A 
ATOM      3  N   UNL     1       0.683   7.475  21.496  0.00  0.00    +0.000 NA
ATOM      4  C   UNL     1       0.205   8.623  22.029  0.00  0.00    +0.000 A 
ATOM      5  C   UNL     1       0.394   9.861  21.458  0.00  0.00    +0.000 A 
ATOM      6  C   UNL     1       1.096   9.881  20.274  0.00  0.00    +0.000 A 
ATOM      7  N   UNL     1       1.593   8.755  19.726  0.00  0.00    +0.000 NA
ATOM      8  C   UNL     1       1.401  11.161  19.549  0.00  0.00    +0.000 C 
ATOM      9  C   UNL     1       0.460  12.303  19.963  0.00  0.00    +0.000 C 
ATOM     10  C   UNL     1       0.377  12.405  21.490  0.00  0.00    +0.000 C 
ATOM     11  C   UNL     1      -0.097  11.097  22.080  0.00  0.00    +0.000 C 
ATOM     12  O   UNL     1      -0.806  11.039  23.080  0.00  0.00    +0.000 OA
ATOM     13  H   UNL     1       1.771   5.668  20.481  0.00  0.00    +0.000 HD
ENDROOT
BRANCH   1  17
ATOM     14  C   UNL     1       5.448   6.143  17.565  0.00  0.00    +0.000 A 
ATOM     15  C   UNL     1       5.357   5.456  18.774  0.00  0.00    +0.000 A 
ATOM     16  C   UNL     1       4.177   5.540  19.517  0.00  0.00    +0.000 A 
ATOM     17  C   UNL     1       3.096   6.317  19.075  0.00  0.00    +0.000 A 
ATOM     18  C   UNL     1       3.196   6.965  17.837  0.00  0.00    +0.000 A 
ATOM     19  C   UNL     1       4.374   6.895  17.086  0.00  0.00    +0.000 A 
BRANCH  14  20
ATOM     20  S   UNL     1       6.936   6.024  16.618  0.00  0.00    +0.000 S 
ATOM     21  O   UNL     1       7.779   7.153  16.929  0.00  0.00    +0.000 OA
ATOM     22  O   UNL     1       6.621   5.626  15.270  0.00  0.00    +0.000 OA
BRANCH  20  23
ATOM     23  N   UNL     1       7.670   4.681  17.315  0.00  0.00    +0.000 NA
ATOM     24  H   UNL     1       7.099   3.852  17.144  0.00  0.00    +0.000 HD
ATOM     25  H   UNL     1       7.869   4.857  18.297  0.00  0.00    +0.000 HD
ENDBRANCH  20  23
ENDBRANCH  14  20
ENDBRANCH   1  17
BRANCH   9  26
ATOM     26  C   UNL     1       0.868  13.624  19.336  0.00  0.00    +0.000 A 
ATOM     27  C   UNL     1       2.170  13.789  18.842  0.00  0.00    +0.000 A 
ATOM     28  C   UNL     1       2.570  15.002  18.276  0.00  0.00    +0.000 A 
ATOM     29  C   UNL     1       1.673  16.064  18.194  0.00  0.00    +0.000 A 
ATOM     30  C   UNL     1       0.374  15.913  18.670  0.00  0.00    +0.000 A 
ATOM     31  C   UNL     1      -0.028  14.701  19.234  0.00  0.00    +0.000 A 
ENDBRANCH   9  26
TORSDOF 4
ENDMDL
MODEL 7
REMARK VINA RESULT:      -7.5      7.139     10.632
REMARK  Name = 
REMARK  4 active torsions:
REMARK  status: ('A' for Active; 'I' for Inactive)
REMARK    1  A    between atoms: N_1  and  S_2
REMARK    2  A    between atoms: S_2  and  C_5
REMARK    3  A    between atoms: C_8  and  N_9
REMARK    4  A    between atoms: C_17  and  C_18
REMARK                            x       y       z     vdW  Elec       q    Type
REMARK                         _______ _______ _______ _____ _____    ______ ____
ROOT
ATOM      1  N   UNL     1       6.108  16.021  18.847  0.00  0.00    +0.000 N 
ATOM      2  C   UNL     1       4.724  15.846  18.889  0.00  0.00    +0.000 A 
ATOM      3  N   UNL     1       3.970  16.721  18.206  0.00  0.00    +0.000 NA
ATOM      4  C   UNL     1       2.631  16.525  18.236  0.00  0.00    +0.000 A 
ATOM      5  C   UNL     1       2.031  15.495  18.923  0.00  0.00    +0.000 A 
ATOM      6  C   UNL     1       2.875  14.655  19.615  0.00  0.00    +0.000 A 
ATOM      7  N   UNL     1       4.212  14.820  19.593  0.00  0.00    +0.000 NA
ATOM      8  C   UNL     1       2.365  13.473  20.389  0.00  0.00    +0.000 C 
ATOM      9  C   UNL     1       0.873  13.603  20.736  0.00  0.00    +0.000 C 
ATOM     10  C   UNL     1       0.064  13.985  19.492  0.00  0.00    +0.000 C 
ATOM     11  C   UNL     1       0.578  15.279  18.904  0.00  0.00    +0.000 C 
ATOM     12  O   UNL     1      -0.156  16.100  18.365  0.00  0.00    +0.000 OA
ATOM     13  H   UNL     1       6.310  16.730  18.152  0.00  0.00    +0.000 HD
ENDROOT
BRANCH   1  17
ATOM     14  C   UNL     1       8.911  12.885  18.922  0.00  0.00    +0.000 A 
ATOM     15  C   UNL     1       8.702  13.633  20.080  0.00  0.00    +0.000 A 
ATOM     16  C   UNL     1       7.770  14.672  20.058  0.00  0.00    +0.000 A 
ATOM     17  C   UNL     1       7.059  14.984  18.890  0.00  0.00    +0.000 A 
ATOM     18  C   UNL     1       7.257  14.193  17.751  0.00  0.00    +0.000 A 
ATOM     19  C   UNL     1       8.192  13.154  17.757  0.00  0.00    +0.000 A 
BRANCH  14  20
ATOM     20  S   UNL     1      10.081  11.560  18.955  0.00  0.00    +0.000 S 
ATOM     21  O   UNL     1       9.367  10.306  18.926  0.00  0.00    +0.000 OA
ATOM     22  O   UNL     1      11.117  11.852  19.911  0.00  0.00    +0.000 OA
BRANCH  20  23
ATOM     23  N   UNL     1      10.813  11.721  17.448  0.00  0.00    +0.000 NA
ATOM     24  H   UNL     1      11.274  12.629  17.388  0.00  0.00    +0.000 HD
ATOM     25  H   UNL     1      10.138  11.543  16.708  0.00  0.00    +0.000 HD
ENDBRANCH  20  23
ENDBRANCH  14  20
ENDBRANCH   1  17
BRANCH   9  26
ATOM     26  C   UNL     1       0.335  12.342  21.388  0.00  0.00    +0.000 A 
ATOM     27  C   UNL     1       0.835  11.090  21.003  0.00  0.00    +0.000 A 
ATOM     28  C   UNL     1       0.342   9.917  21.579  0.00  0.00    +0.000 A 
ATOM     29  C   UNL     1      -0.656   9.981  22.550  0.00  0.00    +0.000 A 
ATOM     30  C   UNL     1      -1.155  11.217  22.950  0.00  0.00    +0.000 A 
ATOM     31  C   UNL     1      -0.662  12.390  22.376  0.00  0.00    +0.000 A 
ENDBRANCH   9  26
TORSDOF 4
ENDMDL
MODEL 8
REMARK VINA RESULT:      -7.5      7.192     10.671
REMARK  Name = 
REMARK  4 active torsions:
REMARK  status: ('A' for Active; 'I' for Inactive)
REMARK    1  A    between atoms: N_1  and  S_2
REMARK    2  A    between atoms: S_2  and  C_5
REMARK    3  A    between atoms: C_8  and  N_9
REMARK    4  A    between atoms: C_17  and  C_18
REMARK                            x       y       z     vdW  Elec       q    Type
REMARK                         _______ _______ _______ _____ _____    ______ ____
ROOT
ATOM      1  N   UNL     1       6.053  16.076  18.736  0.00  0.00    +0.000 N 
ATOM      2  C   UNL     1       4.668  15.918  18.812  0.00  0.00    +0.000 A 
ATOM      3  N   UNL     1       3.908  16.809  18.158  0.00  0.00    +0.000 NA
ATOM      4  C   UNL     1       2.569  16.631  18.221  0.00  0.00    +0.000 A 
ATOM      5  C   UNL     1       1.973  15.601  18.912  0.00  0.00    +0.000 A 
ATOM      6  C   UNL     1       2.823  14.743  19.573  0.00  0.00    +0.000 A 
ATOM      7  N   UNL     1       4.161  14.891  19.518  0.00  0.00    +0.000 NA
ATOM      8  C   UNL     1       2.318  13.559  20.348  0.00  0.00    +0.000 C 
ATOM      9  C   UNL     1       0.837  13.704  20.734  0.00  0.00    +0.000 C 
ATOM     10  C   UNL     1       0.001  14.110  19.516  0.00  0.00    +0.000 C 
ATOM     11  C   UNL     1       0.517  15.403  18.929  0.00  0.00    +0.000 C 
ATOM     12  O   UNL     1      -0.220  16.240  18.418  0.00  0.00    +0.000 OA
ATOM     13  H   UNL     1       6.246  16.790  18.044  0.00  0.00    +0.000 HD
ENDROOT
BRANCH   1  17
ATOM     14  C   UNL     1       8.899  12.978  18.806  0.00  0.00    +0.000 A 
ATOM     15  C   UNL     1       8.113  13.149  17.668  0.00  0.00    +0.000 A 
ATOM     16  C   UNL     1       7.171  14.179  17.641  0.00  0.00    +0.000 A 
ATOM     17  C   UNL     1       6.991  15.026  18.744  0.00  0.00    +0.000 A 
ATOM     18  C   UNL     1       7.820  14.860  19.861  0.00  0.00    +0.000 A 
ATOM     19  C   UNL     1       8.764  13.830  19.904  0.00  0.00    +0.000 A 
BRANCH  14  20
ATOM     20  S   UNL     1      10.103  11.684  18.834  0.00  0.00    +0.000 S 
ATOM     21  O   UNL     1      11.112  11.963  17.841  0.00  0.00    +0.000 OA
ATOM     22  O   UNL     1       9.442  10.410  18.945  0.00  0.00    +0.000 OA
BRANCH  20  23
ATOM     23  N   UNL     1      10.832  11.935  20.329  0.00  0.00    +0.000 NA
ATOM     24  H   UNL     1      10.243  11.545  21.066  0.00  0.00    +0.000 HD
ATOM     25  H   UNL     1      11.057  12.920  20.451  0.00  0.00    +0.000 HD
ENDBRANCH  20  23
ENDBRANCH  14  20
ENDBRANCH   1  17
BRANCH   9  26
ATOM     26  C   UNL     1       0.300  12.443  21.386  0.00  0.00    +0.000 A 
ATOM     27  C   UNL     1      -0.722  12.533  22.343  0.00  0.00    +0.000 A 
ATOM     28  C   UNL     1      -1.219  11.387  22.966  0.00  0.00    +0.000 A 
ATOM     29  C   UNL     1      -0.704  10.134  22.638  0.00  0.00    +0.000 A 
ATOM     30  C   UNL     1       0.302  10.027  21.683  0.00  0.00    +0.000 A 
ATOM     31  C   UNL     1       0.799  11.172  21.058  0.00  0.00    +0.000 A 
ENDBRANCH   9  26
TORSDOF 4
ENDMDL
MODEL 9
REMARK VINA RESULT:      -7.4      7.208     10.608
REMARK  Name = 
REMARK  4 active torsions:
REMARK  status: ('A' for Active; 'I' for Inactive)
REMARK    1  A    between atoms: N_1  and  S_2
REMARK    2  A    between atoms: S_2  and  C_5
REMARK    3  A    between atoms: C_8  and  N_9
REMARK    4  A    between atoms: C_17  and  C_18
REMARK                            x       y       z     vdW  Elec       q    Type
REMARK                         _______ _______ _______ _____ _____    ______ ____
ROOT
ATOM      1  N   UNL     1       5.996  16.152  18.891  0.00  0.00    +0.000 N 
ATOM      2  C   UNL     1       4.618  15.934  18.924  0.00  0.00    +0.000 A 
ATOM      3  N   UNL     1       3.841  16.789  18.242  0.00  0.00    +0.000 NA
ATOM      4  C   UNL     1       2.509  16.553  18.263  0.00  0.00    +0.000 A 
ATOM      5  C   UNL     1       1.937  15.499  18.940  0.00  0.00    +0.000 A 
ATOM      6  C   UNL     1       2.803  14.682  19.631  0.00  0.00    +0.000 A 
ATOM      7  N   UNL     1       4.134  14.888  19.619  0.00  0.00    +0.000 NA
ATOM      8  C   UNL     1       2.325  13.480  20.396  0.00  0.00    +0.000 C 
ATOM      9  C   UNL     1       0.828  13.561  20.734  0.00  0.00    +0.000 C 
ATOM     10  C   UNL     1       0.015  13.926  19.488  0.00  0.00    +0.000 C 
ATOM     11  C   UNL     1       0.492  15.239  18.911  0.00  0.00    +0.000 C 
ATOM     12  O   UNL     1      -0.264  16.041  18.374  0.00  0.00    +0.000 OA
ATOM     13  H   UNL     1       6.180  16.872  18.202  0.00  0.00    +0.000 HD
ENDROOT
BRANCH   1  17
ATOM     14  C   UNL     1       8.896  13.105  18.962  0.00  0.00    +0.000 A 
ATOM     15  C   UNL     1       8.644  13.826  20.128  0.00  0.00    +0.000 A 
ATOM     16  C   UNL     1       7.679  14.835  20.108  0.00  0.00    +0.000 A 
ATOM     17  C   UNL     1       6.979  15.145  18.933  0.00  0.00    +0.000 A 
ATOM     18  C   UNL     1       7.221  14.380  17.785  0.00  0.00    +0.000 A 
ATOM     19  C   UNL     1       8.188  13.371  17.789  0.00  0.00    +0.000 A 
BRANCH  14  20
ATOM     20  S   UNL     1      10.106  11.816  18.993  0.00  0.00    +0.000 S 
ATOM     21  O   UNL     1      11.201  12.223  19.840  0.00  0.00    +0.000 OA
ATOM     22  O   UNL     1      10.293  11.296  17.663  0.00  0.00    +0.000 OA
BRANCH  20  23
ATOM     23  N   UNL     1       9.288  10.607  19.828  0.00  0.00    +0.000 NA
ATOM     24  H   UNL     1       9.136  10.902  20.793  0.00  0.00    +0.000 HD
ATOM     25  H   UNL     1       9.777   9.720  19.734  0.00  0.00    +0.000 HD
ENDBRANCH  20  23
ENDBRANCH  14  20
ENDBRANCH   1  17
BRANCH   9  26
ATOM     26  C   UNL     1       0.326  12.280  21.375  0.00  0.00    +0.000 A 
ATOM     27  C   UNL     1      -0.678  12.336  22.352  0.00  0.00    +0.000 A 
ATOM     28  C   UNL     1      -1.143  11.170  22.965  0.00  0.00    +0.000 A 
ATOM     29  C   UNL     1      -0.612   9.932  22.606  0.00  0.00    +0.000 A 
ATOM     30  C   UNL     1       0.377   9.860  21.630  0.00  0.00    +0.000 A 
ATOM     31  C   UNL     1       0.842  11.024  21.016  0.00  0.00    +0.000 A 
ENDBRANCH   9  26
TORSDOF 4
ENDMDL
