MODEL 1
REMARK VINA RESULT:      -7.2      0.000      0.000
REMARK  Name = 
REMARK  10 active torsions:
REMARK  status: ('A' for Active; 'I' for Inactive)
REMARK    1  A    between atoms: C_1  and  C_2
REMARK    2  A    between atoms: C_2  and  C_3
REMARK    3  A    between atoms: C_3  and  C_4
REMARK    4  A    between atoms: C_3  and  O_14
REMARK    5  A    between atoms: C_4  and  O_5
REMARK    6  A    between atoms: O_5  and  C_6
REMARK    7  A    between atoms: C_10  and  C_11
REMARK    8  A    between atoms: O_14  and  C_15
REMARK    9  A    between atoms: N_17  and  C_18
REMARK   10  A    between atoms: C_18  and  C_19
REMARK                            x       y       z     vdW  Elec       q    Type
REMARK                         _______ _______ _______ _____ _____    ______ ____
ROOT
ATOM      1  C   UNL     1       4.846   5.667  18.080  0.00  0.00    +0.000 C 
ENDROOT
BRANCH   1   3
ATOM      2  C   UNL     1       6.925   6.939  17.394  0.00  0.00    +0.000 C 
ATOM      3  C   UNL     1       5.404   6.891  17.349  0.00  0.00    +0.000 C 
ENDBRANCH   1   3
BRANCH   1   4
ATOM      4  C   UNL     1       3.821   6.067  19.156  0.00  0.00    +0.000 C 
BRANCH   4   5
ATOM      5  O   UNL     1       2.553   6.397  18.578  0.00  0.00    +0.000 OA
BRANCH   5   6
ATOM      6  C   UNL     1       2.062   7.646  18.855  0.00  0.00    +0.000 A 
ATOM      7  C   UNL     1       1.840   8.657  17.916  0.00  0.00    +0.000 A 
ATOM      8  C   UNL     1       1.322   9.892  18.315  0.00  0.00    +0.000 A 
ATOM      9  C   UNL     1       1.024  10.129  19.653  0.00  0.00    +0.000 A 
ATOM     10  C   UNL     1       1.252   9.123  20.609  0.00  0.00    +0.000 A 
ATOM     11  C   UNL     1       1.771   7.889  20.202  0.00  0.00    +0.000 A 
BRANCH  10  12
ATOM     12  C   UNL     1       0.948   9.373  21.983  0.00  0.00    +0.000 C 
ATOM     13  N   UNL     1       0.708   9.569  23.102  0.00  0.00    +0.000 NA
ENDBRANCH  10  12
ENDBRANCH   5   6
ENDBRANCH   4   5
ENDBRANCH   1   4
BRANCH   1  14
ATOM     14  O   UNL     1       4.154   4.818  17.129  0.00  0.00    +0.000 OA
BRANCH  14  15
ATOM     15  C   UNL     1       4.830   3.704  16.752  0.00  0.00    +0.000 C 
ATOM     16  O   UNL     1       5.772   3.673  15.971  0.00  0.00    +0.000 OA
ATOM     17  N   UNL     1       4.449   2.589  17.434  0.00  0.00    +0.000 N 
ATOM     18  H   UNL     1       5.098   1.828  17.300  0.00  0.00    +0.000 HD
BRANCH  17  19
ATOM     19  C   UNL     1       3.070   2.209  17.616  0.00  0.00    +0.000 C 
BRANCH  19  20
ATOM     20  C   UNL     1       2.534   2.633  18.953  0.00  0.00    +0.000 A 
ATOM     21  C   UNL     1       3.274   2.380  20.115  0.00  0.00    +0.000 A 
ATOM     22  C   UNL     1       2.780   2.753  21.365  0.00  0.00    +0.000 A 
ATOM     23  C   UNL     1       1.539   3.379  21.465  0.00  0.00    +0.000 A 
ATOM     24  C   UNL     1       0.792   3.636  20.317  0.00  0.00    +0.000 A 
ATOM     25  C   UNL     1       1.286   3.265  19.065  0.00  0.00    +0.000 A 
ENDBRANCH  19  20
ENDBRANCH  17  19
ENDBRANCH  14  15
ENDBRANCH   1  14
TORSDOF 9
ENDMDL
MODEL 2
REMARK VINA RESULT:      -7.1      1.760      4.285
REMARK  Name = 
REMARK  10 active torsions:
REMARK  status: ('A' for Active; 'I' for Inactive)
REMARK    1  A    between atoms: C_1  and  C_2
REMARK    2  A    between atoms: C_2  and  C_3
REMARK    3  A    between atoms: C_3  and  C_4
REMARK    4  A    between atoms: C_3  and  O_14
REMARK    5  A    between atoms: C_4  and  O_5
REMARK    6  A    between atoms: O_5  and  C_6
REMARK    7  A    between atoms: C_10  and  C_11
REMARK    8  A    between atoms: O_14  and  C_15
REMARK    9  A    between atoms: N_17  and  C_18
REMARK   10  A    between atoms: C_18  and  C_19
REMARK                            x       y       z     vdW  Elec       q    Type
REMARK                         _______ _______ _______ _____ _____    ______ ____
ROOT
ATOM      1  C   UNL     1       2.438   3.422  19.267  0.00  0.00    +0.000 C 
ENDROOT
BRANCH   1   3
ATOM      2  C   UNL     1       1.339   2.791  21.459  0.00  0.00    +0.000 C 
ATOM      3  C   UNL     1       1.223   2.779  19.941  0.00  0.00    +0.000 C 
ENDBRANCH   1   3
BRANCH   1   4
ATOM      4  C   UNL     1       2.107   4.822  18.719  0.00  0.00    +0.000 C 
BRANCH   4   5
ATOM      5  O   UNL     1       2.654   5.854  19.547  0.00  0.00    +0.000 OA
BRANCH   5   6
ATOM      6  C   UNL     1       2.218   7.129  19.301  0.00  0.00    +0.000 A 
ATOM      7  C   UNL     1       2.237   7.767  18.057  0.00  0.00    +0.000 A 
ATOM      8  C   UNL     1       1.753   9.071  17.922  0.00  0.00    +0.000 A 
ATOM      9  C   UNL     1       1.247   9.749  19.026  0.00  0.00    +0.000 A 
ATOM     10  C   UNL     1       1.231   9.122  20.285  0.00  0.00    +0.000 A 
ATOM     11  C   UNL     1       1.718   7.816  20.412  0.00  0.00    +0.000 A 
BRANCH  10  12
ATOM     12  C   UNL     1       0.714   9.825  21.417  0.00  0.00    +0.000 C 
ATOM     13  N   UNL     1       0.295  10.404  22.332  0.00  0.00    +0.000 NA
ENDBRANCH  10  12
ENDBRANCH   5   6
ENDBRANCH   4   5
ENDBRANCH   1   4
BRANCH   1  14
ATOM     14  O   UNL     1       3.494   3.588  20.248  0.00  0.00    +0.000 OA
BRANCH  14  15
ATOM     15  C   UNL     1       4.576   2.790  20.071  0.00  0.00    +0.000 C 
ATOM     16  O   UNL     1       4.829   1.781  20.717  0.00  0.00    +0.000 OA
ATOM     17  N   UNL     1       5.327   3.136  18.989  0.00  0.00    +0.000 N 
ATOM     18  H   UNL     1       5.991   2.415  18.750  0.00  0.00    +0.000 HD
BRANCH  17  19
ATOM     19  C   UNL     1       5.749   4.488  18.724  0.00  0.00    +0.000 C 
BRANCH  19  20
ATOM     20  C   UNL     1       5.669   4.833  17.265  0.00  0.00    +0.000 A 
ATOM     21  C   UNL     1       6.004   3.874  16.300  0.00  0.00    +0.000 A 
ATOM     22  C   UNL     1       5.951   4.186  14.942  0.00  0.00    +0.000 A 
ATOM     23  C   UNL     1       5.566   5.463  14.535  0.00  0.00    +0.000 A 
ATOM     24  C   UNL     1       5.231   6.426  15.484  0.00  0.00    +0.000 A 
ATOM     25  C   UNL     1       5.282   6.115  16.844  0.00  0.00    +0.000 A 
ENDBRANCH  19  20
ENDBRANCH  17  19
ENDBRANCH  14  15
ENDBRANCH   1  14
TORSDOF 9
ENDMDL
MODEL 3
REMARK VINA RESULT:      -7.1      0.662      1.204
REMARK  Name = 
REMARK  10 active torsions:
REMARK  status: ('A' for Active; 'I' for Inactive)
REMARK    1  A    between atoms: C_1  and  C_2
REMARK    2  A    between atoms: C_2  and  C_3
REMARK    3  A    between atoms: C_3  and  C_4
REMARK    4  A    between atoms: C_3  and  O_14
REMARK    5  A    between atoms: C_4  and  O_5
REMARK    6  A    between atoms: O_5  and  C_6
REMARK    7  A    between atoms: C_10  and  C_11
REMARK    8  A    between atoms: O_14  and  C_15
REMARK    9  A    between atoms: N_17  and  C_18
REMARK   10  A    between atoms: C_18  and  C_19
REMARK                            x       y       z     vdW  Elec       q    Type
REMARK                         _______ _______ _______ _____ _____    ______ ____
ROOT
ATOM      1  C   UNL     1       5.458   5.306  18.337  0.00  0.00    +0.000 C 
ENDROOT
BRANCH   1   3
ATOM      2  C   UNL     1       7.787   6.100  18.934  0.00  0.00    +0.000 C 
ATOM      3  C   UNL     1       6.617   6.237  17.970  0.00  0.00    +0.000 C 
ENDBRANCH   1   3
BRANCH   1   4
ATOM      4  C   UNL     1       4.461   5.988  19.290  0.00  0.00    +0.000 C 
BRANCH   4   5
ATOM      5  O   UNL     1       3.151   6.058  18.718  0.00  0.00    +0.000 OA
BRANCH   5   6
ATOM      6  C   UNL     1       2.496   7.257  18.836  0.00  0.00    +0.000 A 
ATOM      7  C   UNL     1       2.305   8.181  17.805  0.00  0.00    +0.000 A 
ATOM      8  C   UNL     1       1.609   9.370  18.040  0.00  0.00    +0.000 A 
ATOM      9  C   UNL     1       1.100   9.647  19.304  0.00  0.00    +0.000 A 
ATOM     10  C   UNL     1       1.294   8.729  20.353  0.00  0.00    +0.000 A 
ATOM     11  C   UNL     1       1.993   7.541  20.110  0.00  0.00    +0.000 A 
BRANCH  10  12
ATOM     12  C   UNL     1       0.773   9.020  21.652  0.00  0.00    +0.000 C 
ATOM     13  N   UNL     1       0.346   9.248  22.707  0.00  0.00    +0.000 NA
ENDBRANCH  10  12
ENDBRANCH   5   6
ENDBRANCH   4   5
ENDBRANCH   1   4
BRANCH   1  14
ATOM     14  O   UNL     1       4.726   4.960  17.133  0.00  0.00    +0.000 OA
BRANCH  14  15
ATOM     15  C   UNL     1       5.009   3.737  16.618  0.00  0.00    +0.000 C 
ATOM     16  O   UNL     1       5.888   3.495  15.802  0.00  0.00    +0.000 OA
ATOM     17  N   UNL     1       4.294   2.733  17.196  0.00  0.00    +0.000 N 
ATOM     18  H   UNL     1       4.666   1.825  16.959  0.00  0.00    +0.000 HD
BRANCH  17  19
ATOM     19  C   UNL     1       2.867   2.793  17.392  0.00  0.00    +0.000 C 
BRANCH  19  20
ATOM     20  C   UNL     1       2.494   2.862  18.844  0.00  0.00    +0.000 A 
ATOM     21  C   UNL     1       1.221   3.311  19.219  0.00  0.00    +0.000 A 
ATOM     22  C   UNL     1       0.867   3.397  20.566  0.00  0.00    +0.000 A 
ATOM     23  C   UNL     1       1.785   3.038  21.551  0.00  0.00    +0.000 A 
ATOM     24  C   UNL     1       3.055   2.590  21.192  0.00  0.00    +0.000 A 
ATOM     25  C   UNL     1       3.410   2.502  19.845  0.00  0.00    +0.000 A 
ENDBRANCH  19  20
ENDBRANCH  17  19
ENDBRANCH  14  15
ENDBRANCH   1  14
TORSDOF 9
ENDMDL
MODEL 4
REMARK VINA RESULT:      -7.0      1.372      2.096
REMARK  Name = 
REMARK  10 active torsions:
REMARK  status: ('A' for Active; 'I' for Inactive)
REMARK    1  A    between atoms: C_1  and  C_2
REMARK    2  A    between atoms: C_2  and  C_3
REMARK    3  A    between atoms: C_3  and  C_4
REMARK    4  A    between atoms: C_3  and  O_14
REMARK    5  A    between atoms: C_4  and  O_5
REMARK    6  A    between atoms: O_5  and  C_6
REMARK    7  A    between atoms: C_10  and  C_11
REMARK    8  A    between atoms: O_14  and  C_15
REMARK    9  A    between atoms: N_17  and  C_18
REMARK   10  A    between atoms: C_18  and  C_19
REMARK                            x       y       z     vdW  Elec       q    Type
REMARK                         _______ _______ _______ _____ _____    ______ ____
ROOT
ATOM      1  C   UNL     1       5.247   6.186  17.410  0.00  0.00    +0.000 C 
ENDROOT
BRANCH   1   3
ATOM      2  C   UNL     1       7.584   6.123  18.382  0.00  0.00    +0.000 C 
ATOM      3  C   UNL     1       6.676   6.728  17.320  0.00  0.00    +0.000 C 
ENDBRANCH   1   3
BRANCH   1   4
ATOM      4  C   UNL     1       4.213   7.323  17.491  0.00  0.00    +0.000 C 
BRANCH   4   5
ATOM      5  O   UNL     1       2.921   6.832  17.866  0.00  0.00    +0.000 OA
BRANCH   5   6
ATOM      6  C   UNL     1       2.251   7.547  18.824  0.00  0.00    +0.000 A 
ATOM      7  C   UNL     1       2.063   7.147  20.150  0.00  0.00    +0.000 A 
ATOM      8  C   UNL     1       1.370   7.967  21.045  0.00  0.00    +0.000 A 
ATOM      9  C   UNL     1       0.860   9.191  20.625  0.00  0.00    +0.000 A 
ATOM     10  C   UNL     1       1.035   9.600  19.291  0.00  0.00    +0.000 A 
ATOM     11  C   UNL     1       1.728   8.773  18.400  0.00  0.00    +0.000 A 
BRANCH  10  12
ATOM     12  C   UNL     1       0.505  10.857  18.863  0.00  0.00    +0.000 C 
ATOM     13  N   UNL     1       0.076  11.881  18.523  0.00  0.00    +0.000 NA
ENDBRANCH  10  12
ENDBRANCH   5   6
ENDBRANCH   4   5
ENDBRANCH   1   4
BRANCH   1  14
ATOM     14  O   UNL     1       4.950   5.426  16.211  0.00  0.00    +0.000 OA
BRANCH  14  15
ATOM     15  C   UNL     1       5.331   4.125  16.243  0.00  0.00    +0.000 C 
ATOM     16  O   UNL     1       6.299   3.653  15.661  0.00  0.00    +0.000 OA
ATOM     17  N   UNL     1       4.601   3.372  17.111  0.00  0.00    +0.000 N 
ATOM     18  H   UNL     1       5.030   2.475  17.281  0.00  0.00    +0.000 HD
BRANCH  17  19
ATOM     19  C   UNL     1       3.160   3.394  17.152  0.00  0.00    +0.000 C 
BRANCH  19  20
ATOM     20  C   UNL     1       2.629   3.320  18.555  0.00  0.00    +0.000 A 
ATOM     21  C   UNL     1       1.317   3.727  18.829  0.00  0.00    +0.000 A 
ATOM     22  C   UNL     1       0.817   3.678  20.131  0.00  0.00    +0.000 A 
ATOM     23  C   UNL     1       1.627   3.227  21.172  0.00  0.00    +0.000 A 
ATOM     24  C   UNL     1       2.934   2.820  20.913  0.00  0.00    +0.000 A 
ATOM     25  C   UNL     1       3.435   2.865  19.610  0.00  0.00    +0.000 A 
ENDBRANCH  19  20
ENDBRANCH  17  19
ENDBRANCH  14  15
ENDBRANCH   1  14
TORSDOF 9
ENDMDL
MODEL 5
REMARK VINA RESULT:      -6.9      1.777      2.279
REMARK  Name = 
REMARK  10 active torsions:
REMARK  status: ('A' for Active; 'I' for Inactive)
REMARK    1  A    between atoms: C_1  and  C_2
REMARK    2  A    between atoms: C_2  and  C_3
REMARK    3  A    between atoms: C_3  and  C_4
REMARK    4  A    between atoms: C_3  and  O_14
REMARK    5  A    between atoms: C_4  and  O_5
REMARK    6  A    between atoms: O_5  and  C_6
REMARK    7  A    between atoms: C_10  and  C_11
REMARK    8  A    between atoms: O_14  and  C_15
REMARK    9  A    between atoms: N_17  and  C_18
REMARK   10  A    between atoms: C_18  and  C_19
REMARK                            x       y       z     vdW  Elec       q    Type
REMARK                         _______ _______ _______ _____ _____    ______ ____
ROOT
ATOM      1  C   UNL     1       4.920   6.095  17.469  0.00  0.00    +0.000 C 
ENDROOT
BRANCH   1   3
ATOM      2  C   UNL     1       5.605   5.589  15.084  0.00  0.00    +0.000 C 
ATOM      3  C   UNL     1       4.970   6.603  16.025  0.00  0.00    +0.000 C 
ENDBRANCH   1   3
BRANCH   1   4
ATOM      4  C   UNL     1       3.522   6.279  18.087  0.00  0.00    +0.000 C 
BRANCH   4   5
ATOM      5  O   UNL     1       2.973   7.564  17.771  0.00  0.00    +0.000 OA
BRANCH   5   6
ATOM      6  C   UNL     1       2.159   8.129  18.718  0.00  0.00    +0.000 A 
ATOM      7  C   UNL     1       1.981   7.655  20.021  0.00  0.00    +0.000 A 
ATOM      8  C   UNL     1       1.130   8.323  20.906  0.00  0.00    +0.000 A 
ATOM      9  C   UNL     1       0.451   9.467  20.499  0.00  0.00    +0.000 A 
ATOM     10  C   UNL     1       0.615   9.947  19.188  0.00  0.00    +0.000 A 
ATOM     11  C   UNL     1       1.467   9.273  18.306  0.00  0.00    +0.000 A 
BRANCH  10  12
ATOM     12  C   UNL     1      -0.089  11.121  18.773  0.00  0.00    +0.000 C 
ATOM     13  N   UNL     1      -0.665  12.073  18.444  0.00  0.00    +0.000 NA
ENDBRANCH  10  12
ENDBRANCH   5   6
ENDBRANCH   4   5
ENDBRANCH   1   4
BRANCH   1  14
ATOM     14  O   UNL     1       5.207   4.673  17.483  0.00  0.00    +0.000 OA
BRANCH  14  15
ATOM     15  C   UNL     1       6.074   4.270  18.444  0.00  0.00    +0.000 C 
ATOM     16  O   UNL     1       7.253   4.590  18.518  0.00  0.00    +0.000 OA
ATOM     17  N   UNL     1       5.480   3.552  19.437  0.00  0.00    +0.000 N 
ATOM     18  H   UNL     1       6.085   3.449  20.237  0.00  0.00    +0.000 HD
BRANCH  17  19
ATOM     19  C   UNL     1       4.582   2.453  19.185  0.00  0.00    +0.000 C 
BRANCH  19  20
ATOM     20  C   UNL     1       3.152   2.809  19.469  0.00  0.00    +0.000 A 
ATOM     21  C   UNL     1       2.844   3.681  20.522  0.00  0.00    +0.000 A 
ATOM     22  C   UNL     1       1.518   4.007  20.808  0.00  0.00    +0.000 A 
ATOM     23  C   UNL     1       0.487   3.461  20.046  0.00  0.00    +0.000 A 
ATOM     24  C   UNL     1       0.778   2.592  18.997  0.00  0.00    +0.000 A 
ATOM     25  C   UNL     1       2.105   2.266  18.708  0.00  0.00    +0.000 A 
ENDBRANCH  19  20
ENDBRANCH  17  19
ENDBRANCH  14  15
ENDBRANCH   1  14
TORSDOF 9
ENDMDL
MODEL 6
REMARK VINA RESULT:      -6.9      3.004      6.497
REMARK  Name = 
REMARK  10 active torsions:
REMARK  status: ('A' for Active; 'I' for Inactive)
REMARK    1  A    between atoms: C_1  and  C_2
REMARK    2  A    between atoms: C_2  and  C_3
REMARK    3  A    between atoms: C_3  and  C_4
REMARK    4  A    between atoms: C_3  and  O_14
REMARK    5  A    between atoms: C_4  and  O_5
REMARK    6  A    between atoms: O_5  and  C_6
REMARK    7  A    between atoms: C_10  and  C_11
REMARK    8  A    between atoms: O_14  and  C_15
REMARK    9  A    between atoms: N_17  and  C_18
REMARK   10  A    between atoms: C_18  and  C_19
REMARK                            x       y       z     vdW  Elec       q    Type
REMARK                         _______ _______ _______ _____ _____    ______ ____
ROOT
ATOM      1  C   UNL     1       6.768   6.109  17.302  0.00  0.00    +0.000 C 
ENDROOT
BRANCH   1   3
ATOM      2  C   UNL     1       7.970   8.284  17.785  0.00  0.00    +0.000 C 
ATOM      3  C   UNL     1       7.722   6.853  18.240  0.00  0.00    +0.000 C 
ENDBRANCH   1   3
BRANCH   1   4
ATOM      4  C   UNL     1       7.268   4.686  16.995  0.00  0.00    +0.000 C 
BRANCH   4   5
ATOM      5  O   UNL     1       6.379   3.996  16.110  0.00  0.00    +0.000 OA
BRANCH   5   6
ATOM      6  C   UNL     1       6.579   4.192  14.769  0.00  0.00    +0.000 A 
ATOM      7  C   UNL     1       7.667   4.862  14.201  0.00  0.00    +0.000 A 
ATOM      8  C   UNL     1       7.772   4.991  12.813  0.00  0.00    +0.000 A 
ATOM      9  C   UNL     1       6.794   4.455  11.982  0.00  0.00    +0.000 A 
ATOM     10  C   UNL     1       5.690   3.788  12.542  0.00  0.00    +0.000 A 
ATOM     11  C   UNL     1       5.591   3.663  13.932  0.00  0.00    +0.000 A 
BRANCH  10  12
ATOM     12  C   UNL     1       4.684   3.243  11.684  0.00  0.00    +0.000 C 
ATOM     13  N   UNL     1       3.875   2.795  10.983  0.00  0.00    +0.000 NA
ENDBRANCH  10  12
ENDBRANCH   5   6
ENDBRANCH   4   5
ENDBRANCH   1   4
BRANCH   1  14
ATOM     14  O   UNL     1       5.475   5.976  17.946  0.00  0.00    +0.000 OA
BRANCH  14  15
ATOM     15  C   UNL     1       4.435   6.528  17.271  0.00  0.00    +0.000 C 
ATOM     16  O   UNL     1       4.523   7.177  16.237  0.00  0.00    +0.000 OA
ATOM     17  N   UNL     1       3.221   6.185  17.782  0.00  0.00    +0.000 N 
ATOM     18  H   UNL     1       2.470   6.421  17.152  0.00  0.00    +0.000 HD
BRANCH  17  19
ATOM     19  C   UNL     1       2.907   6.263  19.187  0.00  0.00    +0.000 C 
BRANCH  19  20
ATOM     20  C   UNL     1       2.286   4.998  19.704  0.00  0.00    +0.000 A 
ATOM     21  C   UNL     1       2.422   4.652  21.054  0.00  0.00    +0.000 A 
ATOM     22  C   UNL     1       1.865   3.471  21.544  0.00  0.00    +0.000 A 
ATOM     23  C   UNL     1       1.171   2.620  20.685  0.00  0.00    +0.000 A 
ATOM     24  C   UNL     1       1.028   2.951  19.339  0.00  0.00    +0.000 A 
ATOM     25  C   UNL     1       1.584   4.135  18.848  0.00  0.00    +0.000 A 
ENDBRANCH  19  20
ENDBRANCH  17  19
ENDBRANCH  14  15
ENDBRANCH   1  14
TORSDOF 9
ENDMDL
MODEL 7
REMARK VINA RESULT:      -6.8      1.511      4.391
REMARK  Name = 
REMARK  10 active torsions:
REMARK  status: ('A' for Active; 'I' for Inactive)
REMARK    1  A    between atoms: C_1  and  C_2
REMARK    2  A    between atoms: C_2  and  C_3
REMARK    3  A    between atoms: C_3  and  C_4
REMARK    4  A    between atoms: C_3  and  O_14
REMARK    5  A    between atoms: C_4  and  O_5
REMARK    6  A    between atoms: O_5  and  C_6
REMARK    7  A    between atoms: C_10  and  C_11
REMARK    8  A    between atoms: O_14  and  C_15
REMARK    9  A    between atoms: N_17  and  C_18
REMARK   10  A    between atoms: C_18  and  C_19
REMARK                            x       y       z     vdW  Elec       q    Type
REMARK                         _______ _______ _______ _____ _____    ______ ____
ROOT
ATOM      1  C   UNL     1       1.976   3.923  19.350  0.00  0.00    +0.000 C 
ENDROOT
BRANCH   1   3
ATOM      2  C   UNL     1       1.482   2.694  21.508  0.00  0.00    +0.000 C 
ATOM      3  C   UNL     1       0.969   3.692  20.480  0.00  0.00    +0.000 C 
ENDBRANCH   1   3
BRANCH   1   4
ATOM      4  C   UNL     1       2.416   5.396  19.274  0.00  0.00    +0.000 C 
BRANCH   4   5
ATOM      5  O   UNL     1       1.967   6.138  20.413  0.00  0.00    +0.000 OA
BRANCH   5   6
ATOM      6  C   UNL     1       1.643   7.452  20.196  0.00  0.00    +0.000 A 
ATOM      7  C   UNL     1       1.865   8.156  19.009  0.00  0.00    +0.000 A 
ATOM      8  C   UNL     1       1.480   9.496  18.899  0.00  0.00    +0.000 A 
ATOM      9  C   UNL     1       0.872  10.142  19.969  0.00  0.00    +0.000 A 
ATOM     10  C   UNL     1       0.651   9.446  21.172  0.00  0.00    +0.000 A 
ATOM     11  C   UNL     1       1.040   8.106  21.276  0.00  0.00    +0.000 A 
BRANCH  10  12
ATOM     12  C   UNL     1       0.030  10.116  22.271  0.00  0.00    +0.000 C 
ATOM     13  N   UNL     1      -0.481  10.664  23.158  0.00  0.00    +0.000 NA
ENDBRANCH  10  12
ENDBRANCH   5   6
ENDBRANCH   4   5
ENDBRANCH   1   4
BRANCH   1  14
ATOM     14  O   UNL     1       3.167   3.136  19.607  0.00  0.00    +0.000 OA
BRANCH  14  15
ATOM     15  C   UNL     1       3.831   2.717  18.500  0.00  0.00    +0.000 C 
ATOM     16  O   UNL     1       3.540   1.738  17.825  0.00  0.00    +0.000 OA
ATOM     17  N   UNL     1       4.811   3.574  18.105  0.00  0.00    +0.000 N 
ATOM     18  H   UNL     1       5.142   3.361  17.176  0.00  0.00    +0.000 HD
BRANCH  17  19
ATOM     19  C   UNL     1       5.794   4.118  19.010  0.00  0.00    +0.000 C 
BRANCH  19  20
ATOM     20  C   UNL     1       6.375   5.409  18.509  0.00  0.00    +0.000 A 
ATOM     21  C   UNL     1       5.693   6.153  17.537  0.00  0.00    +0.000 A 
ATOM     22  C   UNL     1       6.230   7.345  17.051  0.00  0.00    +0.000 A 
ATOM     23  C   UNL     1       7.456   7.803  17.529  0.00  0.00    +0.000 A 
ATOM     24  C   UNL     1       8.145   7.073  18.496  0.00  0.00    +0.000 A 
ATOM     25  C   UNL     1       7.608   5.880  18.985  0.00  0.00    +0.000 A 
ENDBRANCH  19  20
ENDBRANCH  17  19
ENDBRANCH  14  15
ENDBRANCH   1  14
TORSDOF 9
ENDMDL
MODEL 8
REMARK VINA RESULT:      -6.8      1.395      1.773
REMARK  Name = 
REMARK  10 active torsions:
REMARK  status: ('A' for Active; 'I' for Inactive)
REMARK    1  A    between atoms: C_1  and  C_2
REMARK    2  A    between atoms: C_2  and  C_3
REMARK    3  A    between atoms: C_3  and  C_4
REMARK    4  A    between atoms: C_3  and  O_14
REMARK    5  A    between atoms: C_4  and  O_5
REMARK    6  A    between atoms: O_5  and  C_6
REMARK    7  A    between atoms: C_10  and  C_11
REMARK    8  A    between atoms: O_14  and  C_15
REMARK    9  A    between atoms: N_17  and  C_18
REMARK   10  A    between atoms: C_18  and  C_19
REMARK                            x       y       z     vdW  Elec       q    Type
REMARK                         _______ _______ _______ _____ _____    ______ ____
ROOT
ATOM      1  C   UNL     1       4.335   6.221  17.900  0.00  0.00    +0.000 C 
ENDROOT
BRANCH   1   3
ATOM      2  C   UNL     1       5.455   6.129  15.631  0.00  0.00    +0.000 C 
ATOM      3  C   UNL     1       4.643   5.366  16.668  0.00  0.00    +0.000 C 
ENDBRANCH   1   3
BRANCH   1   4
ATOM      4  C   UNL     1       2.858   6.649  17.938  0.00  0.00    +0.000 C 
BRANCH   4   5
ATOM      5  O   UNL     1       2.408   6.867  19.280  0.00  0.00    +0.000 OA
BRANCH   5   6
ATOM      6  C   UNL     1       1.803   8.070  19.533  0.00  0.00    +0.000 A 
ATOM      7  C   UNL     1       1.571   9.075  18.589  0.00  0.00    +0.000 A 
ATOM      8  C   UNL     1       0.931  10.261  18.961  0.00  0.00    +0.000 A 
ATOM      9  C   UNL     1       0.519  10.454  20.276  0.00  0.00    +0.000 A 
ATOM     10  C   UNL     1       0.755   9.454  21.236  0.00  0.00    +0.000 A 
ATOM     11  C   UNL     1       1.397   8.270  20.857  0.00  0.00    +0.000 A 
BRANCH  10  12
ATOM     12  C   UNL     1       0.334   9.659  22.587  0.00  0.00    +0.000 C 
ATOM     13  N   UNL     1      -0.018   9.824  23.681  0.00  0.00    +0.000 NA
ENDBRANCH  10  12
ENDBRANCH   5   6
ENDBRANCH   4   5
ENDBRANCH   1   4
BRANCH   1  14
ATOM     14  O   UNL     1       4.583   5.438  19.096  0.00  0.00    +0.000 OA
BRANCH  14  15
ATOM     15  C   UNL     1       5.706   4.678  19.066  0.00  0.00    +0.000 C 
ATOM     16  O   UNL     1       6.846   5.100  18.931  0.00  0.00    +0.000 OA
ATOM     17  N   UNL     1       5.472   3.364  19.336  0.00  0.00    +0.000 N 
ATOM     18  H   UNL     1       6.328   2.863  19.521  0.00  0.00    +0.000 HD
BRANCH  17  19
ATOM     19  C   UNL     1       4.426   2.603  18.700  0.00  0.00    +0.000 C 
BRANCH  19  20
ATOM     20  C   UNL     1       3.114   2.728  19.418  0.00  0.00    +0.000 A 
ATOM     21  C   UNL     1       1.928   2.880  18.688  0.00  0.00    +0.000 A 
ATOM     22  C   UNL     1       0.704   3.014  19.344  0.00  0.00    +0.000 A 
ATOM     23  C   UNL     1       0.655   3.002  20.736  0.00  0.00    +0.000 A 
ATOM     24  C   UNL     1       1.827   2.852  21.475  0.00  0.00    +0.000 A 
ATOM     25  C   UNL     1       3.052   2.716  20.820  0.00  0.00    +0.000 A 
ENDBRANCH  19  20
ENDBRANCH  17  19
ENDBRANCH  14  15
ENDBRANCH   1  14
TORSDOF 9
ENDMDL
MODEL 9
REMARK VINA RESULT:      -6.8      1.912      4.317
REMARK  Name = 
REMARK  10 active torsions:
REMARK  status: ('A' for Active; 'I' for Inactive)
REMARK    1  A    between atoms: C_1  and  C_2
REMARK    2  A    between atoms: C_2  and  C_3
REMARK    3  A    between atoms: C_3  and  C_4
REMARK    4  A    between atoms: C_3  and  O_14
REMARK    5  A    between atoms: C_4  and  O_5
REMARK    6  A    between atoms: O_5  and  C_6
REMARK    7  A    between atoms: C_10  and  C_11
REMARK    8  A    between atoms: O_14  and  C_15
REMARK    9  A    between atoms: N_17  and  C_18
REMARK   10  A    between atoms: C_18  and  C_19
REMARK                            x       y       z     vdW  Elec       q    Type
REMARK                         _______ _______ _______ _____ _____    ______ ____
ROOT
ATOM      1  C   UNL     1       1.553   4.186  19.991  0.00  0.00    +0.000 C 
ENDROOT
BRANCH   1   3
ATOM      2  C   UNL     1       2.481   2.674  21.798  0.00  0.00    +0.000 C 
ATOM      3  C   UNL     1       1.229   3.164  21.085  0.00  0.00    +0.000 C 
ENDBRANCH   1   3
BRANCH   1   4
ATOM      4  C   UNL     1       2.473   5.303  20.513  0.00  0.00    +0.000 C 
BRANCH   4   5
ATOM      5  O   UNL     1       1.740   6.500  20.794  0.00  0.00    +0.000 OA
BRANCH   5   6
ATOM      6  C   UNL     1       1.821   7.499  19.859  0.00  0.00    +0.000 A 
ATOM      7  C   UNL     1       2.572   7.448  18.681  0.00  0.00    +0.000 A 
ATOM      8  C   UNL     1       2.570   8.527  17.793  0.00  0.00    +0.000 A 
ATOM      9  C   UNL     1       1.820   9.664  18.072  0.00  0.00    +0.000 A 
ATOM     10  C   UNL     1       1.068   9.732  19.258  0.00  0.00    +0.000 A 
ATOM     11  C   UNL     1       1.076   8.648  20.144  0.00  0.00    +0.000 A 
BRANCH  10  12
ATOM     12  C   UNL     1       0.302  10.905  19.543  0.00  0.00    +0.000 C 
ATOM     13  N   UNL     1      -0.313  11.860  19.781  0.00  0.00    +0.000 NA
ENDBRANCH  10  12
ENDBRANCH   5   6
ENDBRANCH   4   5
ENDBRANCH   1   4
BRANCH   1  14
ATOM     14  O   UNL     1       2.259   3.521  18.913  0.00  0.00    +0.000 OA
BRANCH  14  15
ATOM     15  C   UNL     1       2.048   4.041  17.678  0.00  0.00    +0.000 C 
ATOM     16  O   UNL     1       0.963   4.127  17.119  0.00  0.00    +0.000 OA
ATOM     17  N   UNL     1       3.163   4.600  17.133  0.00  0.00    +0.000 N 
ATOM     18  H   UNL     1       2.943   5.163  16.326  0.00  0.00    +0.000 HD
BRANCH  17  19
ATOM     19  C   UNL     1       4.443   3.936  17.102  0.00  0.00    +0.000 C 
BRANCH  19  20
ATOM     20  C   UNL     1       5.558   4.828  17.566  0.00  0.00    +0.000 A 
ATOM     21  C   UNL     1       6.157   5.723  16.670  0.00  0.00    +0.000 A 
ATOM     22  C   UNL     1       7.206   6.545  17.083  0.00  0.00    +0.000 A 
ATOM     23  C   UNL     1       7.668   6.477  18.396  0.00  0.00    +0.000 A 
ATOM     24  C   UNL     1       7.082   5.591  19.298  0.00  0.00    +0.000 A 
ATOM     25  C   UNL     1       6.031   4.769  18.886  0.00  0.00    +0.000 A 
ENDBRANCH  19  20
ENDBRANCH  17  19
ENDBRANCH  14  15
ENDBRANCH   1  14
TORSDOF 9
ENDMDL
