MODEL 1
REMARK VINA RESULT:      -8.5      0.000      0.000
REMARK  Name = 
REMARK  12 active torsions:
REMARK  status: ('A' for Active; 'I' for Inactive)
REMARK    1  A    between atoms: C_2  and  O_3
REMARK    2  A    between atoms: C_2  and  C_4
REMARK    3  A    between atoms: C_4  and  C_5
REMARK    4  A    between atoms: C_5  and  C_6
REMARK    5  A    between atoms: C_8  and  C_9
REMARK    6  A    between atoms: C_9  and  C_10
REMARK    7  A    between atoms: C_10  and  N_11
REMARK    8  A    between atoms: N_11  and  S_12
REMARK    9  A    between atoms: S_12  and  N_15
REMARK   10  A    between atoms: N_15  and  C_16
REMARK   11  A    between atoms: C_24  and  C_25
REMARK   12  A    between atoms: C_25  and  C_26
REMARK                            x       y       z     vdW  Elec       q    Type
REMARK                         _______ _______ _______ _____ _____    ______ ____
ROOT
ATOM      1  C   UNL     1       4.808   6.172  17.040  0.00  0.00    +0.000 A 
ATOM      2  C   UNL     1       4.132   7.294  17.552  0.00  0.00    +0.000 A 
ATOM      3  C   UNL     1       2.858   7.174  18.122  0.00  0.00    +0.000 A 
ATOM      4  C   UNL     1       2.253   5.909  18.164  0.00  0.00    +0.000 A 
ATOM      5  C   UNL     1       2.899   4.778  17.636  0.00  0.00    +0.000 A 
ATOM      6  C   UNL     1       4.165   4.928  17.053  0.00  0.00    +0.000 A 
ENDROOT
BRANCH   1   7
ATOM      7  C   UNL     1       6.247   6.278  16.584  0.00  0.00    +0.000 C 
BRANCH   7   8
ATOM      8  C   UNL     1       7.160   6.619  17.766  0.00  0.00    +0.000 C 
BRANCH   8  10
ATOM      9  O   UNL     1       7.226   5.478  19.908  0.00  0.00    +0.000 OA
ATOM     10  C   UNL     1       7.358   5.450  18.696  0.00  0.00    +0.000 C 
BRANCH  10  11
ATOM     11  O   UNL     1       7.701   4.321  18.029  0.00  0.00    +0.000 OA
ATOM     12  H   UNL     1       7.600   3.505  18.556  0.00  0.00    +0.000 HD
ENDBRANCH  10  11
ENDBRANCH   8  10
ENDBRANCH   7   8
ENDBRANCH   1   7
BRANCH   3  13
ATOM     13  C   UNL     1       2.206   8.364  18.806  0.00  0.00    +0.000 C 
BRANCH  13  14
ATOM     14  C   UNL     1       1.689   9.351  17.754  0.00  0.00    +0.000 C 
BRANCH  14  15
ATOM     15  N   UNL     1       1.964  10.780  18.112  0.00  0.00    +0.000 NA
ATOM     16  H   UNL     1       2.246  11.310  17.287  0.00  0.00    +0.000 HD
BRANCH  15  17
ATOM     17  S   UNL     1       0.550  11.507  18.731  0.00  0.00    +0.000 S 
ATOM     18  O   UNL     1       0.500  12.831  18.167  0.00  0.00    +0.000 OA
ATOM     19  O   UNL     1      -0.520  10.544  18.602  0.00  0.00    +0.000 OA
BRANCH  17  20
ATOM     20  N   UNL     1       0.981  11.600  20.362  0.00  0.00    +0.000 N 
ATOM     21  H   UNL     1       1.521  10.768  20.581  0.00  0.00    +0.000 HD
BRANCH  20  22
ATOM     22  C   UNL     1      -0.174  11.704  21.227  0.00  0.00    +0.000 A 
ATOM     23  C   UNL     1      -1.005  12.822  21.127  0.00  0.00    +0.000 A 
ATOM     24  C   UNL     1      -2.065  12.996  22.027  0.00  0.00    +0.000 A 
ATOM     25  C   UNL     1      -2.282  12.053  23.030  0.00  0.00    +0.000 A 
ATOM     26 CL   UNL     1      -3.572  12.281  24.143  0.00  0.00    +0.000 Cl
ATOM     27  C   UNL     1      -1.451  10.941  23.142  0.00  0.00    +0.000 A 
ATOM     28  C   UNL     1      -0.390  10.770  22.242  0.00  0.00    +0.000 A 
ENDBRANCH  20  22
ENDBRANCH  17  20
ENDBRANCH  15  17
ENDBRANCH  14  15
ENDBRANCH  13  14
ENDBRANCH   3  13
BRANCH   5  29
ATOM     29  C   UNL     1       2.306   3.396  17.821  0.00  0.00    +0.000 C 
BRANCH  29  30
ATOM     30  C   UNL     1       2.257   2.995  19.274  0.00  0.00    +0.000 A 
ATOM     31  C   UNL     1       1.063   3.030  20.001  0.00  0.00    +0.000 A 
ATOM     32  C   UNL     1       1.077   2.762  21.368  0.00  0.00    +0.000 A 
ATOM     33  C   UNL     1       2.289   2.461  21.965  0.00  0.00    +0.000 A 
ATOM     34  N   UNL     1       3.459   2.397  21.297  0.00  0.00    +0.000 NA
ATOM     35  C   UNL     1       3.416   2.666  19.971  0.00  0.00    +0.000 A 
ENDBRANCH  29  30
ENDBRANCH   5  29
TORSDOF 12
ENDMDL
MODEL 2
REMARK VINA RESULT:      -8.1      1.817      2.195
REMARK  Name = 
REMARK  12 active torsions:
REMARK  status: ('A' for Active; 'I' for Inactive)
REMARK    1  A    between atoms: C_2  and  O_3
REMARK    2  A    between atoms: C_2  and  C_4
REMARK    3  A    between atoms: C_4  and  C_5
REMARK    4  A    between atoms: C_5  and  C_6
REMARK    5  A    between atoms: C_8  and  C_9
REMARK    6  A    between atoms: C_9  and  C_10
REMARK    7  A    between atoms: C_10  and  N_11
REMARK    8  A    between atoms: N_11  and  S_12
REMARK    9  A    between atoms: S_12  and  N_15
REMARK   10  A    between atoms: N_15  and  C_16
REMARK   11  A    between atoms: C_24  and  C_25
REMARK   12  A    between atoms: C_25  and  C_26
REMARK                            x       y       z     vdW  Elec       q    Type
REMARK                         _______ _______ _______ _____ _____    ______ ____
ROOT
ATOM      1  C   UNL     1       4.690   6.356  17.027  0.00  0.00    +0.000 A 
ATOM      2  C   UNL     1       3.947   7.440  17.527  0.00  0.00    +0.000 A 
ATOM      3  C   UNL     1       2.674   7.253  18.079  0.00  0.00    +0.000 A 
ATOM      4  C   UNL     1       2.137   5.956  18.116  0.00  0.00    +0.000 A 
ATOM      5  C   UNL     1       2.852   4.862  17.599  0.00  0.00    +0.000 A 
ATOM      6  C   UNL     1       4.116   5.080  17.033  0.00  0.00    +0.000 A 
ENDROOT
BRANCH   1   7
ATOM      7  C   UNL     1       6.128   6.540  16.591  0.00  0.00    +0.000 C 
BRANCH   7   8
ATOM      8  C   UNL     1       7.062   6.524  17.804  0.00  0.00    +0.000 C 
BRANCH   8  10
ATOM      9  O   UNL     1       7.944   4.365  17.131  0.00  0.00    +0.000 OA
ATOM     10  C   UNL     1       7.719   5.184  18.007  0.00  0.00    +0.000 C 
BRANCH  10  11
ATOM     11  O   UNL     1       8.056   4.972  19.303  0.00  0.00    +0.000 OA
ATOM     12  H   UNL     1       7.690   5.635  19.919  0.00  0.00    +0.000 HD
ENDBRANCH  10  11
ENDBRANCH   8  10
ENDBRANCH   7   8
ENDBRANCH   1   7
BRANCH   3  13
ATOM     13  C   UNL     1       1.948   8.406  18.751  0.00  0.00    +0.000 C 
BRANCH  13  14
ATOM     14  C   UNL     1       1.725   9.539  17.744  0.00  0.00    +0.000 C 
BRANCH  14  15
ATOM     15  N   UNL     1       1.062  10.737  18.353  0.00  0.00    +0.000 NA
ATOM     16  H   UNL     1       1.185  11.558  17.760  0.00  0.00    +0.000 HD
BRANCH  15  17
ATOM     17  S   UNL     1      -0.614  10.460  18.505  0.00  0.00    +0.000 S 
ATOM     18  O   UNL     1      -1.001   9.691  17.350  0.00  0.00    +0.000 OA
ATOM     19  O   UNL     1      -0.857  10.032  19.865  0.00  0.00    +0.000 OA
BRANCH  17  20
ATOM     20  N   UNL     1      -1.171  12.047  18.344  0.00  0.00    +0.000 N 
ATOM     21  H   UNL     1      -0.506  12.651  18.818  0.00  0.00    +0.000 HD
BRANCH  20  22
ATOM     22  C   UNL     1      -2.500  12.217  18.891  0.00  0.00    +0.000 A 
ATOM     23  C   UNL     1      -2.654  12.823  20.140  0.00  0.00    +0.000 A 
ATOM     24  C   UNL     1      -3.920  12.901  20.736  0.00  0.00    +0.000 A 
ATOM     25  C   UNL     1      -5.026  12.362  20.081  0.00  0.00    +0.000 A 
ATOM     26 CL   UNL     1      -6.573  12.442  20.824  0.00  0.00    +0.000 Cl
ATOM     27  C   UNL     1      -4.878  11.747  18.840  0.00  0.00    +0.000 A 
ATOM     28  C   UNL     1      -3.611  11.669  18.246  0.00  0.00    +0.000 A 
ENDBRANCH  20  22
ENDBRANCH  17  20
ENDBRANCH  15  17
ENDBRANCH  14  15
ENDBRANCH  13  14
ENDBRANCH   3  13
BRANCH   5  29
ATOM     29  C   UNL     1       2.332   3.449  17.778  0.00  0.00    +0.000 C 
BRANCH  29  30
ATOM     30  C   UNL     1       2.319   3.035  19.228  0.00  0.00    +0.000 A 
ATOM     31  C   UNL     1       1.147   3.076  19.989  0.00  0.00    +0.000 A 
ATOM     32  C   UNL     1       1.197   2.795  21.352  0.00  0.00    +0.000 A 
ATOM     33  C   UNL     1       2.422   2.474  21.912  0.00  0.00    +0.000 A 
ATOM     34  N   UNL     1       3.572   2.404  21.210  0.00  0.00    +0.000 NA
ATOM     35  C   UNL     1       3.494   2.686  19.889  0.00  0.00    +0.000 A 
ENDBRANCH  29  30
ENDBRANCH   5  29
TORSDOF 12
ENDMDL
MODEL 3
REMARK VINA RESULT:      -8.1      3.364      5.017
REMARK  Name = 
REMARK  12 active torsions:
REMARK  status: ('A' for Active; 'I' for Inactive)
REMARK    1  A    between atoms: C_2  and  O_3
REMARK    2  A    between atoms: C_2  and  C_4
REMARK    3  A    between atoms: C_4  and  C_5
REMARK    4  A    between atoms: C_5  and  C_6
REMARK    5  A    between atoms: C_8  and  C_9
REMARK    6  A    between atoms: C_9  and  C_10
REMARK    7  A    between atoms: C_10  and  N_11
REMARK    8  A    between atoms: N_11  and  S_12
REMARK    9  A    between atoms: S_12  and  N_15
REMARK   10  A    between atoms: N_15  and  C_16
REMARK   11  A    between atoms: C_24  and  C_25
REMARK   12  A    between atoms: C_25  and  C_26
REMARK                            x       y       z     vdW  Elec       q    Type
REMARK                         _______ _______ _______ _____ _____    ______ ____
ROOT
ATOM      1  C   UNL     1       2.329   5.038  19.851  0.00  0.00    +0.000 A 
ATOM      2  C   UNL     1       1.918   6.233  19.234  0.00  0.00    +0.000 A 
ATOM      3  C   UNL     1       2.788   6.962  18.414  0.00  0.00    +0.000 A 
ATOM      4  C   UNL     1       4.094   6.486  18.223  0.00  0.00    +0.000 A 
ATOM      5  C   UNL     1       4.535   5.308  18.850  0.00  0.00    +0.000 A 
ATOM      6  C   UNL     1       3.650   4.607  19.682  0.00  0.00    +0.000 A 
ENDROOT
BRANCH   1   7
ATOM      7  C   UNL     1       1.336   4.169  20.593  0.00  0.00    +0.000 C 
BRANCH   7   8
ATOM      8  C   UNL     1       1.671   2.687  20.400  0.00  0.00    +0.000 C 
BRANCH   8  10
ATOM      9  O   UNL     1       0.164   2.273  18.543  0.00  0.00    +0.000 OA
ATOM     10  C   UNL     1       1.275   2.180  19.039  0.00  0.00    +0.000 C 
BRANCH  10  11
ATOM     11  O   UNL     1       2.312   1.596  18.390  0.00  0.00    +0.000 OA
ATOM     12  H   UNL     1       2.474   0.671  18.655  0.00  0.00    +0.000 HD
ENDBRANCH  10  11
ENDBRANCH   8  10
ENDBRANCH   7   8
ENDBRANCH   1   7
BRANCH   3  13
ATOM     13  C   UNL     1       2.285   8.166  17.635  0.00  0.00    +0.000 C 
BRANCH  13  14
ATOM     14  C   UNL     1       2.016   9.331  18.594  0.00  0.00    +0.000 C 
BRANCH  14  15
ATOM     15  N   UNL     1       1.595  10.582  17.885  0.00  0.00    +0.000 NA
ATOM     16  H   UNL     1       0.947  10.366  17.127  0.00  0.00    +0.000 HD
BRANCH  15  17
ATOM     17  S   UNL     1       0.789  11.623  18.970  0.00  0.00    +0.000 S 
ATOM     18  O   UNL     1       1.733  11.923  20.015  0.00  0.00    +0.000 OA
ATOM     19  O   UNL     1       0.125  12.635  18.180  0.00  0.00    +0.000 OA
BRANCH  17  20
ATOM     20  N   UNL     1      -0.384  10.556  19.553  0.00  0.00    +0.000 N 
ATOM     21  H   UNL     1      -0.085   9.615  19.312  0.00  0.00    +0.000 HD
BRANCH  20  22
ATOM     22  C   UNL     1      -1.695  10.834  19.008  0.00  0.00    +0.000 A 
ATOM     23  C   UNL     1      -2.080  10.230  17.809  0.00  0.00    +0.000 A 
ATOM     24  C   UNL     1      -3.300  10.569  17.208  0.00  0.00    +0.000 A 
ATOM     25  C   UNL     1      -4.125  11.519  17.807  0.00  0.00    +0.000 A 
ATOM     26 CL   UNL     1      -5.611  11.946  17.057  0.00  0.00    +0.000 Cl
ATOM     27  C   UNL     1      -3.742  12.133  18.998  0.00  0.00    +0.000 A 
ATOM     28  C   UNL     1      -2.521  11.794  19.596  0.00  0.00    +0.000 A 
ENDBRANCH  20  22
ENDBRANCH  17  20
ENDBRANCH  15  17
ENDBRANCH  14  15
ENDBRANCH  13  14
ENDBRANCH   3  13
BRANCH   5  29
ATOM     29  C   UNL     1       5.893   4.722  18.520  0.00  0.00    +0.000 C 
BRANCH  29  30
ATOM     30  C   UNL     1       6.186   4.780  17.042  0.00  0.00    +0.000 A 
ATOM     31  C   UNL     1       5.557   3.917  16.138  0.00  0.00    +0.000 A 
ATOM     32  C   UNL     1       5.936   3.924  14.798  0.00  0.00    +0.000 A 
ATOM     33  C   UNL     1       6.932   4.800  14.401  0.00  0.00    +0.000 A 
ATOM     34  N   UNL     1       7.548   5.662  15.236  0.00  0.00    +0.000 NA
ATOM     35  C   UNL     1       7.163   5.631  16.533  0.00  0.00    +0.000 A 
ENDBRANCH  29  30
ENDBRANCH   5  29
TORSDOF 12
ENDMDL
MODEL 4
REMARK VINA RESULT:      -8.0      2.545      3.096
REMARK  Name = 
REMARK  12 active torsions:
REMARK  status: ('A' for Active; 'I' for Inactive)
REMARK    1  A    between atoms: C_2  and  O_3
REMARK    2  A    between atoms: C_2  and  C_4
REMARK    3  A    between atoms: C_4  and  C_5
REMARK    4  A    between atoms: C_5  and  C_6
REMARK    5  A    between atoms: C_8  and  C_9
REMARK    6  A    between atoms: C_9  and  C_10
REMARK    7  A    between atoms: C_10  and  N_11
REMARK    8  A    between atoms: N_11  and  S_12
REMARK    9  A    between atoms: S_12  and  N_15
REMARK   10  A    between atoms: N_15  and  C_16
REMARK   11  A    between atoms: C_24  and  C_25
REMARK   12  A    between atoms: C_25  and  C_26
REMARK                            x       y       z     vdW  Elec       q    Type
REMARK                         _______ _______ _______ _____ _____    ______ ____
ROOT
ATOM      1  C   UNL     1       5.231   5.256  16.190  0.00  0.00    +0.000 A 
ATOM      2  C   UNL     1       4.778   6.453  16.774  0.00  0.00    +0.000 A 
ATOM      3  C   UNL     1       3.650   6.473  17.604  0.00  0.00    +0.000 A 
ATOM      4  C   UNL     1       2.962   5.273  17.838  0.00  0.00    +0.000 A 
ATOM      5  C   UNL     1       3.381   4.070  17.244  0.00  0.00    +0.000 A 
ATOM      6  C   UNL     1       4.501   4.081  16.401  0.00  0.00    +0.000 A 
ENDROOT
BRANCH   1   7
ATOM      7  C   UNL     1       6.543   5.212  15.437  0.00  0.00    +0.000 C 
BRANCH   7   8
ATOM      8  C   UNL     1       6.396   4.392  14.152  0.00  0.00    +0.000 C 
BRANCH   8  10
ATOM      9  O   UNL     1       7.417   4.372  11.950  0.00  0.00    +0.000 OA
ATOM     10  C   UNL     1       7.378   4.808  13.089  0.00  0.00    +0.000 C 
BRANCH  10  11
ATOM     11  O   UNL     1       8.240   5.754  13.534  0.00  0.00    +0.000 OA
ATOM     12  H   UNL     1       7.803   6.537  13.920  0.00  0.00    +0.000 HD
ENDBRANCH  10  11
ENDBRANCH   8  10
ENDBRANCH   7   8
ENDBRANCH   1   7
BRANCH   3  13
ATOM     13  C   UNL     1       3.264   7.740  18.348  0.00  0.00    +0.000 C 
BRANCH  13  14
ATOM     14  C   UNL     1       1.951   7.519  19.107  0.00  0.00    +0.000 C 
BRANCH  14  15
ATOM     15  N   UNL     1       2.126   7.551  20.594  0.00  0.00    +0.000 NA
ATOM     16  H   UNL     1       3.077   7.827  20.840  0.00  0.00    +0.000 HD
BRANCH  15  17
ATOM     17  S   UNL     1       1.065   8.698  21.281  0.00  0.00    +0.000 S 
ATOM     18  O   UNL     1      -0.194   8.023  21.461  0.00  0.00    +0.000 OA
ATOM     19  O   UNL     1       1.779   9.354  22.353  0.00  0.00    +0.000 OA
BRANCH  17  20
ATOM     20  N   UNL     1       0.951   9.777  19.986  0.00  0.00    +0.000 N 
ATOM     21  H   UNL     1       1.771  10.375  20.017  0.00  0.00    +0.000 HD
BRANCH  20  22
ATOM     22  C   UNL     1      -0.261  10.564  20.035  0.00  0.00    +0.000 A 
ATOM     23  C   UNL     1      -1.128  10.557  18.940  0.00  0.00    +0.000 A 
ATOM     24  C   UNL     1      -2.251  11.395  18.923  0.00  0.00    +0.000 A 
ATOM     25  C   UNL     1      -2.497  12.243  20.001  0.00  0.00    +0.000 A 
ATOM     26 CL   UNL     1      -3.865  13.282  19.967  0.00  0.00    +0.000 Cl
ATOM     27  C   UNL     1      -1.631  12.263  21.092  0.00  0.00    +0.000 A 
ATOM     28  C   UNL     1      -0.507  11.426  21.107  0.00  0.00    +0.000 A 
ENDBRANCH  20  22
ENDBRANCH  17  20
ENDBRANCH  15  17
ENDBRANCH  14  15
ENDBRANCH  13  14
ENDBRANCH   3  13
BRANCH   5  29
ATOM     29  C   UNL     1       2.725   2.756  17.620  0.00  0.00    +0.000 C 
BRANCH  29  30
ATOM     30  C   UNL     1       2.462   2.663  19.102  0.00  0.00    +0.000 A 
ATOM     31  C   UNL     1       1.180   2.848  19.630  0.00  0.00    +0.000 A 
ATOM     32  C   UNL     1       0.996   2.868  21.010  0.00  0.00    +0.000 A 
ATOM     33  C   UNL     1       2.104   2.694  21.822  0.00  0.00    +0.000 A 
ATOM     34  N   UNL     1       3.353   2.492  21.354  0.00  0.00    +0.000 NA
ATOM     35  C   UNL     1       3.502   2.483  20.009  0.00  0.00    +0.000 A 
ENDBRANCH  29  30
ENDBRANCH   5  29
TORSDOF 12
ENDMDL
MODEL 5
REMARK VINA RESULT:      -8.0      2.165      2.655
REMARK  Name = 
REMARK  12 active torsions:
REMARK  status: ('A' for Active; 'I' for Inactive)
REMARK    1  A    between atoms: C_2  and  O_3
REMARK    2  A    between atoms: C_2  and  C_4
REMARK    3  A    between atoms: C_4  and  C_5
REMARK    4  A    between atoms: C_5  and  C_6
REMARK    5  A    between atoms: C_8  and  C_9
REMARK    6  A    between atoms: C_9  and  C_10
REMARK    7  A    between atoms: C_10  and  N_11
REMARK    8  A    between atoms: N_11  and  S_12
REMARK    9  A    between atoms: S_12  and  N_15
REMARK   10  A    between atoms: N_15  and  C_16
REMARK   11  A    between atoms: C_24  and  C_25
REMARK   12  A    between atoms: C_25  and  C_26
REMARK                            x       y       z     vdW  Elec       q    Type
REMARK                         _______ _______ _______ _____ _____    ______ ____
ROOT
ATOM      1  C   UNL     1       5.057   5.840  16.786  0.00  0.00    +0.000 A 
ATOM      2  C   UNL     1       4.402   6.989  17.265  0.00  0.00    +0.000 A 
ATOM      3  C   UNL     1       3.139   6.907  17.864  0.00  0.00    +0.000 A 
ATOM      4  C   UNL     1       2.522   5.651  17.969  0.00  0.00    +0.000 A 
ATOM      5  C   UNL     1       3.147   4.493  17.474  0.00  0.00    +0.000 A 
ATOM      6  C   UNL     1       4.402   4.606  16.861  0.00  0.00    +0.000 A 
ENDROOT
BRANCH   1   7
ATOM      7  C   UNL     1       6.488   5.913  16.298  0.00  0.00    +0.000 C 
BRANCH   7   8
ATOM      8  C   UNL     1       7.386   6.548  17.364  0.00  0.00    +0.000 C 
BRANCH   8  10
ATOM      9  O   UNL     1       7.831   4.355  18.304  0.00  0.00    +0.000 OA
ATOM     10  C   UNL     1       7.792   5.567  18.433  0.00  0.00    +0.000 C 
BRANCH  10  11
ATOM     11  O   UNL     1       8.130   6.186  19.590  0.00  0.00    +0.000 OA
ATOM     12  H   UNL     1       8.206   5.582  20.354  0.00  0.00    +0.000 HD
ENDBRANCH  10  11
ENDBRANCH   8  10
ENDBRANCH   7   8
ENDBRANCH   1   7
BRANCH   3  13
ATOM     13  C   UNL     1       2.513   8.129  18.512  0.00  0.00    +0.000 C 
BRANCH  13  14
ATOM     14  C   UNL     1       1.572   7.696  19.642  0.00  0.00    +0.000 C 
BRANCH  14  15
ATOM     15  N   UNL     1       1.840   8.415  20.929  0.00  0.00    +0.000 NA
ATOM     16  H   UNL     1       2.699   8.962  20.865  0.00  0.00    +0.000 HD
BRANCH  15  17
ATOM     17  S   UNL     1       0.566   9.497  21.268  0.00  0.00    +0.000 S 
ATOM     18  O   UNL     1      -0.426   8.738  21.985  0.00  0.00    +0.000 OA
ATOM     19  O   UNL     1       1.159  10.714  21.776  0.00  0.00    +0.000 OA
BRANCH  17  20
ATOM     20  N   UNL     1       0.028   9.791  19.693  0.00  0.00    +0.000 N 
ATOM     21  H   UNL     1       0.698   9.364  19.060  0.00  0.00    +0.000 HD
BRANCH  20  22
ATOM     22  C   UNL     1      -0.110  11.204  19.418  0.00  0.00    +0.000 A 
ATOM     23  C   UNL     1       0.899  11.868  18.717  0.00  0.00    +0.000 A 
ATOM     24  C   UNL     1       0.837  13.256  18.534  0.00  0.00    +0.000 A 
ATOM     25  C   UNL     1      -0.233  13.975  19.063  0.00  0.00    +0.000 A 
ATOM     26 CL   UNL     1      -0.296  15.680  18.853  0.00  0.00    +0.000 Cl
ATOM     27  C   UNL     1      -1.238  13.321  19.772  0.00  0.00    +0.000 A 
ATOM     28  C   UNL     1      -1.173  11.933  19.955  0.00  0.00    +0.000 A 
ENDBRANCH  20  22
ENDBRANCH  17  20
ENDBRANCH  15  17
ENDBRANCH  14  15
ENDBRANCH  13  14
ENDBRANCH   3  13
BRANCH   5  29
ATOM     29  C   UNL     1       2.544   3.125  17.726  0.00  0.00    +0.000 C 
BRANCH  29  30
ATOM     30  C   UNL     1       2.371   2.850  19.199  0.00  0.00    +0.000 A 
ATOM     31  C   UNL     1       1.119   2.933  19.816  0.00  0.00    +0.000 A 
ATOM     32  C   UNL     1       1.017   2.783  21.197  0.00  0.00    +0.000 A 
ATOM     33  C   UNL     1       2.175   2.548  21.919  0.00  0.00    +0.000 A 
ATOM     34  N   UNL     1       3.398   2.440  21.360  0.00  0.00    +0.000 NA
ATOM     35  C   UNL     1       3.468   2.594  20.018  0.00  0.00    +0.000 A 
ENDBRANCH  29  30
ENDBRANCH   5  29
TORSDOF 12
ENDMDL
MODEL 6
REMARK VINA RESULT:      -7.9      1.599      1.739
REMARK  Name = 
REMARK  12 active torsions:
REMARK  status: ('A' for Active; 'I' for Inactive)
REMARK    1  A    between atoms: C_2  and  O_3
REMARK    2  A    between atoms: C_2  and  C_4
REMARK    3  A    between atoms: C_4  and  C_5
REMARK    4  A    between atoms: C_5  and  C_6
REMARK    5  A    between atoms: C_8  and  C_9
REMARK    6  A    between atoms: C_9  and  C_10
REMARK    7  A    between atoms: C_10  and  N_11
REMARK    8  A    between atoms: N_11  and  S_12
REMARK    9  A    between atoms: S_12  and  N_15
REMARK   10  A    between atoms: N_15  and  C_16
REMARK   11  A    between atoms: C_24  and  C_25
REMARK   12  A    between atoms: C_25  and  C_26
REMARK                            x       y       z     vdW  Elec       q    Type
REMARK                         _______ _______ _______ _____ _____    ______ ____
ROOT
ATOM      1  C   UNL     1       4.990   6.384  17.156  0.00  0.00    +0.000 A 
ATOM      2  C   UNL     1       4.148   7.424  17.590  0.00  0.00    +0.000 A 
ATOM      3  C   UNL     1       2.849   7.164  18.043  0.00  0.00    +0.000 A 
ATOM      4  C   UNL     1       2.387   5.839  18.046  0.00  0.00    +0.000 A 
ATOM      5  C   UNL     1       3.201   4.787  17.593  0.00  0.00    +0.000 A 
ATOM      6  C   UNL     1       4.491   5.077  17.125  0.00  0.00    +0.000 A 
ENDROOT
BRANCH   1   7
ATOM      7  C   UNL     1       6.443   6.650  16.831  0.00  0.00    +0.000 C 
BRANCH   7   8
ATOM      8  C   UNL     1       7.344   5.623  17.524  0.00  0.00    +0.000 C 
BRANCH   8  10
ATOM      9  O   UNL     1       7.247   5.439  19.943  0.00  0.00    +0.000 OA
ATOM     10  C   UNL     1       7.665   6.005  18.945  0.00  0.00    +0.000 C 
BRANCH  10  11
ATOM     11  O   UNL     1       8.500   7.070  19.011  0.00  0.00    +0.000 OA
ATOM     12  H   UNL     1       8.047   7.917  19.186  0.00  0.00    +0.000 HD
ENDBRANCH  10  11
ENDBRANCH   8  10
ENDBRANCH   7   8
ENDBRANCH   1   7
BRANCH   3  13
ATOM     13  C   UNL     1       2.008   8.275  18.649  0.00  0.00    +0.000 C 
BRANCH  13  14
ATOM     14  C   UNL     1       2.070   9.521  17.759  0.00  0.00    +0.000 C 
BRANCH  14  15
ATOM     15  N   UNL     1       0.923  10.457  17.988  0.00  0.00    +0.000 NA
ATOM     16  H   UNL     1       0.249  10.050  18.638  0.00  0.00    +0.000 HD
BRANCH  15  17
ATOM     17  S   UNL     1       1.488  11.912  18.678  0.00  0.00    +0.000 S 
ATOM     18  O   UNL     1       1.312  11.776  20.101  0.00  0.00    +0.000 OA
ATOM     19  O   UNL     1       2.758  12.216  18.057  0.00  0.00    +0.000 OA
BRANCH  17  20
ATOM     20  N   UNL     1       0.331  12.976  18.061  0.00  0.00    +0.000 N 
ATOM     21  H   UNL     1       0.796  13.862  17.887  0.00  0.00    +0.000 HD
BRANCH  20  22
ATOM     22  C   UNL     1      -0.786  13.152  18.964  0.00  0.00    +0.000 A 
ATOM     23  C   UNL     1      -0.783  14.226  19.857  0.00  0.00    +0.000 A 
ATOM     24  C   UNL     1      -1.800  14.352  20.813  0.00  0.00    +0.000 A 
ATOM     25  C   UNL     1      -2.813  13.396  20.876  0.00  0.00    +0.000 A 
ATOM     26 CL   UNL     1      -4.047  13.545  22.061  0.00  0.00    +0.000 Cl
ATOM     27  C   UNL     1      -2.816  12.317  19.994  0.00  0.00    +0.000 A 
ATOM     28  C   UNL     1      -1.797  12.191  19.041  0.00  0.00    +0.000 A 
ENDBRANCH  20  22
ENDBRANCH  17  20
ENDBRANCH  15  17
ENDBRANCH  14  15
ENDBRANCH  13  14
ENDBRANCH   3  13
BRANCH   5  29
ATOM     29  C   UNL     1       2.751   3.347  17.740  0.00  0.00    +0.000 C 
BRANCH  29  30
ATOM     30  C   UNL     1       2.468   2.991  19.178  0.00  0.00    +0.000 A 
ATOM     31  C   UNL     1       1.177   3.069  19.709  0.00  0.00    +0.000 A 
ATOM     32  C   UNL     1       0.973   2.843  21.068  0.00  0.00    +0.000 A 
ATOM     33  C   UNL     1       2.071   2.538  21.855  0.00  0.00    +0.000 A 
ATOM     34  N   UNL     1       3.328   2.432  21.379  0.00  0.00    +0.000 NA
ATOM     35  C   UNL     1       3.497   2.662  20.056  0.00  0.00    +0.000 A 
ENDBRANCH  29  30
ENDBRANCH   5  29
TORSDOF 12
ENDMDL
MODEL 7
REMARK VINA RESULT:      -7.9      1.823      2.129
REMARK  Name = 
REMARK  12 active torsions:
REMARK  status: ('A' for Active; 'I' for Inactive)
REMARK    1  A    between atoms: C_2  and  O_3
REMARK    2  A    between atoms: C_2  and  C_4
REMARK    3  A    between atoms: C_4  and  C_5
REMARK    4  A    between atoms: C_5  and  C_6
REMARK    5  A    between atoms: C_8  and  C_9
REMARK    6  A    between atoms: C_9  and  C_10
REMARK    7  A    between atoms: C_10  and  N_11
REMARK    8  A    between atoms: N_11  and  S_12
REMARK    9  A    between atoms: S_12  and  N_15
REMARK   10  A    between atoms: N_15  and  C_16
REMARK   11  A    between atoms: C_24  and  C_25
REMARK   12  A    between atoms: C_25  and  C_26
REMARK                            x       y       z     vdW  Elec       q    Type
REMARK                         _______ _______ _______ _____ _____    ______ ____
ROOT
ATOM      1  C   UNL     1       5.284   6.218  16.913  0.00  0.00    +0.000 A 
ATOM      2  C   UNL     1       4.542   7.361  17.262  0.00  0.00    +0.000 A 
ATOM      3  C   UNL     1       3.218   7.258  17.704  0.00  0.00    +0.000 A 
ATOM      4  C   UNL     1       2.628   5.987  17.784  0.00  0.00    +0.000 A 
ATOM      5  C   UNL     1       3.342   4.833  17.416  0.00  0.00    +0.000 A 
ATOM      6  C   UNL     1       4.660   4.965  16.957  0.00  0.00    +0.000 A 
ENDROOT
BRANCH   1   7
ATOM      7  C   UNL     1       6.761   6.320  16.601  0.00  0.00    +0.000 C 
BRANCH   7   8
ATOM      8  C   UNL     1       7.554   6.659  17.867  0.00  0.00    +0.000 C 
BRANCH   8  10
ATOM      9  O   UNL     1       7.220   5.513  19.980  0.00  0.00    +0.000 OA
ATOM     10  C   UNL     1       7.624   5.503  18.829  0.00  0.00    +0.000 C 
BRANCH  10  11
ATOM     11  O   UNL     1       8.192   4.407  18.269  0.00  0.00    +0.000 OA
ATOM     12  H   UNL     1       8.438   4.525  17.332  0.00  0.00    +0.000 HD
ENDBRANCH  10  11
ENDBRANCH   8  10
ENDBRANCH   7   8
ENDBRANCH   1   7
BRANCH   3  13
ATOM     13  C   UNL     1       2.481   8.482  18.221  0.00  0.00    +0.000 C 
BRANCH  13  14
ATOM     14  C   UNL     1       1.419   8.059  19.241  0.00  0.00    +0.000 C 
BRANCH  14  15
ATOM     15  N   UNL     1       1.916   8.108  20.654  0.00  0.00    +0.000 NA
ATOM     16  H   UNL     1       2.826   8.568  20.700  0.00  0.00    +0.000 HD
BRANCH  15  17
ATOM     17  S   UNL     1       0.835   9.007  21.621  0.00  0.00    +0.000 S 
ATOM     18  O   UNL     1      -0.391   8.252  21.660  0.00  0.00    +0.000 OA
ATOM     19  O   UNL     1       1.558   9.417  22.804  0.00  0.00    +0.000 OA
BRANCH  17  20
ATOM     20  N   UNL     1       0.639  10.360  20.628  0.00  0.00    +0.000 N 
ATOM     21  H   UNL     1       1.554  10.603  20.262  0.00  0.00    +0.000 HD
BRANCH  20  22
ATOM     22  C   UNL     1       0.055  11.477  21.337  0.00  0.00    +0.000 A 
ATOM     23  C   UNL     1       0.602  12.752  21.176  0.00  0.00    +0.000 A 
ATOM     24  C   UNL     1       0.122  13.828  21.935  0.00  0.00    +0.000 A 
ATOM     25  C   UNL     1      -0.899  13.619  22.861  0.00  0.00    +0.000 A 
ATOM     26 CL   UNL     1      -1.471  14.937  23.804  0.00  0.00    +0.000 Cl
ATOM     27  C   UNL     1      -1.442  12.348  23.035  0.00  0.00    +0.000 A 
ATOM     28  C   UNL     1      -0.960  11.273  22.275  0.00  0.00    +0.000 A 
ENDBRANCH  20  22
ENDBRANCH  17  20
ENDBRANCH  15  17
ENDBRANCH  14  15
ENDBRANCH  13  14
ENDBRANCH   3  13
BRANCH   5  29
ATOM     29  C   UNL     1       2.752   3.456  17.647  0.00  0.00    +0.000 C 
BRANCH  29  30
ATOM     30  C   UNL     1       2.393   3.235  19.095  0.00  0.00    +0.000 A 
ATOM     31  C   UNL     1       3.364   2.911  20.048  0.00  0.00    +0.000 A 
ATOM     32  C   UNL     1       2.981   2.604  21.351  0.00  0.00    +0.000 A 
ATOM     33  C   UNL     1       1.632   2.636  21.663  0.00  0.00    +0.000 A 
ATOM     34  N   UNL     1       0.666   2.963  20.780  0.00  0.00    +0.000 NA
ATOM     35  C   UNL     1       1.068   3.253  19.521  0.00  0.00    +0.000 A 
ENDBRANCH  29  30
ENDBRANCH   5  29
TORSDOF 12
ENDMDL
MODEL 8
REMARK VINA RESULT:      -7.9      2.581      2.797
REMARK  Name = 
REMARK  12 active torsions:
REMARK  status: ('A' for Active; 'I' for Inactive)
REMARK    1  A    between atoms: C_2  and  O_3
REMARK    2  A    between atoms: C_2  and  C_4
REMARK    3  A    between atoms: C_4  and  C_5
REMARK    4  A    between atoms: C_5  and  C_6
REMARK    5  A    between atoms: C_8  and  C_9
REMARK    6  A    between atoms: C_9  and  C_10
REMARK    7  A    between atoms: C_10  and  N_11
REMARK    8  A    between atoms: N_11  and  S_12
REMARK    9  A    between atoms: S_12  and  N_15
REMARK   10  A    between atoms: N_15  and  C_16
REMARK   11  A    between atoms: C_24  and  C_25
REMARK   12  A    between atoms: C_25  and  C_26
REMARK                            x       y       z     vdW  Elec       q    Type
REMARK                         _______ _______ _______ _____ _____    ______ ____
ROOT
ATOM      1  C   UNL     1       4.834   6.210  16.996  0.00  0.00    +0.000 A 
ATOM      2  C   UNL     1       4.134   7.309  17.527  0.00  0.00    +0.000 A 
ATOM      3  C   UNL     1       2.869   7.151  18.106  0.00  0.00    +0.000 A 
ATOM      4  C   UNL     1       2.295   5.871  18.138  0.00  0.00    +0.000 A 
ATOM      5  C   UNL     1       2.964   4.763  17.592  0.00  0.00    +0.000 A 
ATOM      6  C   UNL     1       4.221   4.951  17.000  0.00  0.00    +0.000 A 
ENDROOT
BRANCH   1   7
ATOM      7  C   UNL     1       6.265   6.357  16.530  0.00  0.00    +0.000 C 
BRANCH   7   8
ATOM      8  C   UNL     1       7.172   6.752  17.699  0.00  0.00    +0.000 C 
BRANCH   8  10
ATOM      9  O   UNL     1       7.689   4.405  18.045  0.00  0.00    +0.000 OA
ATOM     10  C   UNL     1       7.698   5.557  18.450  0.00  0.00    +0.000 C 
BRANCH  10  11
ATOM     11  O   UNL     1       8.210   5.897  19.657  0.00  0.00    +0.000 OA
ATOM     12  H   UNL     1       7.708   5.540  20.414  0.00  0.00    +0.000 HD
ENDBRANCH  10  11
ENDBRANCH   8  10
ENDBRANCH   7   8
ENDBRANCH   1   7
BRANCH   3  13
ATOM     13  C   UNL     1       2.194   8.317  18.809  0.00  0.00    +0.000 C 
BRANCH  13  14
ATOM     14  C   UNL     1       1.826   9.399  17.788  0.00  0.00    +0.000 C 
BRANCH  14  15
ATOM     15  N   UNL     1       0.368   9.742  17.803  0.00  0.00    +0.000 NA
ATOM     16  H   UNL     1      -0.175   8.991  18.229  0.00  0.00    +0.000 HD
BRANCH  15  17
ATOM     17  S   UNL     1       0.111  11.151  18.730  0.00  0.00    +0.000 S 
ATOM     18  O   UNL     1      -1.203  11.627  18.382  0.00  0.00    +0.000 OA
ATOM     19  O   UNL     1       0.519  10.854  20.085  0.00  0.00    +0.000 OA
BRANCH  17  20
ATOM     20  N   UNL     1       1.280  12.154  18.036  0.00  0.00    +0.000 N 
ATOM     21  H   UNL     1       2.141  11.619  17.974  0.00  0.00    +0.000 HD
BRANCH  20  22
ATOM     22  C   UNL     1       1.483  13.366  18.799  0.00  0.00    +0.000 A 
ATOM     23  C   UNL     1       0.503  14.362  18.776  0.00  0.00    +0.000 A 
ATOM     24  C   UNL     1       0.727  15.587  19.420  0.00  0.00    +0.000 A 
ATOM     25  C   UNL     1       1.936  15.813  20.076  0.00  0.00    +0.000 A 
ATOM     26 CL   UNL     1       2.213  17.323  20.847  0.00  0.00    +0.000 Cl
ATOM     27  C   UNL     1       2.921  14.828  20.094  0.00  0.00    +0.000 A 
ATOM     28  C   UNL     1       2.696  13.604  19.448  0.00  0.00    +0.000 A 
ENDBRANCH  20  22
ENDBRANCH  17  20
ENDBRANCH  15  17
ENDBRANCH  14  15
ENDBRANCH  13  14
ENDBRANCH   3  13
BRANCH   5  29
ATOM     29  C   UNL     1       2.407   3.364  17.765  0.00  0.00    +0.000 C 
BRANCH  29  30
ATOM     30  C   UNL     1       2.310   2.975  19.219  0.00  0.00    +0.000 A 
ATOM     31  C   UNL     1       1.106   3.072  19.923  0.00  0.00    +0.000 A 
ATOM     32  C   UNL     1       1.080   2.811  21.290  0.00  0.00    +0.000 A 
ATOM     33  C   UNL     1       2.265   2.454  21.912  0.00  0.00    +0.000 A 
ATOM     34  N   UNL     1       3.442   2.328  21.267  0.00  0.00    +0.000 NA
ATOM     35  C   UNL     1       3.438   2.592  19.940  0.00  0.00    +0.000 A 
ENDBRANCH  29  30
ENDBRANCH   5  29
TORSDOF 12
ENDMDL
MODEL 9
REMARK VINA RESULT:      -7.9      2.110      2.648
REMARK  Name = 
REMARK  12 active torsions:
REMARK  status: ('A' for Active; 'I' for Inactive)
REMARK    1  A    between atoms: C_2  and  O_3
REMARK    2  A    between atoms: C_2  and  C_4
REMARK    3  A    between atoms: C_4  and  C_5
REMARK    4  A    between atoms: C_5  and  C_6
REMARK    5  A    between atoms: C_8  and  C_9
REMARK    6  A    between atoms: C_9  and  C_10
REMARK    7  A    between atoms: C_10  and  N_11
REMARK    8  A    between atoms: N_11  and  S_12
REMARK    9  A    between atoms: S_12  and  N_15
REMARK   10  A    between atoms: N_15  and  C_16
REMARK   11  A    between atoms: C_24  and  C_25
REMARK   12  A    between atoms: C_25  and  C_26
REMARK                            x       y       z     vdW  Elec       q    Type
REMARK                         _______ _______ _______ _____ _____    ______ ____
ROOT
ATOM      1  C   UNL     1       4.701   6.318  16.976  0.00  0.00    +0.000 A 
ATOM      2  C   UNL     1       3.922   7.368  17.494  0.00  0.00    +0.000 A 
ATOM      3  C   UNL     1       2.672   7.124  18.076  0.00  0.00    +0.000 A 
ATOM      4  C   UNL     1       2.195   5.805  18.124  0.00  0.00    +0.000 A 
ATOM      5  C   UNL     1       2.945   4.744  17.590  0.00  0.00    +0.000 A 
ATOM      6  C   UNL     1       4.184   5.018  16.994  0.00  0.00    +0.000 A 
ENDROOT
BRANCH   1   7
ATOM      7  C   UNL     1       6.118   6.566  16.506  0.00  0.00    +0.000 C 
BRANCH   7   8
ATOM      8  C   UNL     1       7.067   6.682  17.702  0.00  0.00    +0.000 C 
BRANCH   8  10
ATOM      9  O   UNL     1       7.958   4.440  17.433  0.00  0.00    +0.000 OA
ATOM     10  C   UNL     1       7.580   5.343  18.162  0.00  0.00    +0.000 C 
BRANCH  10  11
ATOM     11  O   UNL     1       7.589   5.237  19.513  0.00  0.00    +0.000 OA
ATOM     12  H   UNL     1       8.369   5.642  19.936  0.00  0.00    +0.000 HD
ENDBRANCH  10  11
ENDBRANCH   8  10
ENDBRANCH   7   8
ENDBRANCH   1   7
BRANCH   3  13
ATOM     13  C   UNL     1       1.912   8.244  18.766  0.00  0.00    +0.000 C 
BRANCH  13  14
ATOM     14  C   UNL     1       2.034   8.097  20.287  0.00  0.00    +0.000 C 
BRANCH  14  15
ATOM     15  N   UNL     1       0.705   7.989  20.970  0.00  0.00    +0.000 NA
ATOM     16  H   UNL     1       0.769   7.387  21.792  0.00  0.00    +0.000 HD
BRANCH  15  17
ATOM     17  S   UNL     1       0.195   9.529  21.498  0.00  0.00    +0.000 S 
ATOM     18  O   UNL     1      -0.718   9.297  22.588  0.00  0.00    +0.000 OA
ATOM     19  O   UNL     1       1.375  10.357  21.609  0.00  0.00    +0.000 OA
BRANCH  17  20
ATOM     20  N   UNL     1      -0.666  10.018  20.129  0.00  0.00    +0.000 N 
ATOM     21  H   UNL     1      -0.330   9.465  19.346  0.00  0.00    +0.000 HD
BRANCH  20  22
ATOM     22  C   UNL     1      -0.512  11.432  19.864  0.00  0.00    +0.000 A 
ATOM     23  C   UNL     1      -1.278  12.352  20.583  0.00  0.00    +0.000 A 
ATOM     24  C   UNL     1      -1.224  13.716  20.268  0.00  0.00    +0.000 A 
ATOM     25  C   UNL     1      -0.409  14.153  19.225  0.00  0.00    +0.000 A 
ATOM     26 CL   UNL     1      -0.360  15.824  18.829  0.00  0.00    +0.000 Cl
ATOM     27  C   UNL     1       0.351  13.239  18.497  0.00  0.00    +0.000 A 
ATOM     28  C   UNL     1       0.294  11.875  18.813  0.00  0.00    +0.000 A 
ENDBRANCH  20  22
ENDBRANCH  17  20
ENDBRANCH  15  17
ENDBRANCH  14  15
ENDBRANCH  13  14
ENDBRANCH   3  13
BRANCH   5  29
ATOM     29  C   UNL     1       2.494   3.309  17.780  0.00  0.00    +0.000 C 
BRANCH  29  30
ATOM     30  C   UNL     1       2.351   2.955  19.239  0.00  0.00    +0.000 A 
ATOM     31  C   UNL     1       1.117   3.036  19.893  0.00  0.00    +0.000 A 
ATOM     32  C   UNL     1       1.045   2.810  21.265  0.00  0.00    +0.000 A 
ATOM     33  C   UNL     1       2.214   2.502  21.942  0.00  0.00    +0.000 A 
ATOM     34  N   UNL     1       3.419   2.393  21.346  0.00  0.00    +0.000 NA
ATOM     35  C   UNL     1       3.459   2.622  20.013  0.00  0.00    +0.000 A 
ENDBRANCH  29  30
ENDBRANCH   5  29
TORSDOF 12
ENDMDL
