MODEL 1
REMARK VINA RESULT:      -7.3      0.000      0.000
REMARK  Name = 
REMARK  11 active torsions:
REMARK  status: ('A' for Active; 'I' for Inactive)
REMARK    1  A    between atoms: C_2  and  C_3
REMARK    2  A    between atoms: C_2  and  C_6
REMARK    3  A    between atoms: C_3  and  C_4
REMARK    4  A    between atoms: C_3  and  C_5
REMARK    5  A    between atoms: C_6  and  O_7
REMARK    6  A    between atoms: C_6  and  C_8
REMARK    7  A    between atoms: C_8  and  C_9
REMARK    8  A    between atoms: C_8  and  C_10
REMARK    9  A    between atoms: C_17  and  C_18
REMARK   10  A    between atoms: C_18  and  C_19
REMARK   11  A    between atoms: C_18  and  C_20
REMARK                            x       y       z     vdW  Elec       q    Type
REMARK                         _______ _______ _______ _____ _____    ______ ____
ROOT
ATOM      1  C   UNL     1       5.044   4.143  18.755  0.00  0.00    +0.000 C 
ATOM      2  O   UNL     1       5.185   3.631  19.870  0.00  0.00    +0.000 OA
ATOM      3  N   UNL     1       5.896   5.117  18.277  0.00  0.00    +0.000 N 
ATOM      4  C   UNL     1       6.912   5.632  19.081  0.00  0.00    +0.000 C 
ATOM      5  O   UNL     1       7.472   5.080  20.027  0.00  0.00    +0.000 OA
ATOM      6  O   UNL     1       7.482   6.744  18.521  0.00  0.00    +0.000 OA
ATOM      7  C   UNL     1       7.169   6.667  17.135  0.00  0.00    +0.000 C 
ATOM      8  C   UNL     1       6.510   5.290  16.983  0.00  0.00    +0.000 C 
ENDROOT
BRANCH   8   9
ATOM      9  C   UNL     1       5.739   5.128  15.671  0.00  0.00    +0.000 C 
ATOM     10  C   UNL     1       5.153   6.449  15.189  0.00  0.00    +0.000 C 
ATOM     11  C   UNL     1       6.680   4.518  14.628  0.00  0.00    +0.000 C 
ENDBRANCH   8   9
BRANCH   1  12
ATOM     12  C   UNL     1       3.890   3.667  17.857  0.00  0.00    +0.000 C 
ATOM     13  C   UNL     1       3.638   2.197  18.192  0.00  0.00    +0.000 C 
BRANCH  12  14
ATOM     14  C   UNL     1       2.579   4.508  17.837  0.00  0.00    +0.000 C 
BRANCH  14  16
ATOM     15  C   UNL     1       1.559   4.481  20.097  0.00  0.00    +0.000 C 
ATOM     16  C   UNL     1       2.207   5.203  19.162  0.00  0.00    +0.000 C 
BRANCH  16  17
ATOM     17  C   UNL     1       2.685   6.664  19.357  0.00  0.00    +0.000 C 
ATOM     18  C   UNL     1       2.921   7.456  18.058  0.00  0.00    +0.000 C 
ATOM     19  C   UNL     1       1.836   7.586  20.262  0.00  0.00    +0.000 C 
ENDBRANCH  16  17
ENDBRANCH  14  16
BRANCH  14  20
ATOM     20  O   UNL     1       1.482   3.771  17.314  0.00  0.00    +0.000 OA
ATOM     21  H   UNL     1       1.618   2.829  17.509  0.00  0.00    +0.000 HD
ENDBRANCH  14  20
ENDBRANCH  12  14
ENDBRANCH   1  12
TORSDOF 6
ENDMDL
MODEL 2
REMARK VINA RESULT:      -7.2      1.201      1.810
REMARK  Name = 
REMARK  11 active torsions:
REMARK  status: ('A' for Active; 'I' for Inactive)
REMARK    1  A    between atoms: C_2  and  C_3
REMARK    2  A    between atoms: C_2  and  C_6
REMARK    3  A    between atoms: C_3  and  C_4
REMARK    4  A    between atoms: C_3  and  C_5
REMARK    5  A    between atoms: C_6  and  O_7
REMARK    6  A    between atoms: C_6  and  C_8
REMARK    7  A    between atoms: C_8  and  C_9
REMARK    8  A    between atoms: C_8  and  C_10
REMARK    9  A    between atoms: C_17  and  C_18
REMARK   10  A    between atoms: C_18  and  C_19
REMARK   11  A    between atoms: C_18  and  C_20
REMARK                            x       y       z     vdW  Elec       q    Type
REMARK                         _______ _______ _______ _____ _____    ______ ____
ROOT
ATOM      1  C   UNL     1       4.800   3.959  18.841  0.00  0.00    +0.000 C 
ATOM      2  O   UNL     1       4.956   3.534  19.990  0.00  0.00    +0.000 OA
ATOM      3  N   UNL     1       5.621   4.923  18.293  0.00  0.00    +0.000 N 
ATOM      4  C   UNL     1       6.620   5.525  19.056  0.00  0.00    +0.000 C 
ATOM      5  O   UNL     1       7.197   5.060  20.037  0.00  0.00    +0.000 OA
ATOM      6  O   UNL     1       7.156   6.611  18.415  0.00  0.00    +0.000 OA
ATOM      7  C   UNL     1       6.846   6.424  17.040  0.00  0.00    +0.000 C 
ATOM      8  C   UNL     1       6.230   5.021  16.989  0.00  0.00    +0.000 C 
ENDROOT
BRANCH   8   9
ATOM      9  C   UNL     1       5.464   4.741  15.693  0.00  0.00    +0.000 C 
ATOM     10  C   UNL     1       5.132   6.023  14.941  0.00  0.00    +0.000 C 
ATOM     11  C   UNL     1       6.299   3.786  14.834  0.00  0.00    +0.000 C 
ENDBRANCH   8   9
BRANCH   1  12
ATOM     12  C   UNL     1       3.661   3.384  17.982  0.00  0.00    +0.000 C 
ATOM     13  C   UNL     1       3.681   1.867  18.169  0.00  0.00    +0.000 C 
BRANCH  12  14
ATOM     14  C   UNL     1       2.236   3.988  18.150  0.00  0.00    +0.000 C 
BRANCH  14  16
ATOM     15  C   UNL     1       0.663   2.201  18.844  0.00  0.00    +0.000 C 
ATOM     16  C   UNL     1       1.338   3.309  19.205  0.00  0.00    +0.000 C 
BRANCH  16  17
ATOM     17  C   UNL     1       1.348   3.904  20.635  0.00  0.00    +0.000 C 
ATOM     18  C   UNL     1       1.996   3.015  21.711  0.00  0.00    +0.000 C 
ATOM     19  C   UNL     1       1.961   5.310  20.828  0.00  0.00    +0.000 C 
ENDBRANCH  16  17
ENDBRANCH  14  16
BRANCH  14  20
ATOM     20  O   UNL     1       1.562   4.118  16.905  0.00  0.00    +0.000 OA
ATOM     21  H   UNL     1       0.660   3.770  17.001  0.00  0.00    +0.000 HD
ENDBRANCH  14  20
ENDBRANCH  12  14
ENDBRANCH   1  12
TORSDOF 6
ENDMDL
MODEL 3
REMARK VINA RESULT:      -7.1      0.546      1.410
REMARK  Name = 
REMARK  11 active torsions:
REMARK  status: ('A' for Active; 'I' for Inactive)
REMARK    1  A    between atoms: C_2  and  C_3
REMARK    2  A    between atoms: C_2  and  C_6
REMARK    3  A    between atoms: C_3  and  C_4
REMARK    4  A    between atoms: C_3  and  C_5
REMARK    5  A    between atoms: C_6  and  O_7
REMARK    6  A    between atoms: C_6  and  C_8
REMARK    7  A    between atoms: C_8  and  C_9
REMARK    8  A    between atoms: C_8  and  C_10
REMARK    9  A    between atoms: C_17  and  C_18
REMARK   10  A    between atoms: C_18  and  C_19
REMARK   11  A    between atoms: C_18  and  C_20
REMARK                            x       y       z     vdW  Elec       q    Type
REMARK                         _______ _______ _______ _____ _____    ______ ____
ROOT
ATOM      1  C   UNL     1       5.151   4.087  18.691  0.00  0.00    +0.000 C 
ATOM      2  O   UNL     1       5.247   3.603  19.824  0.00  0.00    +0.000 OA
ATOM      3  N   UNL     1       5.998   5.077  18.238  0.00  0.00    +0.000 N 
ATOM      4  C   UNL     1       6.955   5.639  19.083  0.00  0.00    +0.000 C 
ATOM      5  O   UNL     1       7.479   5.123  20.068  0.00  0.00    +0.000 OA
ATOM      6  O   UNL     1       7.521   6.756  18.528  0.00  0.00    +0.000 OA
ATOM      7  C   UNL     1       7.285   6.640  17.130  0.00  0.00    +0.000 C 
ATOM      8  C   UNL     1       6.675   5.242  16.974  0.00  0.00    +0.000 C 
ENDROOT
BRANCH   8   9
ATOM      9  C   UNL     1       5.980   5.030  15.627  0.00  0.00    +0.000 C 
ATOM     10  C   UNL     1       5.122   6.226  15.236  0.00  0.00    +0.000 C 
ATOM     11  C   UNL     1       7.049   4.736  14.571  0.00  0.00    +0.000 C 
ENDBRANCH   8   9
BRANCH   1  12
ATOM     12  C   UNL     1       4.060   3.559  17.745  0.00  0.00    +0.000 C 
ATOM     13  C   UNL     1       3.701   2.150  18.218  0.00  0.00    +0.000 C 
BRANCH  12  14
ATOM     14  C   UNL     1       2.804   4.446  17.503  0.00  0.00    +0.000 C 
BRANCH  14  16
ATOM     15  C   UNL     1       2.677   6.838  18.146  0.00  0.00    +0.000 C 
ATOM     16  C   UNL     1       2.554   5.556  18.544  0.00  0.00    +0.000 C 
BRANCH  16  17
ATOM     17  C   UNL     1       2.091   5.116  19.955  0.00  0.00    +0.000 C 
ATOM     18  C   UNL     1       1.566   6.248  20.856  0.00  0.00    +0.000 C 
ATOM     19  C   UNL     1       1.043   3.984  20.050  0.00  0.00    +0.000 C 
ENDBRANCH  16  17
ENDBRANCH  14  16
BRANCH  14  20
ATOM     20  O   UNL     1       1.634   3.666  17.289  0.00  0.00    +0.000 OA
ATOM     21  H   UNL     1       1.723   2.832  17.780  0.00  0.00    +0.000 HD
ENDBRANCH  14  20
ENDBRANCH  12  14
ENDBRANCH   1  12
TORSDOF 6
ENDMDL
MODEL 4
REMARK VINA RESULT:      -6.6      2.064      5.314
REMARK  Name = 
REMARK  11 active torsions:
REMARK  status: ('A' for Active; 'I' for Inactive)
REMARK    1  A    between atoms: C_2  and  C_3
REMARK    2  A    between atoms: C_2  and  C_6
REMARK    3  A    between atoms: C_3  and  C_4
REMARK    4  A    between atoms: C_3  and  C_5
REMARK    5  A    between atoms: C_6  and  O_7
REMARK    6  A    between atoms: C_6  and  C_8
REMARK    7  A    between atoms: C_8  and  C_9
REMARK    8  A    between atoms: C_8  and  C_10
REMARK    9  A    between atoms: C_17  and  C_18
REMARK   10  A    between atoms: C_18  and  C_19
REMARK   11  A    between atoms: C_18  and  C_20
REMARK                            x       y       z     vdW  Elec       q    Type
REMARK                         _______ _______ _______ _____ _____    ______ ____
ROOT
ATOM      1  C   UNL     1       4.502   3.623  19.578  0.00  0.00    +0.000 C 
ATOM      2  O   UNL     1       5.167   2.695  20.049  0.00  0.00    +0.000 OA
ATOM      3  N   UNL     1       3.215   3.894  19.996  0.00  0.00    +0.000 N 
ATOM      4  C   UNL     1       2.575   3.066  20.916  0.00  0.00    +0.000 C 
ATOM      5  O   UNL     1       3.096   2.345  21.765  0.00  0.00    +0.000 OA
ATOM      6  O   UNL     1       1.240   3.359  21.014  0.00  0.00    +0.000 OA
ATOM      7  C   UNL     1       1.112   4.688  20.522  0.00  0.00    +0.000 C 
ATOM      8  C   UNL     1       2.562   5.142  20.309  0.00  0.00    +0.000 C 
ENDROOT
BRANCH   8   9
ATOM      9  C   UNL     1       2.684   6.387  19.426  0.00  0.00    +0.000 C 
ATOM     10  C   UNL     1       2.116   6.153  18.033  0.00  0.00    +0.000 C 
ATOM     11  C   UNL     1       1.981   7.551  20.131  0.00  0.00    +0.000 C 
ENDBRANCH   8   9
BRANCH   1  12
ATOM     12  C   UNL     1       5.133   4.522  18.501  0.00  0.00    +0.000 C 
ATOM     13  C   UNL     1       6.257   5.307  19.176  0.00  0.00    +0.000 C 
BRANCH  12  14
ATOM     14  C   UNL     1       5.584   3.861  17.165  0.00  0.00    +0.000 C 
BRANCH  14  16
ATOM     15  C   UNL     1       5.121   6.035  16.066  0.00  0.00    +0.000 C 
ATOM     16  C   UNL     1       5.616   4.788  15.934  0.00  0.00    +0.000 C 
BRANCH  16  17
ATOM     17  C   UNL     1       6.298   4.246  14.653  0.00  0.00    +0.000 C 
ATOM     18  C   UNL     1       5.339   3.860  13.512  0.00  0.00    +0.000 C 
ATOM     19  C   UNL     1       7.400   5.112  14.001  0.00  0.00    +0.000 C 
ENDBRANCH  16  17
ENDBRANCH  14  16
BRANCH  14  20
ATOM     20  O   UNL     1       4.863   2.666  16.893  0.00  0.00    +0.000 OA
ATOM     21  H   UNL     1       4.297   2.463  17.657  0.00  0.00    +0.000 HD
ENDBRANCH  14  20
ENDBRANCH  12  14
ENDBRANCH   1  12
TORSDOF 6
ENDMDL
MODEL 5
REMARK VINA RESULT:      -6.5      1.862      5.010
REMARK  Name = 
REMARK  11 active torsions:
REMARK  status: ('A' for Active; 'I' for Inactive)
REMARK    1  A    between atoms: C_2  and  C_3
REMARK    2  A    between atoms: C_2  and  C_6
REMARK    3  A    between atoms: C_3  and  C_4
REMARK    4  A    between atoms: C_3  and  C_5
REMARK    5  A    between atoms: C_6  and  O_7
REMARK    6  A    between atoms: C_6  and  C_8
REMARK    7  A    between atoms: C_8  and  C_9
REMARK    8  A    between atoms: C_8  and  C_10
REMARK    9  A    between atoms: C_17  and  C_18
REMARK   10  A    between atoms: C_18  and  C_19
REMARK   11  A    between atoms: C_18  and  C_20
REMARK                            x       y       z     vdW  Elec       q    Type
REMARK                         _______ _______ _______ _____ _____    ______ ____
ROOT
ATOM      1  C   UNL     1       4.288   2.743  19.779  0.00  0.00    +0.000 C 
ATOM      2  O   UNL     1       4.928   1.978  20.507  0.00  0.00    +0.000 OA
ATOM      3  N   UNL     1       3.013   3.167  20.095  0.00  0.00    +0.000 N 
ATOM      4  C   UNL     1       2.357   2.674  21.221  0.00  0.00    +0.000 C 
ATOM      5  O   UNL     1       2.863   2.224  22.247  0.00  0.00    +0.000 OA
ATOM      6  O   UNL     1       1.032   3.025  21.225  0.00  0.00    +0.000 OA
ATOM      7  C   UNL     1       0.941   4.149  20.358  0.00  0.00    +0.000 C 
ATOM      8  C   UNL     1       2.402   4.472  20.019  0.00  0.00    +0.000 C 
ENDROOT
BRANCH   8   9
ATOM      9  C   UNL     1       2.554   5.390  18.803  0.00  0.00    +0.000 C 
ATOM     10  C   UNL     1       1.480   5.129  17.756  0.00  0.00    +0.000 C 
ATOM     11  C   UNL     1       2.525   6.843  19.288  0.00  0.00    +0.000 C 
ENDBRANCH   8   9
BRANCH   1  12
ATOM     12  C   UNL     1       4.936   3.256  18.483  0.00  0.00    +0.000 C 
ATOM     13  C   UNL     1       3.932   3.018  17.355  0.00  0.00    +0.000 C 
BRANCH  12  14
ATOM     14  C   UNL     1       5.515   4.702  18.473  0.00  0.00    +0.000 C 
BRANCH  14  16
ATOM     15  C   UNL     1       7.792   4.501  17.510  0.00  0.00    +0.000 C 
ATOM     16  C   UNL     1       6.550   5.004  17.370  0.00  0.00    +0.000 C 
BRANCH  16  17
ATOM     17  C   UNL     1       6.058   5.795  16.131  0.00  0.00    +0.000 C 
ATOM     18  C   UNL     1       5.755   4.942  14.887  0.00  0.00    +0.000 C 
ATOM     19  C   UNL     1       4.836   6.726  16.309  0.00  0.00    +0.000 C 
ENDBRANCH  16  17
ENDBRANCH  14  16
BRANCH  14  20
ATOM     20  O   UNL     1       5.996   5.091  19.753  0.00  0.00    +0.000 OA
ATOM     21  H   UNL     1       5.235   5.274  20.329  0.00  0.00    +0.000 HD
ENDBRANCH  14  20
ENDBRANCH  12  14
ENDBRANCH   1  12
TORSDOF 6
ENDMDL
MODEL 6
REMARK VINA RESULT:      -6.4      1.536      2.285
REMARK  Name = 
REMARK  11 active torsions:
REMARK  status: ('A' for Active; 'I' for Inactive)
REMARK    1  A    between atoms: C_2  and  C_3
REMARK    2  A    between atoms: C_2  and  C_6
REMARK    3  A    between atoms: C_3  and  C_4
REMARK    4  A    between atoms: C_3  and  C_5
REMARK    5  A    between atoms: C_6  and  O_7
REMARK    6  A    between atoms: C_6  and  C_8
REMARK    7  A    between atoms: C_8  and  C_9
REMARK    8  A    between atoms: C_8  and  C_10
REMARK    9  A    between atoms: C_17  and  C_18
REMARK   10  A    between atoms: C_18  and  C_19
REMARK   11  A    between atoms: C_18  and  C_20
REMARK                            x       y       z     vdW  Elec       q    Type
REMARK                         _______ _______ _______ _____ _____    ______ ____
ROOT
ATOM      1  C   UNL     1       5.605   4.738  19.166  0.00  0.00    +0.000 C 
ATOM      2  O   UNL     1       5.970   4.232  20.232  0.00  0.00    +0.000 OA
ATOM      3  N   UNL     1       6.393   5.626  18.463  0.00  0.00    +0.000 N 
ATOM      4  C   UNL     1       7.613   6.059  18.980  0.00  0.00    +0.000 C 
ATOM      5  O   UNL     1       8.338   5.473  19.781  0.00  0.00    +0.000 OA
ATOM      6  O   UNL     1       8.119   7.109  18.259  0.00  0.00    +0.000 OA
ATOM      7  C   UNL     1       7.473   7.039  16.993  0.00  0.00    +0.000 C 
ATOM      8  C   UNL     1       6.685   5.725  17.054  0.00  0.00    +0.000 C 
ENDROOT
BRANCH   8   9
ATOM      9  C   UNL     1       5.607   5.613  15.973  0.00  0.00    +0.000 C 
ATOM     10  C   UNL     1       4.971   6.962  15.664  0.00  0.00    +0.000 C 
ATOM     11  C   UNL     1       6.237   4.990  14.724  0.00  0.00    +0.000 C 
ENDBRANCH   8   9
BRANCH   1  12
ATOM     12  C   UNL     1       4.231   4.353  18.591  0.00  0.00    +0.000 C 
ATOM     13  C   UNL     1       4.239   2.838  18.388  0.00  0.00    +0.000 C 
BRANCH  12  14
ATOM     14  C   UNL     1       2.957   4.850  19.335  0.00  0.00    +0.000 C 
BRANCH  14  16
ATOM     15  C   UNL     1       1.254   4.746  17.536  0.00  0.00    +0.000 C 
ATOM     16  C   UNL     1       1.611   4.349  18.773  0.00  0.00    +0.000 C 
BRANCH  16  17
ATOM     17  C   UNL     1       0.806   3.350  19.642  0.00  0.00    +0.000 C 
ATOM     18  C   UNL     1       0.580   1.966  19.008  0.00  0.00    +0.000 C 
ATOM     19  C   UNL     1       1.307   3.077  21.078  0.00  0.00    +0.000 C 
ENDBRANCH  16  17
ENDBRANCH  14  16
BRANCH  14  20
ATOM     20  O   UNL     1       2.955   6.262  19.501  0.00  0.00    +0.000 OA
ATOM     21  H   UNL     1       2.489   6.663  18.748  0.00  0.00    +0.000 HD
ENDBRANCH  14  20
ENDBRANCH  12  14
ENDBRANCH   1  12
TORSDOF 6
ENDMDL
MODEL 7
REMARK VINA RESULT:      -6.1      1.847      5.436
REMARK  Name = 
REMARK  11 active torsions:
REMARK  status: ('A' for Active; 'I' for Inactive)
REMARK    1  A    between atoms: C_2  and  C_3
REMARK    2  A    between atoms: C_2  and  C_6
REMARK    3  A    between atoms: C_3  and  C_4
REMARK    4  A    between atoms: C_3  and  C_5
REMARK    5  A    between atoms: C_6  and  O_7
REMARK    6  A    between atoms: C_6  and  C_8
REMARK    7  A    between atoms: C_8  and  C_9
REMARK    8  A    between atoms: C_8  and  C_10
REMARK    9  A    between atoms: C_17  and  C_18
REMARK   10  A    between atoms: C_18  and  C_19
REMARK   11  A    between atoms: C_18  and  C_20
REMARK                            x       y       z     vdW  Elec       q    Type
REMARK                         _______ _______ _______ _____ _____    ______ ____
ROOT
ATOM      1  C   UNL     1       6.074   5.619  17.118  0.00  0.00    +0.000 C 
ATOM      2  O   UNL     1       7.075   6.305  17.348  0.00  0.00    +0.000 OA
ATOM      3  N   UNL     1       5.529   4.770  18.060  0.00  0.00    +0.000 N 
ATOM      4  C   UNL     1       6.147   4.586  19.295  0.00  0.00    +0.000 C 
ATOM      5  O   UNL     1       6.890   5.368  19.886  0.00  0.00    +0.000 OA
ATOM      6  O   UNL     1       5.596   3.537  19.982  0.00  0.00    +0.000 OA
ATOM      7  C   UNL     1       4.308   3.350  19.408  0.00  0.00    +0.000 C 
ATOM      8  C   UNL     1       4.159   4.534  18.445  0.00  0.00    +0.000 C 
ENDROOT
BRANCH   8   9
ATOM      9  C   UNL     1       3.031   4.350  17.427  0.00  0.00    +0.000 C 
ATOM     10  C   UNL     1       2.633   2.888  17.278  0.00  0.00    +0.000 C 
ATOM     11  C   UNL     1       1.842   5.214  17.860  0.00  0.00    +0.000 C 
ENDBRANCH   8   9
BRANCH   1  12
ATOM     12  C   UNL     1       5.397   5.725  15.741  0.00  0.00    +0.000 C 
ATOM     13  C   UNL     1       4.841   7.144  15.623  0.00  0.00    +0.000 C 
BRANCH  12  14
ATOM     14  C   UNL     1       6.214   5.298  14.486  0.00  0.00    +0.000 C 
BRANCH  14  16
ATOM     15  C   UNL     1       5.608   2.913  14.799  0.00  0.00    +0.000 C 
ATOM     16  C   UNL     1       5.900   3.896  13.925  0.00  0.00    +0.000 C 
BRANCH  16  17
ATOM     17  C   UNL     1       5.858   3.741  12.384  0.00  0.00    +0.000 C 
ATOM     18  C   UNL     1       6.942   2.825  11.787  0.00  0.00    +0.000 C 
ATOM     19  C   UNL     1       4.527   3.289  11.741  0.00  0.00    +0.000 C 
ENDBRANCH  16  17
ENDBRANCH  14  16
BRANCH  14  20
ATOM     20  O   UNL     1       7.612   5.477  14.675  0.00  0.00    +0.000 OA
ATOM     21  H   UNL     1       8.077   5.150  13.887  0.00  0.00    +0.000 HD
ENDBRANCH  14  20
ENDBRANCH  12  14
ENDBRANCH   1  12
TORSDOF 6
ENDMDL
MODEL 8
REMARK VINA RESULT:      -6.1      1.925      3.379
REMARK  Name = 
REMARK  11 active torsions:
REMARK  status: ('A' for Active; 'I' for Inactive)
REMARK    1  A    between atoms: C_2  and  C_3
REMARK    2  A    between atoms: C_2  and  C_6
REMARK    3  A    between atoms: C_3  and  C_4
REMARK    4  A    between atoms: C_3  and  C_5
REMARK    5  A    between atoms: C_6  and  O_7
REMARK    6  A    between atoms: C_6  and  C_8
REMARK    7  A    between atoms: C_8  and  C_9
REMARK    8  A    between atoms: C_8  and  C_10
REMARK    9  A    between atoms: C_17  and  C_18
REMARK   10  A    between atoms: C_18  and  C_19
REMARK   11  A    between atoms: C_18  and  C_20
REMARK                            x       y       z     vdW  Elec       q    Type
REMARK                         _______ _______ _______ _____ _____    ______ ____
ROOT
ATOM      1  C   UNL     1       5.134   4.041  16.788  0.00  0.00    +0.000 C 
ATOM      2  O   UNL     1       5.734   3.269  16.033  0.00  0.00    +0.000 OA
ATOM      3  N   UNL     1       5.547   5.341  16.994  0.00  0.00    +0.000 N 
ATOM      4  C   UNL     1       6.723   5.815  16.416  0.00  0.00    +0.000 C 
ATOM      5  O   UNL     1       7.274   5.409  15.395  0.00  0.00    +0.000 OA
ATOM      6  O   UNL     1       7.081   7.034  16.931  0.00  0.00    +0.000 OA
ATOM      7  C   UNL     1       5.886   7.571  17.484  0.00  0.00    +0.000 C 
ATOM      8  C   UNL     1       4.801   6.575  17.055  0.00  0.00    +0.000 C 
ENDROOT
BRANCH   8   9
ATOM      9  C   UNL     1       3.498   6.718  17.845  0.00  0.00    +0.000 C 
ATOM     10  C   UNL     1       3.691   6.399  19.322  0.00  0.00    +0.000 C 
ATOM     11  C   UNL     1       2.963   8.139  17.643  0.00  0.00    +0.000 C 
ENDBRANCH   8   9
BRANCH   1  12
ATOM     12  C   UNL     1       3.872   3.543  17.513  0.00  0.00    +0.000 C 
ATOM     13  C   UNL     1       2.979   2.889  16.459  0.00  0.00    +0.000 C 
BRANCH  12  14
ATOM     14  C   UNL     1       4.054   2.653  18.778  0.00  0.00    +0.000 C 
BRANCH  14  16
ATOM     15  C   UNL     1       3.298   2.481  21.134  0.00  0.00    +0.000 C 
ATOM     16  C   UNL     1       2.972   2.803  19.867  0.00  0.00    +0.000 C 
BRANCH  16  17
ATOM     17  C   UNL     1       1.609   3.401  19.436  0.00  0.00    +0.000 C 
ATOM     18  C   UNL     1       0.559   2.374  18.975  0.00  0.00    +0.000 C 
ATOM     19  C   UNL     1       0.880   4.327  20.436  0.00  0.00    +0.000 C 
ENDBRANCH  16  17
ENDBRANCH  14  16
BRANCH  14  20
ATOM     20  O   UNL     1       5.360   2.771  19.328  0.00  0.00    +0.000 OA
ATOM     21  H   UNL     1       5.969   3.056  18.626  0.00  0.00    +0.000 HD
ENDBRANCH  14  20
ENDBRANCH  12  14
ENDBRANCH   1  12
TORSDOF 6
ENDMDL
MODEL 9
REMARK VINA RESULT:      -6.1      2.102      3.753
REMARK  Name = 
REMARK  11 active torsions:
REMARK  status: ('A' for Active; 'I' for Inactive)
REMARK    1  A    between atoms: C_2  and  C_3
REMARK    2  A    between atoms: C_2  and  C_6
REMARK    3  A    between atoms: C_3  and  C_4
REMARK    4  A    between atoms: C_3  and  C_5
REMARK    5  A    between atoms: C_6  and  O_7
REMARK    6  A    between atoms: C_6  and  C_8
REMARK    7  A    between atoms: C_8  and  C_9
REMARK    8  A    between atoms: C_8  and  C_10
REMARK    9  A    between atoms: C_17  and  C_18
REMARK   10  A    between atoms: C_18  and  C_19
REMARK   11  A    between atoms: C_18  and  C_20
REMARK                            x       y       z     vdW  Elec       q    Type
REMARK                         _______ _______ _______ _____ _____    ______ ____
ROOT
ATOM      1  C   UNL     1       4.053   5.102  17.461  0.00  0.00    +0.000 C 
ATOM      2  O   UNL     1       3.056   4.716  16.843  0.00  0.00    +0.000 OA
ATOM      3  N   UNL     1       5.336   4.861  17.013  0.00  0.00    +0.000 N 
ATOM      4  C   UNL     1       5.561   4.087  15.876  0.00  0.00    +0.000 C 
ATOM      5  O   UNL     1       4.798   3.908  14.929  0.00  0.00    +0.000 OA
ATOM      6  O   UNL     1       6.886   3.766  15.740  0.00  0.00    +0.000 OA
ATOM      7  C   UNL     1       7.586   4.731  16.515  0.00  0.00    +0.000 C 
ATOM      8  C   UNL     1       6.494   5.718  16.947  0.00  0.00    +0.000 C 
ENDROOT
BRANCH   8   9
ATOM      9  C   UNL     1       6.921   6.628  18.102  0.00  0.00    +0.000 C 
ATOM     10  C   UNL     1       7.756   5.881  19.134  0.00  0.00    +0.000 C 
ATOM     11  C   UNL     1       7.683   7.823  17.522  0.00  0.00    +0.000 C 
ENDBRANCH   8   9
BRANCH   1  12
ATOM     12  C   UNL     1       3.863   5.893  18.766  0.00  0.00    +0.000 C 
ATOM     13  C   UNL     1       2.803   6.960  18.491  0.00  0.00    +0.000 C 
BRANCH  12  14
ATOM     14  C   UNL     1       3.584   5.096  20.074  0.00  0.00    +0.000 C 
BRANCH  14  16
ATOM     15  C   UNL     1       4.259   2.731  19.758  0.00  0.00    +0.000 C 
ATOM     16  C   UNL     1       3.241   3.604  19.893  0.00  0.00    +0.000 C 
BRANCH  16  17
ATOM     17  C   UNL     1       1.746   3.204  19.968  0.00  0.00    +0.000 C 
ATOM     18  C   UNL     1       1.270   2.237  18.869  0.00  0.00    +0.000 C 
ATOM     19  C   UNL     1       1.223   2.616  21.299  0.00  0.00    +0.000 C 
ENDBRANCH  16  17
ENDBRANCH  14  16
BRANCH  14  20
ATOM     20  O   UNL     1       2.629   5.749  20.901  0.00  0.00    +0.000 OA
ATOM     21  H   UNL     1       2.710   6.709  20.774  0.00  0.00    +0.000 HD
ENDBRANCH  14  20
ENDBRANCH  12  14
ENDBRANCH   1  12
TORSDOF 6
ENDMDL
