MODEL 1
REMARK VINA RESULT:      -8.2      0.000      0.000
REMARK  Name = 
REMARK  3 active torsions:
REMARK  status: ('A' for Active; 'I' for Inactive)
REMARK    1  A    between atoms: C_1  and  C_2
REMARK    2  A    between atoms: C_4  and  N_5
REMARK    3  A    between atoms: N_13  and  C_14
REMARK                            x       y       z     vdW  Elec       q    Type
REMARK                         _______ _______ _______ _____ _____    ______ ____
ROOT
ATOM      1  N   UNL     1       1.527   7.814  19.788  0.00  0.00    +0.000 N 
ATOM      2  C   UNL     1       1.754   6.836  20.899  0.00  0.00    +0.000 C 
ATOM      3  C   UNL     1       1.570   5.368  20.409  0.00  0.00    +0.000 C 
ATOM      4  N   UNL     1       2.458   5.156  19.261  0.00  0.00    +0.000 N 
ATOM      5  C   UNL     1       2.983   3.929  18.990  0.00  0.00    +0.000 A 
ATOM      6  N   UNL     1       2.500   2.730  19.233  0.00  0.00    +0.000 NA
ATOM      7  N   UNL     1       3.309   1.848  18.554  0.00  0.00    +0.000 NA
ATOM      8  N   UNL     1       4.294   2.477  17.927  0.00  0.00    +0.000 NA
ATOM      9  N   UNL     1       4.201   3.767  18.316  0.00  0.00    +0.000 N 
ATOM     10  C   UNL     1       2.140   6.048  18.132  0.00  0.00    +0.000 C 
ATOM     11  C   UNL     1       2.346   7.503  18.580  0.00  0.00    +0.000 C 
ENDROOT
BRANCH   1  15
ATOM     12  C   UNL     1       1.720  12.554  18.432  0.00  0.00    +0.000 C 
ATOM     13  C   UNL     1       1.288  11.531  19.452  0.00  0.00    +0.000 A 
ATOM     14  C   UNL     1       1.585  10.110  19.134  0.00  0.00    +0.000 A 
ATOM     15  C   UNL     1       1.224   9.173  20.030  0.00  0.00    +0.000 A 
ATOM     16  N   UNL     1       0.581   9.618  21.215  0.00  0.00    +0.000 N 
ATOM     17  N   UNL     1       0.149   8.913  22.302  0.00  0.00    +0.000 NA
ATOM     18  C   UNL     1      -0.315   9.876  23.095  0.00  0.00    +0.000 A 
ATOM     19  N   UNL     1      -0.222  11.144  22.614  0.00  0.00    +0.000 NA
ATOM     20  C   UNL     1       0.346  10.986  21.439  0.00  0.00    +0.000 A 
ATOM     21  N   UNL     1       0.701  11.948  20.534  0.00  0.00    +0.000 NA
ENDBRANCH   1  15
BRANCH   9  22
ATOM     22  C   UNL     1       5.217   4.723  18.068  0.00  0.00    +0.000 A 
ATOM     23  C   UNL     1       6.098   5.100  19.084  0.00  0.00    +0.000 A 
ATOM     24  C   UNL     1       7.147   5.980  18.795  0.00  0.00    +0.000 A 
ATOM     25  C   UNL     1       7.299   6.504  17.509  0.00  0.00    +0.000 A 
ATOM     26  C   UNL     1       6.395   6.165  16.508  0.00  0.00    +0.000 A 
ATOM     27  C   UNL     1       5.353   5.283  16.786  0.00  0.00    +0.000 A 
ENDBRANCH   9  22
TORSDOF 2
ENDMDL
MODEL 2
REMARK VINA RESULT:      -8.0      1.772      2.053
REMARK  Name = 
REMARK  3 active torsions:
REMARK  status: ('A' for Active; 'I' for Inactive)
REMARK    1  A    between atoms: C_1  and  C_2
REMARK    2  A    between atoms: C_4  and  N_5
REMARK    3  A    between atoms: N_13  and  C_14
REMARK                            x       y       z     vdW  Elec       q    Type
REMARK                         _______ _______ _______ _____ _____    ______ ____
ROOT
ATOM      1  N   UNL     1       1.585   8.816  19.039  0.00  0.00    +0.000 N 
ATOM      2  C   UNL     1       1.796   8.301  20.429  0.00  0.00    +0.000 C 
ATOM      3  C   UNL     1       1.635   6.752  20.491  0.00  0.00    +0.000 C 
ATOM      4  N   UNL     1       2.549   6.159  19.508  0.00  0.00    +0.000 N 
ATOM      5  C   UNL     1       3.090   4.924  19.701  0.00  0.00    +0.000 A 
ATOM      6  N   UNL     1       2.613   3.883  20.347  0.00  0.00    +0.000 NA
ATOM      7  N   UNL     1       3.444   2.830  20.040  0.00  0.00    +0.000 NA
ATOM      8  N   UNL     1       4.436   3.210  19.247  0.00  0.00    +0.000 NA
ATOM      9  N   UNL     1       4.323   4.552  19.150  0.00  0.00    +0.000 N 
ATOM     10  C   UNL     1       2.248   6.586  18.131  0.00  0.00    +0.000 C 
ATOM     11  C   UNL     1       2.432   8.108  18.036  0.00  0.00    +0.000 C 
ENDROOT
BRANCH   1  15
ATOM     12  C   UNL     1       2.995  13.481  18.271  0.00  0.00    +0.000 C 
ATOM     13  C   UNL     1       1.865  12.491  18.408  0.00  0.00    +0.000 A 
ATOM     14  C   UNL     1       2.249  11.074  18.636  0.00  0.00    +0.000 A 
ATOM     15  C   UNL     1       1.265  10.167  18.776  0.00  0.00    +0.000 A 
ATOM     16  N   UNL     1      -0.072  10.638  18.692  0.00  0.00    +0.000 N 
ATOM     17  N   UNL     1      -1.254   9.969  18.835  0.00  0.00    +0.000 NA
ATOM     18  C   UNL     1      -2.148  10.946  18.700  0.00  0.00    +0.000 A 
ATOM     19  N   UNL     1      -1.647  12.190  18.480  0.00  0.00    +0.000 NA
ATOM     20  C   UNL     1      -0.345  12.001  18.482  0.00  0.00    +0.000 A 
ATOM     21  N   UNL     1       0.646  12.932  18.330  0.00  0.00    +0.000 NA
ENDBRANCH   1  15
BRANCH   9  22
ATOM     22  C   UNL     1       5.337   5.373  18.594  0.00  0.00    +0.000 A 
ATOM     23  C   UNL     1       6.534   5.584  19.283  0.00  0.00    +0.000 A 
ATOM     24  C   UNL     1       7.554   6.326  18.679  0.00  0.00    +0.000 A 
ATOM     25  C   UNL     1       7.371   6.881  17.410  0.00  0.00    +0.000 A 
ATOM     26  C   UNL     1       6.163   6.710  16.742  0.00  0.00    +0.000 A 
ATOM     27  C   UNL     1       5.146   5.965  17.335  0.00  0.00    +0.000 A 
ENDBRANCH   9  22
TORSDOF 2
ENDMDL
MODEL 3
REMARK VINA RESULT:      -7.9      2.030      3.910
REMARK  Name = 
REMARK  3 active torsions:
REMARK  status: ('A' for Active; 'I' for Inactive)
REMARK    1  A    between atoms: C_1  and  C_2
REMARK    2  A    between atoms: C_4  and  N_5
REMARK    3  A    between atoms: N_13  and  C_14
REMARK                            x       y       z     vdW  Elec       q    Type
REMARK                         _______ _______ _______ _____ _____    ______ ____
ROOT
ATOM      1  N   UNL     1       2.028   8.286  19.291  0.00  0.00    +0.000 N 
ATOM      2  C   UNL     1       2.060   8.359  17.796  0.00  0.00    +0.000 C 
ATOM      3  C   UNL     1       3.423   7.857  17.232  0.00  0.00    +0.000 C 
ATOM      4  N   UNL     1       3.662   6.505  17.751  0.00  0.00    +0.000 N 
ATOM      5  C   UNL     1       4.379   5.592  17.041  0.00  0.00    +0.000 A 
ATOM      6  N   UNL     1       5.356   5.768  16.178  0.00  0.00    +0.000 NA
ATOM      7  N   UNL     1       5.879   4.520  15.933  0.00  0.00    +0.000 NA
ATOM      8  N   UNL     1       5.225   3.580  16.602  0.00  0.00    +0.000 NA
ATOM      9  N   UNL     1       4.180   4.212  17.179  0.00  0.00    +0.000 N 
ATOM     10  C   UNL     1       3.746   6.475  19.221  0.00  0.00    +0.000 C 
ATOM     11  C   UNL     1       2.401   6.935  19.802  0.00  0.00    +0.000 C 
ENDROOT
BRANCH   1  15
ATOM     12  C   UNL     1       0.064   9.462  23.662  0.00  0.00    +0.000 C 
ATOM     13  C   UNL     1       0.078   9.668  22.168  0.00  0.00    +0.000 A 
ATOM     14  C   UNL     1       1.086   8.889  21.400  0.00  0.00    +0.000 A 
ATOM     15  C   UNL     1       1.116   9.040  20.063  0.00  0.00    +0.000 A 
ATOM     16  N   UNL     1       0.179   9.938  19.487  0.00  0.00    +0.000 N 
ATOM     17  N   UNL     1      -0.049  10.255  18.179  0.00  0.00    +0.000 NA
ATOM     18  C   UNL     1      -1.071  11.103  18.269  0.00  0.00    +0.000 A 
ATOM     19  N   UNL     1      -1.523  11.363  19.524  0.00  0.00    +0.000 NA
ATOM     20  C   UNL     1      -0.746  10.628  20.289  0.00  0.00    +0.000 A 
ATOM     21  N   UNL     1      -0.783  10.491  21.649  0.00  0.00    +0.000 NA
ENDBRANCH   1  15
BRANCH   9  22
ATOM     22  C   UNL     1       3.097   3.522  17.778  0.00  0.00    +0.000 A 
ATOM     23  C   UNL     1       3.325   2.387  18.561  0.00  0.00    +0.000 A 
ATOM     24  C   UNL     1       2.251   1.773  19.213  0.00  0.00    +0.000 A 
ATOM     25  C   UNL     1       0.953   2.268  19.062  0.00  0.00    +0.000 A 
ATOM     26  C   UNL     1       0.718   3.370  18.247  0.00  0.00    +0.000 A 
ATOM     27  C   UNL     1       1.784   3.991  17.601  0.00  0.00    +0.000 A 
ENDBRANCH   9  22
TORSDOF 2
ENDMDL
MODEL 4
REMARK VINA RESULT:      -7.9      1.913      3.418
REMARK  Name = 
REMARK  3 active torsions:
REMARK  status: ('A' for Active; 'I' for Inactive)
REMARK    1  A    between atoms: C_1  and  C_2
REMARK    2  A    between atoms: C_4  and  N_5
REMARK    3  A    between atoms: N_13  and  C_14
REMARK                            x       y       z     vdW  Elec       q    Type
REMARK                         _______ _______ _______ _____ _____    ______ ____
ROOT
ATOM      1  N   UNL     1       1.561   8.747  19.295  0.00  0.00    +0.000 N 
ATOM      2  C   UNL     1       1.599   8.544  17.812  0.00  0.00    +0.000 C 
ATOM      3  C   UNL     1       2.984   8.001  17.349  0.00  0.00    +0.000 C 
ATOM      4  N   UNL     1       3.272   6.779  18.108  0.00  0.00    +0.000 N 
ATOM      5  C   UNL     1       4.029   5.779  17.578  0.00  0.00    +0.000 A 
ATOM      6  N   UNL     1       5.003   5.832  16.696  0.00  0.00    +0.000 NA
ATOM      7  N   UNL     1       5.576   4.581  16.685  0.00  0.00    +0.000 NA
ATOM      8  N   UNL     1       4.955   3.755  17.517  0.00  0.00    +0.000 NA
ATOM      9  N   UNL     1       3.883   4.441  17.969  0.00  0.00    +0.000 N 
ATOM     10  C   UNL     1       3.349   7.024  19.558  0.00  0.00    +0.000 C 
ATOM     11  C   UNL     1       1.983   7.530  20.046  0.00  0.00    +0.000 C 
ENDROOT
BRANCH   1  15
ATOM     12  C   UNL     1      -1.894  12.257  18.996  0.00  0.00    +0.000 C 
ATOM     13  C   UNL     1      -1.082  11.331  19.866  0.00  0.00    +0.000 A 
ATOM     14  C   UNL     1      -0.134  10.424  19.167  0.00  0.00    +0.000 A 
ATOM     15  C   UNL     1       0.616   9.594  19.916  0.00  0.00    +0.000 A 
ATOM     16  N   UNL     1       0.440   9.648  21.324  0.00  0.00    +0.000 N 
ATOM     17  N   UNL     1       1.081   8.969  22.319  0.00  0.00    +0.000 NA
ATOM     18  C   UNL     1       0.522   9.481  23.414  0.00  0.00    +0.000 A 
ATOM     19  N   UNL     1      -0.427  10.432  23.212  0.00  0.00    +0.000 NA
ATOM     20  C   UNL     1      -0.475  10.545  21.903  0.00  0.00    +0.000 A 
ATOM     21  N   UNL     1      -1.250  11.388  21.154  0.00  0.00    +0.000 NA
ENDBRANCH   1  15
BRANCH   9  22
ATOM     22  C   UNL     1       2.824   3.832  18.687  0.00  0.00    +0.000 A 
ATOM     23  C   UNL     1       2.919   3.647  20.069  0.00  0.00    +0.000 A 
ATOM     24  C   UNL     1       1.827   3.123  20.769  0.00  0.00    +0.000 A 
ATOM     25  C   UNL     1       0.660   2.757  20.094  0.00  0.00    +0.000 A 
ATOM     26  C   UNL     1       0.581   2.898  18.713  0.00  0.00    +0.000 A 
ATOM     27  C   UNL     1       1.661   3.427  18.009  0.00  0.00    +0.000 A 
ENDBRANCH   9  22
TORSDOF 2
ENDMDL
MODEL 5
REMARK VINA RESULT:      -7.7      2.117      3.831
REMARK  Name = 
REMARK  3 active torsions:
REMARK  status: ('A' for Active; 'I' for Inactive)
REMARK    1  A    between atoms: C_1  and  C_2
REMARK    2  A    between atoms: C_4  and  N_5
REMARK    3  A    between atoms: N_13  and  C_14
REMARK                            x       y       z     vdW  Elec       q    Type
REMARK                         _______ _______ _______ _____ _____    ______ ____
ROOT
ATOM      1  N   UNL     1       1.541   8.718  18.751  0.00  0.00    +0.000 N 
ATOM      2  C   UNL     1       2.229   8.352  17.473  0.00  0.00    +0.000 C 
ATOM      3  C   UNL     1       3.672   7.825  17.736  0.00  0.00    +0.000 C 
ATOM      4  N   UNL     1       3.585   6.711  18.686  0.00  0.00    +0.000 N 
ATOM      5  C   UNL     1       4.490   5.693  18.669  0.00  0.00    +0.000 A 
ATOM      6  N   UNL     1       5.754   5.692  18.306  0.00  0.00    +0.000 NA
ATOM      7  N   UNL     1       6.263   4.476  18.701  0.00  0.00    +0.000 NA
ATOM      8  N   UNL     1       5.331   3.721  19.268  0.00  0.00    +0.000 NA
ATOM      9  N   UNL     1       4.175   4.403  19.115  0.00  0.00    +0.000 N 
ATOM     10  C   UNL     1       3.014   7.120  19.981  0.00  0.00    +0.000 C 
ATOM     11  C   UNL     1       1.578   7.613  19.753  0.00  0.00    +0.000 C 
ENDROOT
BRANCH   1  15
ATOM     12  C   UNL     1      -2.492  10.595  16.617  0.00  0.00    +0.000 C 
ATOM     13  C   UNL     1      -1.563  10.577  17.805  0.00  0.00    +0.000 A 
ATOM     14  C   UNL     1      -0.430   9.616  17.747  0.00  0.00    +0.000 A 
ATOM     15  C   UNL     1       0.426   9.584  18.785  0.00  0.00    +0.000 A 
ATOM     16  N   UNL     1       0.176  10.475  19.863  0.00  0.00    +0.000 N 
ATOM     17  N   UNL     1       0.885  10.693  21.009  0.00  0.00    +0.000 NA
ATOM     18  C   UNL     1       0.189  11.668  21.589  0.00  0.00    +0.000 A 
ATOM     19  N   UNL     1      -0.911  12.099  20.917  0.00  0.00    +0.000 NA
ATOM     20  C   UNL     1      -0.917  11.358  19.831  0.00  0.00    +0.000 A 
ATOM     21  N   UNL     1      -1.799  11.395  18.786  0.00  0.00    +0.000 NA
ENDBRANCH   1  15
BRANCH   9  22
ATOM     22  C   UNL     1       2.903   3.829  19.362  0.00  0.00    +0.000 A 
ATOM     23  C   UNL     1       2.079   3.450  18.299  0.00  0.00    +0.000 A 
ATOM     24  C   UNL     1       0.866   2.807  18.564  0.00  0.00    +0.000 A 
ATOM     25  C   UNL     1       0.461   2.571  19.880  0.00  0.00    +0.000 A 
ATOM     26  C   UNL     1       1.259   2.989  20.940  0.00  0.00    +0.000 A 
ATOM     27  C   UNL     1       2.473   3.622  20.683  0.00  0.00    +0.000 A 
ENDBRANCH   9  22
TORSDOF 2
ENDMDL
MODEL 6
REMARK VINA RESULT:      -7.7      2.536      7.994
REMARK  Name = 
REMARK  3 active torsions:
REMARK  status: ('A' for Active; 'I' for Inactive)
REMARK    1  A    between atoms: C_1  and  C_2
REMARK    2  A    between atoms: C_4  and  N_5
REMARK    3  A    between atoms: N_13  and  C_14
REMARK                            x       y       z     vdW  Elec       q    Type
REMARK                         _______ _______ _______ _____ _____    ______ ____
ROOT
ATOM      1  N   UNL     1       1.984   8.209  19.419  0.00  0.00    +0.000 N 
ATOM      2  C   UNL     1       1.212   8.258  20.701  0.00  0.00    +0.000 C 
ATOM      3  C   UNL     1       1.030   9.723  21.199  0.00  0.00    +0.000 C 
ATOM      4  N   UNL     1       0.408  10.497  20.120  0.00  0.00    +0.000 N 
ATOM      5  C   UNL     1      -0.401  11.560  20.386  0.00  0.00    +0.000 A 
ATOM      6  N   UNL     1      -0.391  12.397  21.401  0.00  0.00    +0.000 NA
ATOM      7  N   UNL     1      -1.258  13.411  21.068  0.00  0.00    +0.000 NA
ATOM      8  N   UNL     1      -1.823  13.198  19.887  0.00  0.00    +0.000 NA
ATOM      9  N   UNL     1      -1.419  11.964  19.514  0.00  0.00    +0.000 N 
ATOM     10  C   UNL     1       1.240  10.537  18.905  0.00  0.00    +0.000 C 
ATOM     11  C   UNL     1       1.407   9.105  18.375  0.00  0.00    +0.000 C 
ENDROOT
BRANCH   1  15
ATOM     12  C   UNL     1       4.980   5.915  16.241  0.00  0.00    +0.000 C 
ATOM     13  C   UNL     1       4.082   5.821  17.449  0.00  0.00    +0.000 A 
ATOM     14  C   UNL     1       3.454   7.088  17.909  0.00  0.00    +0.000 A 
ATOM     15  C   UNL     1       2.636   7.037  18.976  0.00  0.00    +0.000 A 
ATOM     16  N   UNL     1       2.438   5.769  19.586  0.00  0.00    +0.000 N 
ATOM     17  N   UNL     1       1.645   5.411  20.637  0.00  0.00    +0.000 NA
ATOM     18  C   UNL     1       1.843   4.096  20.704  0.00  0.00    +0.000 A 
ATOM     19  N   UNL     1       2.699   3.573  19.786  0.00  0.00    +0.000 NA
ATOM     20  C   UNL     1       3.067   4.619  19.079  0.00  0.00    +0.000 A 
ATOM     21  N   UNL     1       3.907   4.657  18.000  0.00  0.00    +0.000 NA
ENDBRANCH   1  15
BRANCH   9  22
ATOM     22  C   UNL     1      -1.997  11.259  18.428  0.00  0.00    +0.000 A 
ATOM     23  C   UNL     1      -2.692  10.067  18.648  0.00  0.00    +0.000 A 
ATOM     24  C   UNL     1      -3.327   9.433  17.575  0.00  0.00    +0.000 A 
ATOM     25  C   UNL     1      -3.245   9.967  16.287  0.00  0.00    +0.000 A 
ATOM     26  C   UNL     1      -2.516  11.128  16.059  0.00  0.00    +0.000 A 
ATOM     27  C   UNL     1      -1.887  11.770  17.124  0.00  0.00    +0.000 A 
ENDBRANCH   9  22
TORSDOF 2
ENDMDL
MODEL 7
REMARK VINA RESULT:      -7.7      0.927      2.173
REMARK  Name = 
REMARK  3 active torsions:
REMARK  status: ('A' for Active; 'I' for Inactive)
REMARK    1  A    between atoms: C_1  and  C_2
REMARK    2  A    between atoms: C_4  and  N_5
REMARK    3  A    between atoms: N_13  and  C_14
REMARK                            x       y       z     vdW  Elec       q    Type
REMARK                         _______ _______ _______ _____ _____    ______ ____
ROOT
ATOM      1  N   UNL     1       1.488   7.446  19.932  0.00  0.00    +0.000 N 
ATOM      2  C   UNL     1       1.662   6.319  20.901  0.00  0.00    +0.000 C 
ATOM      3  C   UNL     1       1.559   4.937  20.189  0.00  0.00    +0.000 C 
ATOM      4  N   UNL     1       2.534   4.914  19.094  0.00  0.00    +0.000 N 
ATOM      5  C   UNL     1       3.114   3.751  18.687  0.00  0.00    +0.000 A 
ATOM      6  N   UNL     1       2.651   2.521  18.714  0.00  0.00    +0.000 NA
ATOM      7  N   UNL     1       3.534   1.764  17.978  0.00  0.00    +0.000 NA
ATOM      8  N   UNL     1       4.542   2.498  17.526  0.00  0.00    +0.000 NA
ATOM      9  N   UNL     1       4.382   3.714  18.092  0.00  0.00    +0.000 N 
ATOM     10  C   UNL     1       2.273   5.957  18.087  0.00  0.00    +0.000 C 
ATOM     11  C   UNL     1       2.402   7.333  18.758  0.00  0.00    +0.000 C 
ENDROOT
BRANCH   1  15
ATOM     12  C   UNL     1      -0.694  10.459  23.174  0.00  0.00    +0.000 C 
ATOM     13  C   UNL     1       0.062  10.304  21.878  0.00  0.00    +0.000 A 
ATOM     14  C   UNL     1       0.463   8.923  21.504  0.00  0.00    +0.000 A 
ATOM     15  C   UNL     1       1.127   8.748  20.347  0.00  0.00    +0.000 A 
ATOM     16  N   UNL     1       1.397   9.905  19.569  0.00  0.00    +0.000 N 
ATOM     17  N   UNL     1       2.004  10.028  18.353  0.00  0.00    +0.000 NA
ATOM     18  C   UNL     1       1.917  11.337  18.126  0.00  0.00    +0.000 A 
ATOM     19  N   UNL     1       1.306  12.072  19.093  0.00  0.00    +0.000 NA
ATOM     20  C   UNL     1       0.973  11.176  19.995  0.00  0.00    +0.000 A 
ATOM     21  N   UNL     1       0.304  11.369  21.173  0.00  0.00    +0.000 NA
ENDBRANCH   1  15
BRANCH   9  22
ATOM     22  C   UNL     1       5.384   4.716  18.066  0.00  0.00    +0.000 A 
ATOM     23  C   UNL     1       6.189   4.943  19.186  0.00  0.00    +0.000 A 
ATOM     24  C   UNL     1       7.228   5.875  19.109  0.00  0.00    +0.000 A 
ATOM     25  C   UNL     1       7.446   6.599  17.934  0.00  0.00    +0.000 A 
ATOM     26  C   UNL     1       6.618   6.407  16.833  0.00  0.00    +0.000 A 
ATOM     27  C   UNL     1       5.586   5.474  16.900  0.00  0.00    +0.000 A 
ENDBRANCH   9  22
TORSDOF 2
ENDMDL
MODEL 8
REMARK VINA RESULT:      -7.6      2.461      8.212
REMARK  Name = 
REMARK  3 active torsions:
REMARK  status: ('A' for Active; 'I' for Inactive)
REMARK    1  A    between atoms: C_1  and  C_2
REMARK    2  A    between atoms: C_4  and  N_5
REMARK    3  A    between atoms: N_13  and  C_14
REMARK                            x       y       z     vdW  Elec       q    Type
REMARK                         _______ _______ _______ _____ _____    ______ ____
ROOT
ATOM      1  N   UNL     1       2.145   7.586  18.970  0.00  0.00    +0.000 N 
ATOM      2  C   UNL     1       1.501   7.613  20.321  0.00  0.00    +0.000 C 
ATOM      3  C   UNL     1       1.551   9.040  20.945  0.00  0.00    +0.000 C 
ATOM      4  N   UNL     1       0.940   9.975  19.994  0.00  0.00    +0.000 N 
ATOM      5  C   UNL     1       0.300  11.099  20.420  0.00  0.00    +0.000 A 
ATOM      6  N   UNL     1       0.505  11.836  21.490  0.00  0.00    +0.000 NA
ATOM      7  N   UNL     1      -0.253  12.972  21.322  0.00  0.00    +0.000 NA
ATOM      8  N   UNL     1      -0.941  12.933  20.189  0.00  0.00    +0.000 NA
ATOM      9  N   UNL     1      -0.731  11.698  19.684  0.00  0.00    +0.000 N 
ATOM     10  C   UNL     1       1.661  10.022  18.711  0.00  0.00    +0.000 C 
ATOM     11  C   UNL     1       1.598   8.633  18.059  0.00  0.00    +0.000 C 
ENDROOT
BRANCH   1  15
ATOM     12  C   UNL     1       1.677   2.734  18.206  0.00  0.00    +0.000 C 
ATOM     13  C   UNL     1       2.462   3.999  17.961  0.00  0.00    +0.000 A 
ATOM     14  C   UNL     1       1.919   5.243  18.564  0.00  0.00    +0.000 A 
ATOM     15  C   UNL     1       2.602   6.388  18.377  0.00  0.00    +0.000 A 
ATOM     16  N   UNL     1       3.795   6.316  17.609  0.00  0.00    +0.000 N 
ATOM     17  N   UNL     1       4.701   7.287  17.295  0.00  0.00    +0.000 NA
ATOM     18  C   UNL     1       5.615   6.607  16.607  0.00  0.00    +0.000 A 
ATOM     19  N   UNL     1       5.377   5.278  16.448  0.00  0.00    +0.000 NA
ATOM     20  C   UNL     1       4.241   5.092  17.081  0.00  0.00    +0.000 A 
ATOM     21  N   UNL     1       3.552   3.923  17.258  0.00  0.00    +0.000 NA
ENDBRANCH   1  15
BRANCH   9  22
ATOM     22  C   UNL     1      -1.486  11.165  18.610  0.00  0.00    +0.000 A 
ATOM     23  C   UNL     1      -2.151   9.944  18.748  0.00  0.00    +0.000 A 
ATOM     24  C   UNL     1      -2.960   9.479  17.706  0.00  0.00    +0.000 A 
ATOM     25  C   UNL     1      -3.083  10.211  16.522  0.00  0.00    +0.000 A 
ATOM     26  C   UNL     1      -2.386  11.404  16.366  0.00  0.00    +0.000 A 
ATOM     27  C   UNL     1      -1.584  11.877  17.402  0.00  0.00    +0.000 A 
ENDBRANCH   9  22
TORSDOF 2
ENDMDL
MODEL 9
REMARK VINA RESULT:      -7.6      2.576      8.246
REMARK  Name = 
REMARK  3 active torsions:
REMARK  status: ('A' for Active; 'I' for Inactive)
REMARK    1  A    between atoms: C_1  and  C_2
REMARK    2  A    between atoms: C_4  and  N_5
REMARK    3  A    between atoms: N_13  and  C_14
REMARK                            x       y       z     vdW  Elec       q    Type
REMARK                         _______ _______ _______ _____ _____    ______ ____
ROOT
ATOM      1  N   UNL     1       1.799   8.087  19.858  0.00  0.00    +0.000 N 
ATOM      2  C   UNL     1       1.069   8.497  21.099  0.00  0.00    +0.000 C 
ATOM      3  C   UNL     1       1.108  10.042  21.297  0.00  0.00    +0.000 C 
ATOM      4  N   UNL     1       0.581  10.671  20.081  0.00  0.00    +0.000 N 
ATOM      5  C   UNL     1      -0.062  11.871  20.126  0.00  0.00    +0.000 A 
ATOM      6  N   UNL     1       0.088  12.880  20.956  0.00  0.00    +0.000 NA
ATOM      7  N   UNL     1      -0.633  13.923  20.423  0.00  0.00    +0.000 NA
ATOM      8  N   UNL     1      -1.246  13.567  19.302  0.00  0.00    +0.000 NA
ATOM      9  N   UNL     1      -1.030  12.239  19.183  0.00  0.00    +0.000 N 
ATOM     10  C   UNL     1       1.385  10.352  18.889  0.00  0.00    +0.000 C 
ATOM     11  C   UNL     1       1.335   8.835  18.653  0.00  0.00    +0.000 C 
ENDROOT
BRANCH   1  15
ATOM     12  C   UNL     1       1.961   3.348  21.218  0.00  0.00    +0.000 C 
ATOM     13  C   UNL     1       2.422   4.423  20.267  0.00  0.00    +0.000 A 
ATOM     14  C   UNL     1       1.866   5.784  20.483  0.00  0.00    +0.000 A 
ATOM     15  C   UNL     1       2.268   6.770  19.660  0.00  0.00    +0.000 A 
ATOM     16  N   UNL     1       3.196   6.429  18.640  0.00  0.00    +0.000 N 
ATOM     17  N   UNL     1       3.803   7.213  17.702  0.00  0.00    +0.000 NA
ATOM     18  C   UNL     1       4.592   6.343  17.075  0.00  0.00    +0.000 A 
ATOM     19  N   UNL     1       4.546   5.062  17.526  0.00  0.00    +0.000 NA
ATOM     20  C   UNL     1       3.678   5.114  18.512  0.00  0.00    +0.000 A 
ATOM     21  N   UNL     1       3.272   4.102  19.337  0.00  0.00    +0.000 NA
ENDBRANCH   1  15
BRANCH   9  22
ATOM     22  C   UNL     1      -1.724  11.425  18.253  0.00  0.00    +0.000 A 
ATOM     23  C   UNL     1      -2.337  10.240  18.668  0.00  0.00    +0.000 A 
ATOM     24  C   UNL     1      -3.090   9.497  17.753  0.00  0.00    +0.000 A 
ATOM     25  C   UNL     1      -3.206   9.915  16.425  0.00  0.00    +0.000 A 
ATOM     26  C   UNL     1      -2.559  11.070  15.999  0.00  0.00    +0.000 A 
ATOM     27  C   UNL     1      -1.814  11.820  16.908  0.00  0.00    +0.000 A 
ENDBRANCH   9  22
TORSDOF 2
ENDMDL
