MODEL 1
REMARK VINA RESULT:      -8.4      0.000      0.000
REMARK  Name = 
REMARK  10 active torsions:
REMARK  status: ('A' for Active; 'I' for Inactive)
REMARK    1  A    between atoms: C_1  and  C_2
REMARK    2  A    between atoms: C_2  and  C_3
REMARK    3  A    between atoms: C_2  and  C_4
REMARK    4  A    between atoms: C_2  and  O_5
REMARK    5  A    between atoms: O_5  and  C_6
REMARK    6  A    between atoms: C_6  and  C_8
REMARK    7  A    between atoms: C_8  and  N_9
REMARK    8  A    between atoms: C_10  and  C_12
REMARK    9  A    between atoms: C_16  and  C_17
REMARK   10  A    between atoms: N_19  and  C_20
REMARK                            x       y       z     vdW  Elec       q    Type
REMARK                         _______ _______ _______ _____ _____    ______ ____
ROOT
ATOM      1  C   UNL     1       4.543   4.116  19.533  0.00  0.00    +0.000 A 
ATOM      2  N   UNL     1       5.040   2.839  19.651  0.00  0.00    +0.000 N 
ATOM      3  C   UNL     1       4.109   2.079  20.302  0.00  0.00    +0.000 A 
ATOM      4  N   UNL     1       3.007   2.754  20.535  0.00  0.00    +0.000 NA
ATOM      5  C   UNL     1       3.243   4.020  20.017  0.00  0.00    +0.000 A 
ATOM      6  H   UNL     1       5.962   2.549  19.349  0.00  0.00    +0.000 HD
ENDROOT
BRANCH   1   8
ATOM      7  N   UNL     1       6.689   5.001  19.024  0.00  0.00    +0.000 N 
ATOM      8  C   UNL     1       5.337   5.195  18.989  0.00  0.00    +0.000 C 
ATOM      9  O   UNL     1       4.826   6.178  18.463  0.00  0.00    +0.000 OA
ATOM     10  H   UNL     1       7.054   4.308  19.673  0.00  0.00    +0.000 HD
BRANCH   7  11
ATOM     11  C   UNL     1       7.663   5.984  18.606  0.00  0.00    +0.000 C 
BRANCH  11  12
ATOM     12  C   UNL     1       7.531   6.332  17.124  0.00  0.00    +0.000 C 
ATOM     13  O   UNL     1       7.443   7.487  16.721  0.00  0.00    +0.000 OA
BRANCH  12  14
ATOM     14  O   UNL     1       7.548   5.220  16.329  0.00  0.00    +0.000 OA
BRANCH  14  16
ATOM     15  C   UNL     1       7.116   4.876  13.932  0.00  0.00    +0.000 C 
ATOM     16  C   UNL     1       6.511   4.996  15.336  0.00  0.00    +0.000 C 
ATOM     17  C   UNL     1       5.430   6.080  15.417  0.00  0.00    +0.000 C 
ATOM     18  C   UNL     1       5.860   3.645  15.685  0.00  0.00    +0.000 C 
ENDBRANCH  14  16
ENDBRANCH  12  14
ENDBRANCH  11  12
ENDBRANCH   7  11
ENDBRANCH   1   8
BRANCH   5  19
ATOM     19  C   UNL     1       2.235   5.083  19.981  0.00  0.00    +0.000 C 
ATOM     20  O   UNL     1       1.080   4.824  19.665  0.00  0.00    +0.000 OA
ATOM     21  N   UNL     1       2.690   6.364  20.263  0.00  0.00    +0.000 N 
ATOM     22  H   UNL     1       3.697   6.470  20.319  0.00  0.00    +0.000 HD
BRANCH  21  23
ATOM     23  C   UNL     1       1.845   7.505  20.232  0.00  0.00    +0.000 A 
ATOM     24  C   UNL     1       1.768   8.348  19.113  0.00  0.00    +0.000 A 
ATOM     25  C   UNL     1       1.046   9.539  19.148  0.00  0.00    +0.000 A 
ATOM     26  C   UNL     1       0.345   9.889  20.295  0.00  0.00    +0.000 A 
ATOM     27 CL   UNL     1      -0.487  11.401  20.290  0.00  0.00    +0.000 Cl
ATOM     28  C   UNL     1       0.349   9.021  21.394  0.00  0.00    +0.000 A 
ATOM     29 CL   UNL     1      -0.521   9.385  22.844  0.00  0.00    +0.000 Cl
ATOM     30  C   UNL     1       1.085   7.823  21.358  0.00  0.00    +0.000 A 
ENDBRANCH  21  23
ENDBRANCH   5  19
TORSDOF 7
ENDMDL
MODEL 2
REMARK VINA RESULT:      -8.3      1.504      2.577
REMARK  Name = 
REMARK  10 active torsions:
REMARK  status: ('A' for Active; 'I' for Inactive)
REMARK    1  A    between atoms: C_1  and  C_2
REMARK    2  A    between atoms: C_2  and  C_3
REMARK    3  A    between atoms: C_2  and  C_4
REMARK    4  A    between atoms: C_2  and  O_5
REMARK    5  A    between atoms: O_5  and  C_6
REMARK    6  A    between atoms: C_6  and  C_8
REMARK    7  A    between atoms: C_8  and  N_9
REMARK    8  A    between atoms: C_10  and  C_12
REMARK    9  A    between atoms: C_16  and  C_17
REMARK   10  A    between atoms: N_19  and  C_20
REMARK                            x       y       z     vdW  Elec       q    Type
REMARK                         _______ _______ _______ _____ _____    ______ ____
ROOT
ATOM      1  C   UNL     1       4.086   3.086  18.613  0.00  0.00    +0.000 A 
ATOM      2  N   UNL     1       4.605   1.940  19.169  0.00  0.00    +0.000 N 
ATOM      3  C   UNL     1       4.277   1.924  20.496  0.00  0.00    +0.000 A 
ATOM      4  N   UNL     1       3.506   2.937  20.818  0.00  0.00    +0.000 NA
ATOM      5  C   UNL     1       3.336   3.651  19.640  0.00  0.00    +0.000 A 
ATOM      6  H   UNL     1       5.175   1.266  18.672  0.00  0.00    +0.000 HD
ENDROOT
BRANCH   1   8
ATOM      7  N   UNL     1       5.678   3.515  16.903  0.00  0.00    +0.000 N 
ATOM      8  C   UNL     1       4.356   3.458  17.243  0.00  0.00    +0.000 C 
ATOM      9  O   UNL     1       3.457   3.632  16.426  0.00  0.00    +0.000 OA
ATOM     10  H   UNL     1       6.360   3.604  17.652  0.00  0.00    +0.000 HD
BRANCH   7  11
ATOM     11  C   UNL     1       6.167   3.942  15.610  0.00  0.00    +0.000 C 
BRANCH  11  12
ATOM     12  C   UNL     1       6.395   5.451  15.549  0.00  0.00    +0.000 C 
ATOM     13  O   UNL     1       5.736   6.191  14.828  0.00  0.00    +0.000 OA
BRANCH  12  14
ATOM     14  O   UNL     1       7.386   5.858  16.399  0.00  0.00    +0.000 OA
BRANCH  14  16
ATOM     15  C   UNL     1       5.567   6.806  17.757  0.00  0.00    +0.000 C 
ATOM     16  C   UNL     1       7.082   6.665  17.569  0.00  0.00    +0.000 C 
ATOM     17  C   UNL     1       7.792   8.022  17.497  0.00  0.00    +0.000 C 
ATOM     18  C   UNL     1       7.639   5.898  18.781  0.00  0.00    +0.000 C 
ENDBRANCH  14  16
ENDBRANCH  12  14
ENDBRANCH  11  12
ENDBRANCH   7  11
ENDBRANCH   1   8
BRANCH   5  19
ATOM     19  C   UNL     1       2.465   4.823  19.519  0.00  0.00    +0.000 C 
ATOM     20  O   UNL     1       1.514   4.804  18.747  0.00  0.00    +0.000 OA
ATOM     21  N   UNL     1       2.826   5.931  20.273  0.00  0.00    +0.000 N 
ATOM     22  H   UNL     1       3.735   5.882  20.718  0.00  0.00    +0.000 HD
BRANCH  21  23
ATOM     23  C   UNL     1       2.106   7.154  20.236  0.00  0.00    +0.000 A 
ATOM     24  C   UNL     1       1.217   7.529  21.256  0.00  0.00    +0.000 A 
ATOM     25  C   UNL     1       0.412   8.661  21.139  0.00  0.00    +0.000 A 
ATOM     26  C   UNL     1       0.514   9.468  20.014  0.00  0.00    +0.000 A 
ATOM     27 CL   UNL     1      -0.548  10.825  19.909  0.00  0.00    +0.000 Cl
ATOM     28  C   UNL     1       1.450   9.150  19.023  0.00  0.00    +0.000 A 
ATOM     29 CL   UNL     1       1.644  10.126  17.608  0.00  0.00    +0.000 Cl
ATOM     30  C   UNL     1       2.256   8.003  19.140  0.00  0.00    +0.000 A 
ENDBRANCH  21  23
ENDBRANCH   5  19
TORSDOF 7
ENDMDL
MODEL 3
REMARK VINA RESULT:      -8.2      0.825      1.318
REMARK  Name = 
REMARK  10 active torsions:
REMARK  status: ('A' for Active; 'I' for Inactive)
REMARK    1  A    between atoms: C_1  and  C_2
REMARK    2  A    between atoms: C_2  and  C_3
REMARK    3  A    between atoms: C_2  and  C_4
REMARK    4  A    between atoms: C_2  and  O_5
REMARK    5  A    between atoms: O_5  and  C_6
REMARK    6  A    between atoms: C_6  and  C_8
REMARK    7  A    between atoms: C_8  and  N_9
REMARK    8  A    between atoms: C_10  and  C_12
REMARK    9  A    between atoms: C_16  and  C_17
REMARK   10  A    between atoms: N_19  and  C_20
REMARK                            x       y       z     vdW  Elec       q    Type
REMARK                         _______ _______ _______ _____ _____    ______ ____
ROOT
ATOM      1  C   UNL     1       3.802   4.070  19.922  0.00  0.00    +0.000 A 
ATOM      2  N   UNL     1       4.205   2.778  20.168  0.00  0.00    +0.000 N 
ATOM      3  C   UNL     1       3.352   2.233  21.085  0.00  0.00    +0.000 A 
ATOM      4  N   UNL     1       2.371   3.053  21.385  0.00  0.00    +0.000 NA
ATOM      5  C   UNL     1       2.610   4.193  20.629  0.00  0.00    +0.000 A 
ATOM      6  H   UNL     1       5.029   2.346  19.767  0.00  0.00    +0.000 HD
ENDROOT
BRANCH   1   8
ATOM      7  N   UNL     1       5.923   4.882  19.225  0.00  0.00    +0.000 N 
ATOM      8  C   UNL     1       4.567   4.960  19.079  0.00  0.00    +0.000 C 
ATOM      9  O   UNL     1       4.036   5.676  18.236  0.00  0.00    +0.000 OA
ATOM     10  H   UNL     1       6.287   4.470  20.081  0.00  0.00    +0.000 HD
BRANCH   7  11
ATOM     11  C   UNL     1       6.865   5.737  18.538  0.00  0.00    +0.000 C 
BRANCH  11  12
ATOM     12  C   UNL     1       7.670   4.977  17.484  0.00  0.00    +0.000 C 
ATOM     13  O   UNL     1       8.372   4.010  17.758  0.00  0.00    +0.000 OA
BRANCH  12  14
ATOM     14  O   UNL     1       7.490   5.489  16.230  0.00  0.00    +0.000 OA
BRANCH  14  16
ATOM     15  C   UNL     1       5.302   6.099  15.286  0.00  0.00    +0.000 C 
ATOM     16  C   UNL     1       6.399   5.032  15.385  0.00  0.00    +0.000 C 
ATOM     17  C   UNL     1       5.860   3.681  15.869  0.00  0.00    +0.000 C 
ATOM     18  C   UNL     1       6.992   4.834  13.979  0.00  0.00    +0.000 C 
ENDBRANCH  14  16
ENDBRANCH  12  14
ENDBRANCH  11  12
ENDBRANCH   7  11
ENDBRANCH   1   8
BRANCH   5  19
ATOM     19  C   UNL     1       1.703   5.343  20.586  0.00  0.00    +0.000 C 
ATOM     20  O   UNL     1       0.498   5.170  20.447  0.00  0.00    +0.000 OA
ATOM     21  N   UNL     1       2.302   6.594  20.651  0.00  0.00    +0.000 N 
ATOM     22  H   UNL     1       3.312   6.601  20.570  0.00  0.00    +0.000 HD
BRANCH  21  23
ATOM     23  C   UNL     1       1.563   7.804  20.584  0.00  0.00    +0.000 A 
ATOM     24  C   UNL     1       1.526   8.593  19.424  0.00  0.00    +0.000 A 
ATOM     25  C   UNL     1       0.916   9.847  19.417  0.00  0.00    +0.000 A 
ATOM     26  C   UNL     1       0.289  10.317  20.562  0.00  0.00    +0.000 A 
ATOM     27 CL   UNL     1      -0.402  11.897  20.501  0.00  0.00    +0.000 Cl
ATOM     28  C   UNL     1       0.251   9.509  21.706  0.00  0.00    +0.000 A 
ATOM     29 CL   UNL     1      -0.534  10.024  23.158  0.00  0.00    +0.000 Cl
ATOM     30  C   UNL     1       0.874   8.248  21.712  0.00  0.00    +0.000 A 
ENDBRANCH  21  23
ENDBRANCH   5  19
TORSDOF 7
ENDMDL
MODEL 4
REMARK VINA RESULT:      -8.1      1.678      2.268
REMARK  Name = 
REMARK  10 active torsions:
REMARK  status: ('A' for Active; 'I' for Inactive)
REMARK    1  A    between atoms: C_1  and  C_2
REMARK    2  A    between atoms: C_2  and  C_3
REMARK    3  A    between atoms: C_2  and  C_4
REMARK    4  A    between atoms: C_2  and  O_5
REMARK    5  A    between atoms: O_5  and  C_6
REMARK    6  A    between atoms: C_6  and  C_8
REMARK    7  A    between atoms: C_8  and  N_9
REMARK    8  A    between atoms: C_10  and  C_12
REMARK    9  A    between atoms: C_16  and  C_17
REMARK   10  A    between atoms: N_19  and  C_20
REMARK                            x       y       z     vdW  Elec       q    Type
REMARK                         _______ _______ _______ _____ _____    ______ ____
ROOT
ATOM      1  C   UNL     1       4.679   3.788  18.878  0.00  0.00    +0.000 A 
ATOM      2  N   UNL     1       5.119   2.585  19.380  0.00  0.00    +0.000 N 
ATOM      3  C   UNL     1       4.294   2.226  20.409  0.00  0.00    +0.000 A 
ATOM      4  N   UNL     1       3.297   3.069  20.550  0.00  0.00    +0.000 NA
ATOM      5  C   UNL     1       3.495   4.030  19.568  0.00  0.00    +0.000 A 
ATOM      6  H   UNL     1       5.946   2.096  19.061  0.00  0.00    +0.000 HD
ENDROOT
BRANCH   1   8
ATOM      7  N   UNL     1       6.070   3.709  16.954  0.00  0.00    +0.000 N 
ATOM      8  C   UNL     1       5.408   4.497  17.852  0.00  0.00    +0.000 C 
ATOM      9  O   UNL     1       5.367   5.719  17.751  0.00  0.00    +0.000 OA
ATOM     10  H   UNL     1       6.270   2.748  17.220  0.00  0.00    +0.000 HD
BRANCH   7  11
ATOM     11  C   UNL     1       6.921   4.215  15.900  0.00  0.00    +0.000 C 
BRANCH  11  12
ATOM     12  C   UNL     1       6.140   4.504  14.618  0.00  0.00    +0.000 C 
ATOM     13  O   UNL     1       5.768   5.630  14.310  0.00  0.00    +0.000 OA
BRANCH  12  14
ATOM     14  O   UNL     1       5.940   3.377  13.871  0.00  0.00    +0.000 OA
BRANCH  14  16
ATOM     15  C   UNL     1       4.724   3.832  11.782  0.00  0.00    +0.000 C 
ATOM     16  C   UNL     1       6.052   3.411  12.422  0.00  0.00    +0.000 C 
ATOM     17  C   UNL     1       6.564   2.071  11.881  0.00  0.00    +0.000 C 
ATOM     18  C   UNL     1       7.099   4.490  12.093  0.00  0.00    +0.000 C 
ENDBRANCH  14  16
ENDBRANCH  12  14
ENDBRANCH  11  12
ENDBRANCH   7  11
ENDBRANCH   1   8
BRANCH   5  19
ATOM     19  C   UNL     1       2.560   5.126  19.304  0.00  0.00    +0.000 C 
ATOM     20  O   UNL     1       1.488   4.900  18.755  0.00  0.00    +0.000 OA
ATOM     21  N   UNL     1       2.994   6.397  19.656  0.00  0.00    +0.000 N 
ATOM     22  H   UNL     1       3.970   6.469  19.921  0.00  0.00    +0.000 HD
BRANCH  21  23
ATOM     23  C   UNL     1       2.219   7.565  19.430  0.00  0.00    +0.000 A 
ATOM     24  C   UNL     1       2.181   8.207  18.183  0.00  0.00    +0.000 A 
ATOM     25  C   UNL     1       1.533   9.429  18.014  0.00  0.00    +0.000 A 
ATOM     26  C   UNL     1       0.866  10.011  19.083  0.00  0.00    +0.000 A 
ATOM     27 CL   UNL     1       0.127  11.548  18.819  0.00  0.00    +0.000 Cl
ATOM     28  C   UNL     1       0.829   9.346  20.315  0.00  0.00    +0.000 A 
ATOM     29 CL   UNL     1      -0.002  10.005  21.680  0.00  0.00    +0.000 Cl
ATOM     30  C   UNL     1       1.492   8.117  20.485  0.00  0.00    +0.000 A 
ENDBRANCH  21  23
ENDBRANCH   5  19
TORSDOF 7
ENDMDL
MODEL 5
REMARK VINA RESULT:      -8.1      1.346      2.510
REMARK  Name = 
REMARK  10 active torsions:
REMARK  status: ('A' for Active; 'I' for Inactive)
REMARK    1  A    between atoms: C_1  and  C_2
REMARK    2  A    between atoms: C_2  and  C_3
REMARK    3  A    between atoms: C_2  and  C_4
REMARK    4  A    between atoms: C_2  and  O_5
REMARK    5  A    between atoms: O_5  and  C_6
REMARK    6  A    between atoms: C_6  and  C_8
REMARK    7  A    between atoms: C_8  and  N_9
REMARK    8  A    between atoms: C_10  and  C_12
REMARK    9  A    between atoms: C_16  and  C_17
REMARK   10  A    between atoms: N_19  and  C_20
REMARK                            x       y       z     vdW  Elec       q    Type
REMARK                         _______ _______ _______ _____ _____    ______ ____
ROOT
ATOM      1  C   UNL     1       3.817   3.315  19.233  0.00  0.00    +0.000 A 
ATOM      2  N   UNL     1       4.353   2.105  19.607  0.00  0.00    +0.000 N 
ATOM      3  C   UNL     1       3.968   1.847  20.892  0.00  0.00    +0.000 A 
ATOM      4  N   UNL     1       3.146   2.766  21.347  0.00  0.00    +0.000 NA
ATOM      5  C   UNL     1       3.002   3.670  20.303  0.00  0.00    +0.000 A 
ATOM      6  H   UNL     1       4.969   1.545  19.030  0.00  0.00    +0.000 HD
ENDROOT
BRANCH   1   8
ATOM      7  N   UNL     1       5.272   3.474  17.362  0.00  0.00    +0.000 N 
ATOM      8  C   UNL     1       4.133   3.929  17.964  0.00  0.00    +0.000 C 
ATOM      9  O   UNL     1       3.386   4.743  17.429  0.00  0.00    +0.000 OA
ATOM     10  H   UNL     1       5.961   3.000  17.941  0.00  0.00    +0.000 HD
BRANCH   7  11
ATOM     11  C   UNL     1       5.810   4.008  16.130  0.00  0.00    +0.000 C 
BRANCH  11  12
ATOM     12  C   UNL     1       7.147   4.715  16.343  0.00  0.00    +0.000 C 
ATOM     13  O   UNL     1       8.197   4.107  16.522  0.00  0.00    +0.000 OA
BRANCH  12  14
ATOM     14  O   UNL     1       7.027   6.075  16.287  0.00  0.00    +0.000 OA
BRANCH  14  16
ATOM     15  C   UNL     1       7.182   6.046  18.742  0.00  0.00    +0.000 C 
ATOM     16  C   UNL     1       6.817   6.858  17.493  0.00  0.00    +0.000 C 
ATOM     17  C   UNL     1       5.387   7.406  17.548  0.00  0.00    +0.000 C 
ATOM     18  C   UNL     1       7.784   8.053  17.409  0.00  0.00    +0.000 C 
ENDBRANCH  14  16
ENDBRANCH  12  14
ENDBRANCH  11  12
ENDBRANCH   7  11
ENDBRANCH   1   8
BRANCH   5  19
ATOM     19  C   UNL     1       2.095   4.819  20.344  0.00  0.00    +0.000 C 
ATOM     20  O   UNL     1       0.882   4.644  20.342  0.00  0.00    +0.000 OA
ATOM     21  N   UNL     1       2.694   6.071  20.325  0.00  0.00    +0.000 N 
ATOM     22  H   UNL     1       3.690   6.077  20.133  0.00  0.00    +0.000 HD
BRANCH  21  23
ATOM     23  C   UNL     1       1.951   7.280  20.323  0.00  0.00    +0.000 A 
ATOM     24  C   UNL     1       1.054   7.608  21.350  0.00  0.00    +0.000 A 
ATOM     25  C   UNL     1       0.227   8.726  21.265  0.00  0.00    +0.000 A 
ATOM     26  C   UNL     1       0.315   9.568  20.165  0.00  0.00    +0.000 A 
ATOM     27 CL   UNL     1      -0.773  10.907  20.097  0.00  0.00    +0.000 Cl
ATOM     28  C   UNL     1       1.258   9.298  19.166  0.00  0.00    +0.000 A 
ATOM     29 CL   UNL     1       1.435  10.318  17.781  0.00  0.00    +0.000 Cl
ATOM     30  C   UNL     1       2.086   8.164  19.251  0.00  0.00    +0.000 A 
ENDBRANCH  21  23
ENDBRANCH   5  19
TORSDOF 7
ENDMDL
MODEL 6
REMARK VINA RESULT:      -8.0      2.025      4.463
REMARK  Name = 
REMARK  10 active torsions:
REMARK  status: ('A' for Active; 'I' for Inactive)
REMARK    1  A    between atoms: C_1  and  C_2
REMARK    2  A    between atoms: C_2  and  C_3
REMARK    3  A    between atoms: C_2  and  C_4
REMARK    4  A    between atoms: C_2  and  O_5
REMARK    5  A    between atoms: O_5  and  C_6
REMARK    6  A    between atoms: C_6  and  C_8
REMARK    7  A    between atoms: C_8  and  N_9
REMARK    8  A    between atoms: C_10  and  C_12
REMARK    9  A    between atoms: C_16  and  C_17
REMARK   10  A    between atoms: N_19  and  C_20
REMARK                            x       y       z     vdW  Elec       q    Type
REMARK                         _______ _______ _______ _____ _____    ______ ____
ROOT
ATOM      1  C   UNL     1       6.110   4.742  17.406  0.00  0.00    +0.000 A 
ATOM      2  N   UNL     1       7.165   4.161  16.742  0.00  0.00    +0.000 N 
ATOM      3  C   UNL     1       7.167   4.626  15.457  0.00  0.00    +0.000 A 
ATOM      4  N   UNL     1       6.238   5.536  15.268  0.00  0.00    +0.000 NA
ATOM      5  C   UNL     1       5.596   5.656  16.493  0.00  0.00    +0.000 A 
ATOM      6  H   UNL     1       7.787   3.470  17.143  0.00  0.00    +0.000 HD
ENDROOT
BRANCH   1   8
ATOM      7  N   UNL     1       5.238   3.117  18.904  0.00  0.00    +0.000 N 
ATOM      8  C   UNL     1       5.764   4.370  18.759  0.00  0.00    +0.000 C 
ATOM      9  O   UNL     1       6.000   5.099  19.717  0.00  0.00    +0.000 OA
ATOM     10  H   UNL     1       4.845   2.667  18.081  0.00  0.00    +0.000 HD
BRANCH   7  11
ATOM     11  C   UNL     1       4.753   2.578  20.155  0.00  0.00    +0.000 C 
BRANCH  11  12
ATOM     12  C   UNL     1       3.303   2.973  20.429  0.00  0.00    +0.000 C 
ATOM     13  O   UNL     1       2.704   2.631  21.443  0.00  0.00    +0.000 OA
BRANCH  12  14
ATOM     14  O   UNL     1       2.784   3.754  19.435  0.00  0.00    +0.000 OA
BRANCH  14  16
ATOM     15  C   UNL     1       1.330   4.315  17.531  0.00  0.00    +0.000 C 
ATOM     16  C   UNL     1       1.727   3.258  18.570  0.00  0.00    +0.000 C 
ATOM     17  C   UNL     1       0.530   2.767  19.392  0.00  0.00    +0.000 C 
ATOM     18  C   UNL     1       2.314   2.052  17.815  0.00  0.00    +0.000 C 
ENDBRANCH  14  16
ENDBRANCH  12  14
ENDBRANCH  11  12
ENDBRANCH   7  11
ENDBRANCH   1   8
BRANCH   5  19
ATOM     19  C   UNL     1       4.539   6.634  16.762  0.00  0.00    +0.000 C 
ATOM     20  O   UNL     1       4.297   7.517  15.947  0.00  0.00    +0.000 OA
ATOM     21  N   UNL     1       3.902   6.521  17.990  0.00  0.00    +0.000 N 
ATOM     22  H   UNL     1       4.325   5.873  18.646  0.00  0.00    +0.000 HD
BRANCH  21  23
ATOM     23  C   UNL     1       2.884   7.415  18.414  0.00  0.00    +0.000 A 
ATOM     24  C   UNL     1       2.376   8.419  17.577  0.00  0.00    +0.000 A 
ATOM     25  C   UNL     1       1.481   9.378  18.051  0.00  0.00    +0.000 A 
ATOM     26  C   UNL     1       1.041   9.321  19.366  0.00  0.00    +0.000 A 
ATOM     27 CL   UNL     1      -0.026  10.567  19.903  0.00  0.00    +0.000 Cl
ATOM     28  C   UNL     1       1.480   8.280  20.194  0.00  0.00    +0.000 A 
ATOM     29 CL   UNL     1       0.952   8.138  21.834  0.00  0.00    +0.000 Cl
ATOM     30  C   UNL     1       2.388   7.319  19.715  0.00  0.00    +0.000 A 
ENDBRANCH  21  23
ENDBRANCH   5  19
TORSDOF 7
ENDMDL
MODEL 7
REMARK VINA RESULT:      -8.0      1.576      2.147
REMARK  Name = 
REMARK  10 active torsions:
REMARK  status: ('A' for Active; 'I' for Inactive)
REMARK    1  A    between atoms: C_1  and  C_2
REMARK    2  A    between atoms: C_2  and  C_3
REMARK    3  A    between atoms: C_2  and  C_4
REMARK    4  A    between atoms: C_2  and  O_5
REMARK    5  A    between atoms: O_5  and  C_6
REMARK    6  A    between atoms: C_6  and  C_8
REMARK    7  A    between atoms: C_8  and  N_9
REMARK    8  A    between atoms: C_10  and  C_12
REMARK    9  A    between atoms: C_16  and  C_17
REMARK   10  A    between atoms: N_19  and  C_20
REMARK                            x       y       z     vdW  Elec       q    Type
REMARK                         _______ _______ _______ _____ _____    ______ ____
ROOT
ATOM      1  C   UNL     1       4.518   4.147  18.691  0.00  0.00    +0.000 A 
ATOM      2  N   UNL     1       5.051   2.896  18.898  0.00  0.00    +0.000 N 
ATOM      3  C   UNL     1       4.453   2.355  20.001  0.00  0.00    +0.000 A 
ATOM      4  N   UNL     1       3.506   3.134  20.472  0.00  0.00    +0.000 NA
ATOM      5  C   UNL     1       3.500   4.241  19.634  0.00  0.00    +0.000 A 
ATOM      6  H   UNL     1       5.796   2.490  18.345  0.00  0.00    +0.000 HD
ENDROOT
BRANCH   1   8
ATOM      7  N   UNL     1       4.850   4.595  16.382  0.00  0.00    +0.000 N 
ATOM      8  C   UNL     1       5.022   5.031  17.665  0.00  0.00    +0.000 C 
ATOM      9  O   UNL     1       5.499   6.130  17.928  0.00  0.00    +0.000 OA
ATOM     10  H   UNL     1       4.683   3.602  16.234  0.00  0.00    +0.000 HD
BRANCH   7  11
ATOM     11  C   UNL     1       5.349   5.286  15.214  0.00  0.00    +0.000 C 
BRANCH  11  12
ATOM     12  C   UNL     1       6.609   4.630  14.650  0.00  0.00    +0.000 C 
ATOM     13  O   UNL     1       7.734   5.070  14.858  0.00  0.00    +0.000 OA
BRANCH  12  14
ATOM     14  O   UNL     1       6.325   3.507  13.925  0.00  0.00    +0.000 OA
BRANCH  14  16
ATOM     15  C   UNL     1       6.745   2.201  11.883  0.00  0.00    +0.000 C 
ATOM     16  C   UNL     1       6.295   3.543  12.472  0.00  0.00    +0.000 C 
ATOM     17  C   UNL     1       7.115   4.722  11.936  0.00  0.00    +0.000 C 
ATOM     18  C   UNL     1       4.824   3.764  12.074  0.00  0.00    +0.000 C 
ENDBRANCH  14  16
ENDBRANCH  12  14
ENDBRANCH  11  12
ENDBRANCH   7  11
ENDBRANCH   1   8
BRANCH   5  19
ATOM     19  C   UNL     1       2.530   5.334  19.741  0.00  0.00    +0.000 C 
ATOM     20  O   UNL     1       1.392   5.109  20.136  0.00  0.00    +0.000 OA
ATOM     21  N   UNL     1       2.968   6.582  19.318  0.00  0.00    +0.000 N 
ATOM     22  H   UNL     1       3.860   6.593  18.836  0.00  0.00    +0.000 HD
BRANCH  21  23
ATOM     23  C   UNL     1       2.135   7.732  19.324  0.00  0.00    +0.000 A 
ATOM     24  C   UNL     1       1.917   8.502  18.172  0.00  0.00    +0.000 A 
ATOM     25  C   UNL     1       1.216   9.706  18.223  0.00  0.00    +0.000 A 
ATOM     26  C   UNL     1       0.677  10.140  19.426  0.00  0.00    +0.000 A 
ATOM     27 CL   UNL     1      -0.137  11.662  19.431  0.00  0.00    +0.000 Cl
ATOM     28  C   UNL     1       0.819   9.344  20.570  0.00  0.00    +0.000 A 
ATOM     29 CL   UNL     1       0.152   9.816  22.095  0.00  0.00    +0.000 Cl
ATOM     30  C   UNL     1       1.534   8.135  20.517  0.00  0.00    +0.000 A 
ENDBRANCH  21  23
ENDBRANCH   5  19
TORSDOF 7
ENDMDL
MODEL 8
REMARK VINA RESULT:      -7.8      4.035      7.926
REMARK  Name = 
REMARK  10 active torsions:
REMARK  status: ('A' for Active; 'I' for Inactive)
REMARK    1  A    between atoms: C_1  and  C_2
REMARK    2  A    between atoms: C_2  and  C_3
REMARK    3  A    between atoms: C_2  and  C_4
REMARK    4  A    between atoms: C_2  and  O_5
REMARK    5  A    between atoms: O_5  and  C_6
REMARK    6  A    between atoms: C_6  and  C_8
REMARK    7  A    between atoms: C_8  and  N_9
REMARK    8  A    between atoms: C_10  and  C_12
REMARK    9  A    between atoms: C_16  and  C_17
REMARK   10  A    between atoms: N_19  and  C_20
REMARK                            x       y       z     vdW  Elec       q    Type
REMARK                         _______ _______ _______ _____ _____    ______ ____
ROOT
ATOM      1  C   UNL     1       2.636   4.937  20.180  0.00  0.00    +0.000 A 
ATOM      2  N   UNL     1       1.857   4.385  21.170  0.00  0.00    +0.000 N 
ATOM      3  C   UNL     1       2.147   3.052  21.246  0.00  0.00    +0.000 A 
ATOM      4  N   UNL     1       3.124   2.719  20.433  0.00  0.00    +0.000 NA
ATOM      5  C   UNL     1       3.476   3.899  19.791  0.00  0.00    +0.000 A 
ATOM      6  H   UNL     1       1.157   4.889  21.700  0.00  0.00    +0.000 HD
ENDROOT
BRANCH   1   8
ATOM      7  N   UNL     1       1.827   7.119  20.658  0.00  0.00    +0.000 N 
ATOM      8  C   UNL     1       2.486   6.315  19.772  0.00  0.00    +0.000 C 
ATOM      9  O   UNL     1       2.987   6.747  18.739  0.00  0.00    +0.000 OA
ATOM     10  H   UNL     1       1.236   6.674  21.357  0.00  0.00    +0.000 HD
BRANCH   7  11
ATOM     11  C   UNL     1       1.501   8.506  20.412  0.00  0.00    +0.000 C 
BRANCH  11  12
ATOM     12  C   UNL     1       0.509   9.056  21.435  0.00  0.00    +0.000 C 
ATOM     13  O   UNL     1      -0.431   8.397  21.867  0.00  0.00    +0.000 OA
BRANCH  12  14
ATOM     14  O   UNL     1       0.812  10.334  21.813  0.00  0.00    +0.000 OA
BRANCH  14  16
ATOM     15  C   UNL     1      -0.883  11.042  20.177  0.00  0.00    +0.000 C 
ATOM     16  C   UNL     1       0.025  11.460  21.340  0.00  0.00    +0.000 C 
ATOM     17  C   UNL     1       0.926  12.647  20.983  0.00  0.00    +0.000 C 
ATOM     18  C   UNL     1      -0.878  11.882  22.514  0.00  0.00    +0.000 C 
ENDBRANCH  14  16
ENDBRANCH  12  14
ENDBRANCH  11  12
ENDBRANCH   7  11
ENDBRANCH   1   8
BRANCH   5  19
ATOM     19  C   UNL     1       4.595   4.008  18.852  0.00  0.00    +0.000 C 
ATOM     20  O   UNL     1       5.747   3.883  19.252  0.00  0.00    +0.000 OA
ATOM     21  N   UNL     1       4.262   4.313  17.539  0.00  0.00    +0.000 N 
ATOM     22  H   UNL     1       3.297   4.579  17.382  0.00  0.00    +0.000 HD
BRANCH  21  23
ATOM     23  C   UNL     1       5.235   4.490  16.520  0.00  0.00    +0.000 A 
ATOM     24  C   UNL     1       6.355   5.316  16.692  0.00  0.00    +0.000 A 
ATOM     25  C   UNL     1       7.224   5.593  15.637  0.00  0.00    +0.000 A 
ATOM     26  C   UNL     1       7.012   5.007  14.397  0.00  0.00    +0.000 A 
ATOM     27 CL   UNL     1       8.095   5.431  13.121  0.00  0.00    +0.000 Cl
ATOM     28  C   UNL     1       5.942   4.119  14.229  0.00  0.00    +0.000 A 
ATOM     29 CL   UNL     1       5.636   3.339  12.716  0.00  0.00    +0.000 Cl
ATOM     30  C   UNL     1       5.063   3.849  15.293  0.00  0.00    +0.000 A 
ENDBRANCH  21  23
ENDBRANCH   5  19
TORSDOF 7
ENDMDL
MODEL 9
REMARK VINA RESULT:      -7.8      2.302      5.156
REMARK  Name = 
REMARK  10 active torsions:
REMARK  status: ('A' for Active; 'I' for Inactive)
REMARK    1  A    between atoms: C_1  and  C_2
REMARK    2  A    between atoms: C_2  and  C_3
REMARK    3  A    between atoms: C_2  and  C_4
REMARK    4  A    between atoms: C_2  and  O_5
REMARK    5  A    between atoms: O_5  and  C_6
REMARK    6  A    between atoms: C_6  and  C_8
REMARK    7  A    between atoms: C_8  and  N_9
REMARK    8  A    between atoms: C_10  and  C_12
REMARK    9  A    between atoms: C_16  and  C_17
REMARK   10  A    between atoms: N_19  and  C_20
REMARK                            x       y       z     vdW  Elec       q    Type
REMARK                         _______ _______ _______ _____ _____    ______ ____
ROOT
ATOM      1  C   UNL     1       5.016   4.353  16.226  0.00  0.00    +0.000 A 
ATOM      2  N   UNL     1       5.854   3.836  15.265  0.00  0.00    +0.000 N 
ATOM      3  C   UNL     1       6.434   4.879  14.600  0.00  0.00    +0.000 A 
ATOM      4  N   UNL     1       6.097   6.036  15.122  0.00  0.00    +0.000 NA
ATOM      5  C   UNL     1       5.246   5.724  16.174  0.00  0.00    +0.000 A 
ATOM      6  H   UNL     1       5.963   2.849  15.067  0.00  0.00    +0.000 HD
ENDROOT
BRANCH   1   8
ATOM      7  N   UNL     1       4.799   2.801  18.011  0.00  0.00    +0.000 N 
ATOM      8  C   UNL     1       4.163   3.507  17.029  0.00  0.00    +0.000 C 
ATOM      9  O   UNL     1       2.945   3.487  16.887  0.00  0.00    +0.000 OA
ATOM     10  H   UNL     1       5.803   2.665  17.927  0.00  0.00    +0.000 HD
BRANCH   7  11
ATOM     11  C   UNL     1       4.147   1.839  18.873  0.00  0.00    +0.000 C 
BRANCH  11  12
ATOM     12  C   UNL     1       3.889   2.400  20.270  0.00  0.00    +0.000 C 
ATOM     13  O   UNL     1       4.479   1.995  21.265  0.00  0.00    +0.000 OA
BRANCH  12  14
ATOM     14  O   UNL     1       2.957   3.400  20.261  0.00  0.00    +0.000 OA
BRANCH  14  16
ATOM     15  C   UNL     1       0.719   4.402  20.458  0.00  0.00    +0.000 C 
ATOM     16  C   UNL     1       1.554   3.117  20.513  0.00  0.00    +0.000 C 
ATOM     17  C   UNL     1       1.377   2.359  21.834  0.00  0.00    +0.000 C 
ATOM     18  C   UNL     1       1.084   2.199  19.370  0.00  0.00    +0.000 C 
ENDBRANCH  14  16
ENDBRANCH  12  14
ENDBRANCH  11  12
ENDBRANCH   7  11
ENDBRANCH   1   8
BRANCH   5  19
ATOM     19  C   UNL     1       4.696   6.720  17.096  0.00  0.00    +0.000 C 
ATOM     20  O   UNL     1       5.420   7.594  17.560  0.00  0.00    +0.000 OA
ATOM     21  N   UNL     1       3.359   6.564  17.437  0.00  0.00    +0.000 N 
ATOM     22  H   UNL     1       2.929   5.696  17.138  0.00  0.00    +0.000 HD
BRANCH  21  23
ATOM     23  C   UNL     1       2.692   7.425  18.347  0.00  0.00    +0.000 A 
ATOM     24  C   UNL     1       2.516   7.091  19.699  0.00  0.00    +0.000 A 
ATOM     25  C   UNL     1       1.737   7.877  20.547  0.00  0.00    +0.000 A 
ATOM     26  C   UNL     1       1.154   9.041  20.067  0.00  0.00    +0.000 A 
ATOM     27 CL   UNL     1       0.161   9.941  21.155  0.00  0.00    +0.000 Cl
ATOM     28  C   UNL     1       1.383   9.429  18.741  0.00  0.00    +0.000 A 
ATOM     29 CL   UNL     1       0.705  10.880  18.087  0.00  0.00    +0.000 Cl
ATOM     30  C   UNL     1       2.163   8.630  17.886  0.00  0.00    +0.000 A 
ENDBRANCH  21  23
ENDBRANCH   5  19
TORSDOF 7
ENDMDL
