MODEL 1
REMARK VINA RESULT:      -7.6      0.000      0.000
REMARK  Name = 
REMARK  4 active torsions:
REMARK  status: ('A' for Active; 'I' for Inactive)
REMARK    1  A    between atoms: C_2  and  C_19
REMARK    2  A    between atoms: N_3  and  C_4
REMARK    3  A    between atoms: C_6  and  N_7
REMARK    4  A    between atoms: C_12  and  N_13
REMARK                            x       y       z     vdW  Elec       q    Type
REMARK                         _______ _______ _______ _____ _____    ______ ____
ROOT
ATOM      1  C   UNL     1       4.210   5.679  18.735  0.00  0.00    +0.000 A 
ATOM      2  C   UNL     1       5.265   6.295  18.031  0.00  0.00    +0.000 A 
ATOM      3  C   UNL     1       6.041   5.554  17.146  0.00  0.00    +0.000 A 
ATOM      4  C   UNL     1       5.789   4.197  16.967  0.00  0.00    +0.000 A 
ATOM      5  C   UNL     1       4.746   3.590  17.683  0.00  0.00    +0.000 A 
ATOM      6  C   UNL     1       3.915   4.300  18.575  0.00  0.00    +0.000 A 
ENDROOT
BRANCH   6   7
ATOM      7  N   UNL     1       2.952   3.605  19.292  0.00  0.00    +0.000 N 
ATOM      8  C   UNL     1       1.518   3.589  18.955  0.00  0.00    +0.000 C 
ATOM      9  C   UNL     1       0.650   3.668  20.223  0.00  0.00    +0.000 C 
ATOM     10  O   UNL     1       1.021   2.684  21.200  0.00  0.00    +0.000 OA
ATOM     11  C   UNL     1       2.394   2.864  21.578  0.00  0.00    +0.000 C 
ATOM     12  C   UNL     1       3.322   2.666  20.370  0.00  0.00    +0.000 C 
ENDBRANCH   6   7
BRANCH   1  15
ATOM     13  O   UNL     1       2.114   7.262  17.785  0.00  0.00    +0.000 OA
ATOM     14  C   UNL     1       2.387   7.288  18.984  0.00  0.00    +0.000 C 
ATOM     15  N   UNL     1       3.404   6.517  19.535  0.00  0.00    +0.000 N 
ATOM     16  H   UNL     1       3.787   6.816  20.422  0.00  0.00    +0.000 HD
BRANCH  14  17
ATOM     17  C   UNL     1       1.698   8.193  19.896  0.00  0.00    +0.000 A 
ATOM     18  C   UNL     1       1.500   7.981  21.250  0.00  0.00    +0.000 A 
ATOM     19  C   UNL     1       0.796   9.045  21.879  0.00  0.00    +0.000 A 
ATOM     20  C   UNL     1       0.467  10.041  20.981  0.00  0.00    +0.000 A 
ATOM     21  S   UNL     1       1.014   9.682  19.401  0.00  0.00    +0.000 S 
ENDBRANCH  14  17
ENDBRANCH   1  15
BRANCH   3  22
ATOM     22  N   UNL     1       7.114   6.208  16.386  0.00  0.00    +0.000 N 
ATOM     23  O   UNL     1       7.548   7.288  16.808  0.00  0.00    +0.000 OA
ATOM     24  O   UNL     1       7.508   5.646  15.355  0.00  0.00    +0.000 OA
ENDBRANCH   3  22
TORSDOF 4
ENDMDL
MODEL 2
REMARK VINA RESULT:      -7.1      0.680      1.097
REMARK  Name = 
REMARK  4 active torsions:
REMARK  status: ('A' for Active; 'I' for Inactive)
REMARK    1  A    between atoms: C_2  and  C_19
REMARK    2  A    between atoms: N_3  and  C_4
REMARK    3  A    between atoms: C_6  and  N_7
REMARK    4  A    between atoms: C_12  and  N_13
REMARK                            x       y       z     vdW  Elec       q    Type
REMARK                         _______ _______ _______ _____ _____    ______ ____
ROOT
ATOM      1  C   UNL     1       4.200   5.717  18.628  0.00  0.00    +0.000 A 
ATOM      2  C   UNL     1       5.265   6.293  17.907  0.00  0.00    +0.000 A 
ATOM      3  C   UNL     1       6.056   5.504  17.078  0.00  0.00    +0.000 A 
ATOM      4  C   UNL     1       5.806   4.140  16.972  0.00  0.00    +0.000 A 
ATOM      5  C   UNL     1       4.754   3.572  17.705  0.00  0.00    +0.000 A 
ATOM      6  C   UNL     1       3.908   4.331  18.542  0.00  0.00    +0.000 A 
ENDROOT
BRANCH   6   7
ATOM      7  N   UNL     1       2.934   3.676  19.283  0.00  0.00    +0.000 N 
ATOM      8  C   UNL     1       1.490   3.746  18.999  0.00  0.00    +0.000 C 
ATOM      9  C   UNL     1       0.675   3.848  20.300  0.00  0.00    +0.000 C 
ATOM     10  O   UNL     1       1.026   2.826  21.246  0.00  0.00    +0.000 OA
ATOM     11  C   UNL     1       2.420   2.923  21.575  0.00  0.00    +0.000 C 
ATOM     12  C   UNL     1       3.290   2.697  20.330  0.00  0.00    +0.000 C 
ENDBRANCH   6   7
BRANCH   1  15
ATOM     13  O   UNL     1       2.163   7.292  17.546  0.00  0.00    +0.000 OA
ATOM     14  C   UNL     1       2.396   7.362  18.752  0.00  0.00    +0.000 C 
ATOM     15  N   UNL     1       3.381   6.598  19.367  0.00  0.00    +0.000 N 
ATOM     16  H   UNL     1       3.739   6.927  20.255  0.00  0.00    +0.000 HD
BRANCH  14  17
ATOM     17  C   UNL     1       1.691   8.312  19.604  0.00  0.00    +0.000 A 
ATOM     18  C   UNL     1       1.177   9.532  19.201  0.00  0.00    +0.000 A 
ATOM     19  C   UNL     1       0.537  10.239  20.257  0.00  0.00    +0.000 A 
ATOM     20  C   UNL     1       0.588   9.537  21.445  0.00  0.00    +0.000 A 
ATOM     21  S   UNL     1       1.398   8.041  21.269  0.00  0.00    +0.000 S 
ENDBRANCH  14  17
ENDBRANCH   1  15
BRANCH   3  22
ATOM     22  N   UNL     1       7.139   6.115  16.298  0.00  0.00    +0.000 N 
ATOM     23  O   UNL     1       7.433   5.601  15.210  0.00  0.00    +0.000 OA
ATOM     24  O   UNL     1       7.709   7.101  16.786  0.00  0.00    +0.000 OA
ENDBRANCH   3  22
TORSDOF 4
ENDMDL
MODEL 3
REMARK VINA RESULT:      -6.8      0.762      1.211
REMARK  Name = 
REMARK  4 active torsions:
REMARK  status: ('A' for Active; 'I' for Inactive)
REMARK    1  A    between atoms: C_2  and  C_19
REMARK    2  A    between atoms: N_3  and  C_4
REMARK    3  A    between atoms: C_6  and  N_7
REMARK    4  A    between atoms: C_12  and  N_13
REMARK                            x       y       z     vdW  Elec       q    Type
REMARK                         _______ _______ _______ _____ _____    ______ ____
ROOT
ATOM      1  C   UNL     1       4.075   5.958  18.423  0.00  0.00    +0.000 A 
ATOM      2  C   UNL     1       5.229   6.432  17.767  0.00  0.00    +0.000 A 
ATOM      3  C   UNL     1       5.966   5.582  16.949  0.00  0.00    +0.000 A 
ATOM      4  C   UNL     1       5.574   4.257  16.790  0.00  0.00    +0.000 A 
ATOM      5  C   UNL     1       4.432   3.791  17.458  0.00  0.00    +0.000 A 
ATOM      6  C   UNL     1       3.637   4.616  18.281  0.00  0.00    +0.000 A 
ENDROOT
BRANCH   6   7
ATOM      7  N   UNL     1       2.563   4.054  18.958  0.00  0.00    +0.000 N 
ATOM      8  C   UNL     1       2.482   3.928  20.423  0.00  0.00    +0.000 C 
ATOM      9  C   UNL     1       1.871   2.575  20.829  0.00  0.00    +0.000 C 
ATOM     10  O   UNL     1       0.627   2.316  20.160  0.00  0.00    +0.000 OA
ATOM     11  C   UNL     1       0.828   2.316  18.739  0.00  0.00    +0.000 C 
ATOM     12  C   UNL     1       1.315   3.690  18.258  0.00  0.00    +0.000 C 
ENDBRANCH   6   7
BRANCH   1  15
ATOM     13  O   UNL     1       1.977   7.480  17.381  0.00  0.00    +0.000 OA
ATOM     14  C   UNL     1       2.302   7.637  18.557  0.00  0.00    +0.000 C 
ATOM     15  N   UNL     1       3.324   6.905  19.152  0.00  0.00    +0.000 N 
ATOM     16  H   UNL     1       3.752   7.294  19.983  0.00  0.00    +0.000 HD
BRANCH  14  17
ATOM     17  C   UNL     1       1.674   8.659  19.386  0.00  0.00    +0.000 A 
ATOM     18  C   UNL     1       1.402   8.550  20.738  0.00  0.00    +0.000 A 
ATOM     19  C   UNL     1       0.788   9.715  21.275  0.00  0.00    +0.000 A 
ATOM     20  C   UNL     1       0.599  10.683  20.309  0.00  0.00    +0.000 A 
ATOM     21  S   UNL     1       1.168  10.177  18.777  0.00  0.00    +0.000 S 
ENDBRANCH  14  17
ENDBRANCH   1  15
BRANCH   3  22
ATOM     22  N   UNL     1       7.146   6.089  16.237  0.00  0.00    +0.000 N 
ATOM     23  O   UNL     1       7.710   7.094  16.691  0.00  0.00    +0.000 OA
ATOM     24  O   UNL     1       7.496   5.490  15.210  0.00  0.00    +0.000 OA
ENDBRANCH   3  22
TORSDOF 4
ENDMDL
MODEL 4
REMARK VINA RESULT:      -6.8      1.098      1.746
REMARK  Name = 
REMARK  4 active torsions:
REMARK  status: ('A' for Active; 'I' for Inactive)
REMARK    1  A    between atoms: C_2  and  C_19
REMARK    2  A    between atoms: N_3  and  C_4
REMARK    3  A    between atoms: C_6  and  N_7
REMARK    4  A    between atoms: C_12  and  N_13
REMARK                            x       y       z     vdW  Elec       q    Type
REMARK                         _______ _______ _______ _____ _____    ______ ____
ROOT
ATOM      1  C   UNL     1       3.864   6.139  18.445  0.00  0.00    +0.000 A 
ATOM      2  C   UNL     1       5.017   6.685  17.846  0.00  0.00    +0.000 A 
ATOM      3  C   UNL     1       5.916   5.858  17.180  0.00  0.00    +0.000 A 
ATOM      4  C   UNL     1       5.687   4.487  17.119  0.00  0.00    +0.000 A 
ATOM      5  C   UNL     1       4.544   3.952  17.731  0.00  0.00    +0.000 A 
ATOM      6  C   UNL     1       3.589   4.748  18.398  0.00  0.00    +0.000 A 
ENDROOT
BRANCH   6   7
ATOM      7  N   UNL     1       2.524   4.126  19.034  0.00  0.00    +0.000 N 
ATOM      8  C   UNL     1       2.410   3.962  20.494  0.00  0.00    +0.000 C 
ATOM      9  C   UNL     1       1.846   2.577  20.853  0.00  0.00    +0.000 C 
ATOM     10  O   UNL     1       0.632   2.281  20.146  0.00  0.00    +0.000 OA
ATOM     11  C   UNL     1       0.869   2.323  18.731  0.00  0.00    +0.000 C 
ATOM     12  C   UNL     1       1.310   3.727  18.293  0.00  0.00    +0.000 C 
ENDBRANCH   6   7
BRANCH   1  15
ATOM     13  O   UNL     1       2.648   8.245  17.070  0.00  0.00    +0.000 OA
ATOM     14  C   UNL     1       2.397   8.086  18.265  0.00  0.00    +0.000 C 
ATOM     15  N   UNL     1       2.949   7.052  19.011  0.00  0.00    +0.000 N 
ATOM     16  H   UNL     1       2.971   7.165  20.017  0.00  0.00    +0.000 HD
BRANCH  14  17
ATOM     17  C   UNL     1       1.550   9.026  18.990  0.00  0.00    +0.000 A 
ATOM     18  C   UNL     1       0.976  10.170  18.464  0.00  0.00    +0.000 A 
ATOM     19  C   UNL     1       0.197  10.886  19.414  0.00  0.00    +0.000 A 
ATOM     20  C   UNL     1       0.204  10.268  20.649  0.00  0.00    +0.000 A 
ATOM     21  S   UNL     1       1.143   8.838  20.642  0.00  0.00    +0.000 S 
ENDBRANCH  14  17
ENDBRANCH   1  15
BRANCH   3  22
ATOM     22  N   UNL     1       7.096   6.435  16.524  0.00  0.00    +0.000 N 
ATOM     23  O   UNL     1       7.609   5.802  15.591  0.00  0.00    +0.000 OA
ATOM     24  O   UNL     1       7.520   7.516  16.956  0.00  0.00    +0.000 OA
ENDBRANCH   3  22
TORSDOF 4
ENDMDL
MODEL 5
REMARK VINA RESULT:      -6.7      2.737      5.788
REMARK  Name = 
REMARK  4 active torsions:
REMARK  status: ('A' for Active; 'I' for Inactive)
REMARK    1  A    between atoms: C_2  and  C_19
REMARK    2  A    between atoms: N_3  and  C_4
REMARK    3  A    between atoms: C_6  and  N_7
REMARK    4  A    between atoms: C_12  and  N_13
REMARK                            x       y       z     vdW  Elec       q    Type
REMARK                         _______ _______ _______ _____ _____    ______ ____
ROOT
ATOM      1  C   UNL     1       2.648   6.268  18.598  0.00  0.00    +0.000 A 
ATOM      2  C   UNL     1       2.354   7.645  18.669  0.00  0.00    +0.000 A 
ATOM      3  C   UNL     1       1.661   8.156  19.761  0.00  0.00    +0.000 A 
ATOM      4  C   UNL     1       1.242   7.305  20.779  0.00  0.00    +0.000 A 
ATOM      5  C   UNL     1       1.527   5.934  20.692  0.00  0.00    +0.000 A 
ATOM      6  C   UNL     1       2.245   5.369  19.618  0.00  0.00    +0.000 A 
ENDROOT
BRANCH   6   7
ATOM      7  N   UNL     1       2.423   3.992  19.580  0.00  0.00    +0.000 N 
ATOM      8  C   UNL     1       3.331   3.249  20.470  0.00  0.00    +0.000 C 
ATOM      9  C   UNL     1       4.068   2.136  19.704  0.00  0.00    +0.000 C 
ATOM     10  O   UNL     1       3.169   1.293  18.968  0.00  0.00    +0.000 OA
ATOM     11  C   UNL     1       2.426   2.080  18.024  0.00  0.00    +0.000 C 
ATOM     12  C   UNL     1       1.566   3.127  18.744  0.00  0.00    +0.000 C 
ENDBRANCH   6   7
BRANCH   1  15
ATOM     13  O   UNL     1       5.344   5.556  18.769  0.00  0.00    +0.000 OA
ATOM     14  C   UNL     1       4.784   5.519  17.674  0.00  0.00    +0.000 C 
ATOM     15  N   UNL     1       3.442   5.842  17.511  0.00  0.00    +0.000 N 
ATOM     16  H   UNL     1       3.137   6.108  16.584  0.00  0.00    +0.000 HD
BRANCH  14  17
ATOM     17  C   UNL     1       5.523   5.198  16.458  0.00  0.00    +0.000 A 
ATOM     18  C   UNL     1       5.021   4.516  15.364  0.00  0.00    +0.000 A 
ATOM     19  C   UNL     1       5.979   4.357  14.325  0.00  0.00    +0.000 A 
ATOM     20  C   UNL     1       7.195   4.919  14.661  0.00  0.00    +0.000 A 
ATOM     21  S   UNL     1       7.161   5.631  16.216  0.00  0.00    +0.000 S 
ENDBRANCH  14  17
ENDBRANCH   1  15
BRANCH   3  22
ATOM     22  N   UNL     1       1.391   9.596  19.850  0.00  0.00    +0.000 N 
ATOM     23  O   UNL     1       1.087  10.062  20.957  0.00  0.00    +0.000 OA
ATOM     24  O   UNL     1       1.464  10.258  18.806  0.00  0.00    +0.000 OA
ENDBRANCH   3  22
TORSDOF 4
ENDMDL
MODEL 6
REMARK VINA RESULT:      -6.6      0.989      1.267
REMARK  Name = 
REMARK  4 active torsions:
REMARK  status: ('A' for Active; 'I' for Inactive)
REMARK    1  A    between atoms: C_2  and  C_19
REMARK    2  A    between atoms: N_3  and  C_4
REMARK    3  A    between atoms: C_6  and  N_7
REMARK    4  A    between atoms: C_12  and  N_13
REMARK                            x       y       z     vdW  Elec       q    Type
REMARK                         _______ _______ _______ _____ _____    ______ ____
ROOT
ATOM      1  C   UNL     1       4.041   5.796  18.327  0.00  0.00    +0.000 A 
ATOM      2  C   UNL     1       5.132   6.443  17.713  0.00  0.00    +0.000 A 
ATOM      3  C   UNL     1       6.085   5.701  17.022  0.00  0.00    +0.000 A 
ATOM      4  C   UNL     1       5.970   4.316  16.950  0.00  0.00    +0.000 A 
ATOM      5  C   UNL     1       4.888   3.681  17.578  0.00  0.00    +0.000 A 
ATOM      6  C   UNL     1       3.884   4.388  18.271  0.00  0.00    +0.000 A 
ENDROOT
BRANCH   6   7
ATOM      7  N   UNL     1       2.886   3.673  18.920  0.00  0.00    +0.000 N 
ATOM      8  C   UNL     1       2.023   2.675  18.265  0.00  0.00    +0.000 C 
ATOM      9  C   UNL     1       0.572   2.786  18.765  0.00  0.00    +0.000 C 
ATOM     10  O   UNL     1       0.484   2.769  20.197  0.00  0.00    +0.000 OA
ATOM     11  C   UNL     1       1.239   3.861  20.745  0.00  0.00    +0.000 C 
ATOM     12  C   UNL     1       2.726   3.730  20.387  0.00  0.00    +0.000 C 
ENDBRANCH   6   7
BRANCH   1  15
ATOM     13  O   UNL     1       2.940   8.074  17.142  0.00  0.00    +0.000 OA
ATOM     14  C   UNL     1       2.575   7.752  18.273  0.00  0.00    +0.000 C 
ATOM     15  N   UNL     1       3.064   6.624  18.921  0.00  0.00    +0.000 N 
ATOM     16  H   UNL     1       2.986   6.597  19.930  0.00  0.00    +0.000 HD
BRANCH  14  17
ATOM     17  C   UNL     1       1.650   8.584  19.033  0.00  0.00    +0.000 A 
ATOM     18  C   UNL     1       0.906   9.636  18.528  0.00  0.00    +0.000 A 
ATOM     19  C   UNL     1       0.088  10.257  19.511  0.00  0.00    +0.000 A 
ATOM     20  C   UNL     1       0.238   9.664  20.749  0.00  0.00    +0.000 A 
ATOM     21  S   UNL     1       1.354   8.369  20.705  0.00  0.00    +0.000 S 
ENDBRANCH  14  17
ENDBRANCH   1  15
BRANCH   3  22
ATOM     22  N   UNL     1       7.199   6.381  16.350  0.00  0.00    +0.000 N 
ATOM     23  O   UNL     1       7.588   7.460  16.818  0.00  0.00    +0.000 OA
ATOM     24  O   UNL     1       7.673   5.842  15.340  0.00  0.00    +0.000 OA
ENDBRANCH   3  22
TORSDOF 4
ENDMDL
MODEL 7
REMARK VINA RESULT:      -6.6      1.347      1.591
REMARK  Name = 
REMARK  4 active torsions:
REMARK  status: ('A' for Active; 'I' for Inactive)
REMARK    1  A    between atoms: C_2  and  C_19
REMARK    2  A    between atoms: N_3  and  C_4
REMARK    3  A    between atoms: C_6  and  N_7
REMARK    4  A    between atoms: C_12  and  N_13
REMARK                            x       y       z     vdW  Elec       q    Type
REMARK                         _______ _______ _______ _____ _____    ______ ____
ROOT
ATOM      1  C   UNL     1       3.877   5.100  17.332  0.00  0.00    +0.000 A 
ATOM      2  C   UNL     1       4.858   5.493  16.400  0.00  0.00    +0.000 A 
ATOM      3  C   UNL     1       5.637   4.534  15.760  0.00  0.00    +0.000 A 
ATOM      4  C   UNL     1       5.461   3.186  16.053  0.00  0.00    +0.000 A 
ATOM      5  C   UNL     1       4.492   2.806  16.994  0.00  0.00    +0.000 A 
ATOM      6  C   UNL     1       3.660   3.735  17.653  0.00  0.00    +0.000 A 
ENDROOT
BRANCH   6   7
ATOM      7  N   UNL     1       2.775   3.276  18.619  0.00  0.00    +0.000 N 
ATOM      8  C   UNL     1       1.309   3.372  18.512  0.00  0.00    +0.000 C 
ATOM      9  C   UNL     1       0.679   3.748  19.864  0.00  0.00    +0.000 C 
ATOM     10  O   UNL     1       1.122   2.894  20.930  0.00  0.00    +0.000 OA
ATOM     11  C   UNL     1       2.550   2.973  21.056  0.00  0.00    +0.000 C 
ATOM     12  C   UNL     1       3.239   2.482  19.775  0.00  0.00    +0.000 C 
ENDBRANCH   6   7
BRANCH   1  15
ATOM     13  O   UNL     1       4.000   6.049  19.957  0.00  0.00    +0.000 OA
ATOM     14  C   UNL     1       3.168   6.528  19.186  0.00  0.00    +0.000 C 
ATOM     15  N   UNL     1       3.057   6.120  17.862  0.00  0.00    +0.000 N 
ATOM     16  H   UNL     1       2.178   6.297  17.393  0.00  0.00    +0.000 HD
BRANCH  14  17
ATOM     17  C   UNL     1       2.194   7.513  19.642  0.00  0.00    +0.000 A 
ATOM     18  C   UNL     1       1.542   7.499  20.863  0.00  0.00    +0.000 A 
ATOM     19  C   UNL     1       0.652   8.596  21.026  0.00  0.00    +0.000 A 
ATOM     20  C   UNL     1       0.642   9.416  19.915  0.00  0.00    +0.000 A 
ATOM     21  S   UNL     1       1.707   8.856  18.700  0.00  0.00    +0.000 S 
ENDBRANCH  14  17
ENDBRANCH   1  15
BRANCH   3  22
ATOM     22  N   UNL     1       6.632   4.945  14.761  0.00  0.00    +0.000 N 
ATOM     23  O   UNL     1       6.548   4.457  13.625  0.00  0.00    +0.000 OA
ATOM     24  O   UNL     1       7.508   5.743  15.120  0.00  0.00    +0.000 OA
ENDBRANCH   3  22
TORSDOF 4
ENDMDL
MODEL 8
REMARK VINA RESULT:      -6.4      1.775      5.141
REMARK  Name = 
REMARK  4 active torsions:
REMARK  status: ('A' for Active; 'I' for Inactive)
REMARK    1  A    between atoms: C_2  and  C_19
REMARK    2  A    between atoms: N_3  and  C_4
REMARK    3  A    between atoms: C_6  and  N_7
REMARK    4  A    between atoms: C_12  and  N_13
REMARK                            x       y       z     vdW  Elec       q    Type
REMARK                         _______ _______ _______ _____ _____    ______ ____
ROOT
ATOM      1  C   UNL     1       2.865   5.350  18.143  0.00  0.00    +0.000 A 
ATOM      2  C   UNL     1       1.841   4.571  18.718  0.00  0.00    +0.000 A 
ATOM      3  C   UNL     1       2.039   3.212  18.941  0.00  0.00    +0.000 A 
ATOM      4  C   UNL     1       3.243   2.616  18.580  0.00  0.00    +0.000 A 
ATOM      5  C   UNL     1       4.250   3.397  17.995  0.00  0.00    +0.000 A 
ATOM      6  C   UNL     1       4.110   4.782  17.768  0.00  0.00    +0.000 A 
ENDROOT
BRANCH   6   7
ATOM      7  N   UNL     1       5.132   5.463  17.121  0.00  0.00    +0.000 N 
ATOM      8  C   UNL     1       5.411   5.362  15.678  0.00  0.00    +0.000 C 
ATOM      9  C   UNL     1       6.926   5.317  15.410  0.00  0.00    +0.000 C 
ATOM     10  O   UNL     1       7.627   6.390  16.057  0.00  0.00    +0.000 OA
ATOM     11  C   UNL     1       7.414   6.327  17.475  0.00  0.00    +0.000 C 
ATOM     12  C   UNL     1       5.926   6.499  17.811  0.00  0.00    +0.000 C 
ENDBRANCH   6   7
BRANCH   1  15
ATOM     13  O   UNL     1       2.078   6.995  20.260  0.00  0.00    +0.000 OA
ATOM     14  C   UNL     1       2.223   7.487  19.141  0.00  0.00    +0.000 C 
ATOM     15  N   UNL     1       2.629   6.738  18.043  0.00  0.00    +0.000 N 
ATOM     16  H   UNL     1       2.416   7.106  17.125  0.00  0.00    +0.000 HD
BRANCH  14  17
ATOM     17  C   UNL     1       1.907   8.888  18.886  0.00  0.00    +0.000 A 
ATOM     18  C   UNL     1       2.421   9.659  17.858  0.00  0.00    +0.000 A 
ATOM     19  C   UNL     1       1.922  10.991  17.863  0.00  0.00    +0.000 A 
ATOM     20  C   UNL     1       1.042  11.203  18.905  0.00  0.00    +0.000 A 
ATOM     21  S   UNL     1       0.828   9.796  19.855  0.00  0.00    +0.000 S 
ENDBRANCH  14  17
ENDBRANCH   1  15
BRANCH   3  22
ATOM     22  N   UNL     1       0.984   2.412  19.577  0.00  0.00    +0.000 N 
ATOM     23  O   UNL     1       0.991   2.320  20.812  0.00  0.00    +0.000 OA
ATOM     24  O   UNL     1       0.160   1.860  18.835  0.00  0.00    +0.000 OA
ENDBRANCH   3  22
TORSDOF 4
ENDMDL
MODEL 9
REMARK VINA RESULT:      -6.3      3.416      5.567
REMARK  Name = 
REMARK  4 active torsions:
REMARK  status: ('A' for Active; 'I' for Inactive)
REMARK    1  A    between atoms: C_2  and  C_19
REMARK    2  A    between atoms: N_3  and  C_4
REMARK    3  A    between atoms: C_6  and  N_7
REMARK    4  A    between atoms: C_12  and  N_13
REMARK                            x       y       z     vdW  Elec       q    Type
REMARK                         _______ _______ _______ _____ _____    ______ ____
ROOT
ATOM      1  C   UNL     1       5.089   4.593  15.697  0.00  0.00    +0.000 A 
ATOM      2  C   UNL     1       4.766   3.988  14.465  0.00  0.00    +0.000 A 
ATOM      3  C   UNL     1       5.731   3.873  13.469  0.00  0.00    +0.000 A 
ATOM      4  C   UNL     1       7.012   4.372  13.682  0.00  0.00    +0.000 A 
ATOM      5  C   UNL     1       7.319   4.985  14.905  0.00  0.00    +0.000 A 
ATOM      6  C   UNL     1       6.385   5.107  15.956  0.00  0.00    +0.000 A 
ENDROOT
BRANCH   6   7
ATOM      7  N   UNL     1       6.755   5.789  17.107  0.00  0.00    +0.000 N 
ATOM      8  C   UNL     1       6.813   7.257  17.217  0.00  0.00    +0.000 C 
ATOM      9  C   UNL     1       8.043   7.703  18.027  0.00  0.00    +0.000 C 
ATOM     10  O   UNL     1       8.138   7.028  19.290  0.00  0.00    +0.000 OA
ATOM     11  C   UNL     1       8.221   5.610  19.081  0.00  0.00    +0.000 C 
ATOM     12  C   UNL     1       6.954   5.086  18.390  0.00  0.00    +0.000 C 
ENDBRANCH   6   7
BRANCH   1  15
ATOM     13  O   UNL     1       4.517   2.423  17.361  0.00  0.00    +0.000 OA
ATOM     14  C   UNL     1       3.853   3.454  17.472  0.00  0.00    +0.000 C 
ATOM     15  N   UNL     1       4.089   4.580  16.693  0.00  0.00    +0.000 N 
ATOM     16  H   UNL     1       3.333   5.246  16.598  0.00  0.00    +0.000 HD
BRANCH  14  17
ATOM     17  C   UNL     1       2.723   3.529  18.391  0.00  0.00    +0.000 A 
ATOM     18  C   UNL     1       1.684   2.618  18.471  0.00  0.00    +0.000 A 
ATOM     19  C   UNL     1       0.729   2.955  19.469  0.00  0.00    +0.000 A 
ATOM     20  C   UNL     1       1.063   4.125  20.121  0.00  0.00    +0.000 A 
ATOM     21  S   UNL     1       2.521   4.793  19.526  0.00  0.00    +0.000 S 
ENDBRANCH  14  17
ENDBRANCH   1  15
BRANCH   3  22
ATOM     22  N   UNL     1       5.402   3.208  12.203  0.00  0.00    +0.000 N 
ATOM     23  O   UNL     1       6.256   2.464  11.700  0.00  0.00    +0.000 OA
ATOM     24  O   UNL     1       4.295   3.446  11.702  0.00  0.00    +0.000 OA
ENDBRANCH   3  22
TORSDOF 4
ENDMDL
