MODEL 1
REMARK VINA RESULT:      -8.4      0.000      0.000
REMARK  Name = 
REMARK  6 active torsions:
REMARK  status: ('A' for Active; 'I' for Inactive)
REMARK    1  A    between atoms: C_1  and  O_2
REMARK    2  A    between atoms: O_2  and  C_3
REMARK    3  A    between atoms: C_5  and  N_6
REMARK    4  A    between atoms: C_14  and  N_15
REMARK    5  A    between atoms: N_19  and  C_20
REMARK    6  A    between atoms: C_26  and  C_27
REMARK                            x       y       z     vdW  Elec       q    Type
REMARK                         _______ _______ _______ _____ _____    ______ ____
ROOT
ATOM      1  N   UNL     1       1.514   8.261  19.611  0.00  0.00    +0.000 N 
ATOM      2  C   UNL     1       1.992   6.989  19.921  0.00  0.00    +0.000 A 
ATOM      3  N   UNL     1       3.215   6.692  19.434  0.00  0.00    +0.000 NA
ATOM      4  C   UNL     1       3.708   5.432  19.532  0.00  0.00    +0.000 A 
ATOM      5  N   UNL     1       4.963   5.133  19.053  0.00  0.00    +0.000 N 
ATOM      6  C   UNL     1       2.894   4.461  20.135  0.00  0.00    +0.000 A 
ATOM      7  C   UNL     1       2.975   3.072  20.442  0.00  0.00    +0.000 A 
ATOM      8  C   UNL     1       1.809   2.711  21.091  0.00  0.00    +0.000 A 
ATOM      9  N   UNL     1       1.038   3.837  21.209  0.00  0.00    +0.000 N 
ATOM     10  C   UNL     1       1.684   4.899  20.636  0.00  0.00    +0.000 A 
ATOM     11  N   UNL     1       1.189   6.136  20.576  0.00  0.00    +0.000 NA
ATOM     12  H   UNL     1       2.201   8.765  19.067  0.00  0.00    +0.000 HD
ATOM     13  H   UNL     1       5.137   4.209  18.680  0.00  0.00    +0.000 HD
ATOM     14  H   UNL     1       0.126   3.904  21.640  0.00  0.00    +0.000 HD
ENDROOT
BRANCH   1  20
ATOM     15  C   UNL     1      -0.194  10.013  19.701  0.00  0.00    +0.000 A 
ATOM     16  C   UNL     1      -0.881  10.985  20.452  0.00  0.00    +0.000 A 
ATOM     17  C   UNL     1      -0.766  11.061  21.848  0.00  0.00    +0.000 A 
ATOM     18  C   UNL     1       0.009  10.086  22.486  0.00  0.00    +0.000 A 
ATOM     19  C   UNL     1       0.707   9.123  21.744  0.00  0.00    +0.000 A 
ATOM     20  C   UNL     1       0.650   9.093  20.343  0.00  0.00    +0.000 A 
BRANCH  17  21
ATOM     21  N   UNL     1      -1.376  12.106  22.594  0.00  0.00    +0.000 N 
ATOM     22  C   UNL     1      -2.582  11.924  23.370  0.00  0.00    +0.000 C 
ATOM     23  C   UNL     1      -3.013  13.334  23.722  0.00  0.00    +0.000 C 
ATOM     24  C   UNL     1      -1.702  14.087  23.832  0.00  0.00    +0.000 C 
ATOM     25  C   UNL     1      -0.801  13.360  22.861  0.00  0.00    +0.000 C 
ATOM     26  O   UNL     1       0.267  13.815  22.485  0.00  0.00    +0.000 OA
ENDBRANCH  17  21
BRANCH  15  28
ATOM     27  C   UNL     1      -1.614  10.341  17.808  0.00  0.00    +0.000 C 
ATOM     28  O   UNL     1      -0.303  10.158  18.338  0.00  0.00    +0.000 OA
ENDBRANCH  15  28
ENDBRANCH   1  20
BRANCH   5  29
ATOM     29  C   UNL     1       5.972   6.154  18.887  0.00  0.00    +0.000 C 
ATOM     30  C   UNL     1       7.335   5.621  19.325  0.00  0.00    +0.000 C 
ATOM     31  C   UNL     1       8.324   6.566  18.661  0.00  0.00    +0.000 C 
ATOM     32  C   UNL     1       7.648   7.029  17.374  0.00  0.00    +0.000 C 
ATOM     33  C   UNL     1       6.205   6.526  17.429  0.00  0.00    +0.000 C 
ENDBRANCH   5  29
BRANCH   7  34
ATOM     34  C   UNL     1       4.051   2.191  20.131  0.00  0.00    +0.000 C 
ATOM     35  N   UNL     1       4.929   1.479  19.849  0.00  0.00    +0.000 NA
ENDBRANCH   7  34
TORSDOF 5
ENDMDL
MODEL 2
REMARK VINA RESULT:      -7.9      0.821      1.076
REMARK  Name = 
REMARK  6 active torsions:
REMARK  status: ('A' for Active; 'I' for Inactive)
REMARK    1  A    between atoms: C_1  and  O_2
REMARK    2  A    between atoms: O_2  and  C_3
REMARK    3  A    between atoms: C_5  and  N_6
REMARK    4  A    between atoms: C_14  and  N_15
REMARK    5  A    between atoms: N_19  and  C_20
REMARK    6  A    between atoms: C_26  and  C_27
REMARK                            x       y       z     vdW  Elec       q    Type
REMARK                         _______ _______ _______ _____ _____    ______ ____
ROOT
ATOM      1  N   UNL     1       1.511   8.478  19.621  0.00  0.00    +0.000 N 
ATOM      2  C   UNL     1       1.928   7.174  19.882  0.00  0.00    +0.000 A 
ATOM      3  N   UNL     1       3.131   6.834  19.375  0.00  0.00    +0.000 NA
ATOM      4  C   UNL     1       3.562   5.549  19.426  0.00  0.00    +0.000 A 
ATOM      5  N   UNL     1       4.798   5.205  18.925  0.00  0.00    +0.000 N 
ATOM      6  C   UNL     1       2.706   4.599  20.002  0.00  0.00    +0.000 A 
ATOM      7  C   UNL     1       2.720   3.197  20.259  0.00  0.00    +0.000 A 
ATOM      8  C   UNL     1       1.542   2.871  20.906  0.00  0.00    +0.000 A 
ATOM      9  N   UNL     1       0.828   4.030  21.070  0.00  0.00    +0.000 N 
ATOM     10  C   UNL     1       1.522   5.077  20.528  0.00  0.00    +0.000 A 
ATOM     11  N   UNL     1       1.088   6.339  20.515  0.00  0.00    +0.000 NA
ATOM     12  H   UNL     1       2.218   8.966  19.089  0.00  0.00    +0.000 HD
ATOM     13  H   UNL     1       4.923   4.287  18.519  0.00  0.00    +0.000 HD
ATOM     14  H   UNL     1      -0.077   4.126  21.510  0.00  0.00    +0.000 HD
ENDROOT
BRANCH   1  20
ATOM     15  C   UNL     1      -0.176  10.245  19.782  0.00  0.00    +0.000 A 
ATOM     16  C   UNL     1      -0.814  11.231  20.558  0.00  0.00    +0.000 A 
ATOM     17  C   UNL     1      -0.622  11.322  21.944  0.00  0.00    +0.000 A 
ATOM     18  C   UNL     1       0.178  10.348  22.551  0.00  0.00    +0.000 A 
ATOM     19  C   UNL     1       0.827   9.370  21.784  0.00  0.00    +0.000 A 
ATOM     20  C   UNL     1       0.695   9.325  20.389  0.00  0.00    +0.000 A 
BRANCH  17  21
ATOM     21  N   UNL     1      -1.184  12.381  22.711  0.00  0.00    +0.000 N 
ATOM     22  C   UNL     1      -0.679  13.734  22.677  0.00  0.00    +0.000 C 
ATOM     23  C   UNL     1      -1.366  14.414  23.845  0.00  0.00    +0.000 C 
ATOM     24  C   UNL     1      -2.706  13.709  23.927  0.00  0.00    +0.000 C 
ATOM     25  C   UNL     1      -2.400  12.322  23.411  0.00  0.00    +0.000 C 
ATOM     26  O   UNL     1      -3.169  11.385  23.547  0.00  0.00    +0.000 OA
ENDBRANCH  17  21
BRANCH  15  28
ATOM     27  C   UNL     1      -1.686  10.227  17.932  0.00  0.00    +0.000 C 
ATOM     28  O   UNL     1      -0.357  10.376  18.426  0.00  0.00    +0.000 OA
ENDBRANCH  15  28
ENDBRANCH   1  20
BRANCH   5  29
ATOM     29  C   UNL     1       5.854   6.181  18.786  0.00  0.00    +0.000 C 
ATOM     30  C   UNL     1       7.179   5.593  19.270  0.00  0.00    +0.000 C 
ATOM     31  C   UNL     1       8.228   6.489  18.633  0.00  0.00    +0.000 C 
ATOM     32  C   UNL     1       7.613   6.972  17.322  0.00  0.00    +0.000 C 
ATOM     33  C   UNL     1       6.149   6.533  17.334  0.00  0.00    +0.000 C 
ENDBRANCH   5  29
BRANCH   7  34
ATOM     34  C   UNL     1       3.748   2.276  19.909  0.00  0.00    +0.000 C 
ATOM     35  N   UNL     1       4.571   1.509  19.604  0.00  0.00    +0.000 NA
ENDBRANCH   7  34
TORSDOF 5
ENDMDL
MODEL 3
REMARK VINA RESULT:      -7.8      2.758      3.314
REMARK  Name = 
REMARK  6 active torsions:
REMARK  status: ('A' for Active; 'I' for Inactive)
REMARK    1  A    between atoms: C_1  and  O_2
REMARK    2  A    between atoms: O_2  and  C_3
REMARK    3  A    between atoms: C_5  and  N_6
REMARK    4  A    between atoms: C_14  and  N_15
REMARK    5  A    between atoms: N_19  and  C_20
REMARK    6  A    between atoms: C_26  and  C_27
REMARK                            x       y       z     vdW  Elec       q    Type
REMARK                         _______ _______ _______ _____ _____    ______ ____
ROOT
ATOM      1  N   UNL     1       2.076   9.143  17.579  0.00  0.00    +0.000 N 
ATOM      2  C   UNL     1       2.449   7.966  18.223  0.00  0.00    +0.000 A 
ATOM      3  N   UNL     1       3.177   7.102  17.485  0.00  0.00    +0.000 NA
ATOM      4  C   UNL     1       3.454   5.859  17.953  0.00  0.00    +0.000 A 
ATOM      5  N   UNL     1       4.212   4.984  17.208  0.00  0.00    +0.000 N 
ATOM      6  C   UNL     1       2.940   5.508  19.211  0.00  0.00    +0.000 A 
ATOM      7  C   UNL     1       2.960   4.371  20.069  0.00  0.00    +0.000 A 
ATOM      8  C   UNL     1       2.266   4.695  21.221  0.00  0.00    +0.000 A 
ATOM      9  N   UNL     1       1.849   5.995  21.098  0.00  0.00    +0.000 N 
ATOM     10  C   UNL     1       2.251   6.495  19.889  0.00  0.00    +0.000 A 
ATOM     11  N   UNL     1       1.989   7.731  19.463  0.00  0.00    +0.000 NA
ATOM     12  H   UNL     1       2.444   9.153  16.637  0.00  0.00    +0.000 HD
ATOM     13  H   UNL     1       4.025   3.993  17.278  0.00  0.00    +0.000 HD
ATOM     14  H   UNL     1       1.318   6.527  21.775  0.00  0.00    +0.000 HD
ENDROOT
BRANCH   1  20
ATOM     15  C   UNL     1       0.640  10.761  18.726  0.00  0.00    +0.000 A 
ATOM     16  C   UNL     1       0.361  12.102  19.051  0.00  0.00    +0.000 A 
ATOM     17  C   UNL     1       1.277  13.132  18.797  0.00  0.00    +0.000 A 
ATOM     18  C   UNL     1       2.521  12.775  18.267  0.00  0.00    +0.000 A 
ATOM     19  C   UNL     1       2.803  11.443  17.928  0.00  0.00    +0.000 A 
ATOM     20  C   UNL     1       1.858  10.424  18.113  0.00  0.00    +0.000 A 
BRANCH  17  21
ATOM     21  N   UNL     1       0.953  14.498  19.030  0.00  0.00    +0.000 N 
ATOM     22  C   UNL     1      -0.316  15.082  18.663  0.00  0.00    +0.000 C 
ATOM     23  C   UNL     1      -0.095  16.574  18.814  0.00  0.00    +0.000 C 
ATOM     24  C   UNL     1       0.907  16.669  19.949  0.00  0.00    +0.000 C 
ATOM     25  C   UNL     1       1.698  15.388  19.822  0.00  0.00    +0.000 C 
ATOM     26  O   UNL     1       2.753  15.204  20.405  0.00  0.00    +0.000 OA
ENDBRANCH  17  21
BRANCH  15  28
ATOM     27  C   UNL     1      -1.692  10.326  18.456  0.00  0.00    +0.000 C 
ATOM     28  O   UNL     1      -0.411   9.895  18.909  0.00  0.00    +0.000 OA
ENDBRANCH  15  28
ENDBRANCH   1  20
BRANCH   5  29
ATOM     29  C   UNL     1       5.125   5.453  16.191  0.00  0.00    +0.000 C 
ATOM     30  C   UNL     1       6.552   5.478  16.738  0.00  0.00    +0.000 C 
ATOM     31  C   UNL     1       7.418   5.502  15.489  0.00  0.00    +0.000 C 
ATOM     32  C   UNL     1       6.624   4.749  14.425  0.00  0.00    +0.000 C 
ATOM     33  C   UNL     1       5.232   4.504  15.006  0.00  0.00    +0.000 C 
ENDBRANCH   5  29
BRANCH   7  34
ATOM     34  C   UNL     1       3.568   3.111  19.802  0.00  0.00    +0.000 C 
ATOM     35  N   UNL     1       4.044   2.074  19.566  0.00  0.00    +0.000 NA
ENDBRANCH   7  34
TORSDOF 5
ENDMDL
MODEL 4
REMARK VINA RESULT:      -7.4      3.729      9.965
REMARK  Name = 
REMARK  6 active torsions:
REMARK  status: ('A' for Active; 'I' for Inactive)
REMARK    1  A    between atoms: C_1  and  O_2
REMARK    2  A    between atoms: O_2  and  C_3
REMARK    3  A    between atoms: C_5  and  N_6
REMARK    4  A    between atoms: C_14  and  N_15
REMARK    5  A    between atoms: N_19  and  C_20
REMARK    6  A    between atoms: C_26  and  C_27
REMARK                            x       y       z     vdW  Elec       q    Type
REMARK                         _______ _______ _______ _____ _____    ______ ____
ROOT
ATOM      1  N   UNL     1       0.533  10.634  18.965  0.00  0.00    +0.000 N 
ATOM      2  C   UNL     1       1.156  11.879  19.018  0.00  0.00    +0.000 A 
ATOM      3  N   UNL     1       0.446  12.862  19.609  0.00  0.00    +0.000 NA
ATOM      4  C   UNL     1       0.882  14.146  19.571  0.00  0.00    +0.000 A 
ATOM      5  N   UNL     1       0.167  15.146  20.189  0.00  0.00    +0.000 N 
ATOM      6  C   UNL     1       2.076  14.406  18.882  0.00  0.00    +0.000 A 
ATOM      7  C   UNL     1       2.885  15.540  18.580  0.00  0.00    +0.000 A 
ATOM      8  C   UNL     1       3.987  15.100  17.870  0.00  0.00    +0.000 A 
ATOM      9  N   UNL     1       3.885  13.739  17.753  0.00  0.00    +0.000 N 
ATOM     10  C   UNL     1       2.736  13.310  18.360  0.00  0.00    +0.000 A 
ATOM     11  N   UNL     1       2.342  12.037  18.408  0.00  0.00    +0.000 NA
ATOM     12  H   UNL     1      -0.374  10.682  19.411  0.00  0.00    +0.000 HD
ATOM     13  H   UNL     1       0.179  16.075  19.789  0.00  0.00    +0.000 HD
ATOM     14  H   UNL     1       4.536  13.121  17.288  0.00  0.00    +0.000 HD
ENDROOT
BRANCH   1  20
ATOM     15  C   UNL     1       1.286   8.645  20.178  0.00  0.00    +0.000 A 
ATOM     16  C   UNL     1       2.054   7.465  20.194  0.00  0.00    +0.000 A 
ATOM     17  C   UNL     1       2.638   6.946  19.030  0.00  0.00    +0.000 A 
ATOM     18  C   UNL     1       2.375   7.606  17.825  0.00  0.00    +0.000 A 
ATOM     19  C   UNL     1       1.623   8.789  17.802  0.00  0.00    +0.000 A 
ATOM     20  C   UNL     1       1.101   9.349  18.978  0.00  0.00    +0.000 A 
BRANCH  17  21
ATOM     21  N   UNL     1       3.499   5.813  19.064  0.00  0.00    +0.000 N 
ATOM     22  C   UNL     1       4.934   5.915  19.193  0.00  0.00    +0.000 C 
ATOM     23  C   UNL     1       5.434   4.519  18.880  0.00  0.00    +0.000 C 
ATOM     24  C   UNL     1       4.315   3.623  19.376  0.00  0.00    +0.000 C 
ATOM     25  C   UNL     1       3.082   4.479  19.200  0.00  0.00    +0.000 C 
ATOM     26  O   UNL     1       1.951   4.025  19.262  0.00  0.00    +0.000 OA
ENDBRANCH  17  21
BRANCH  15  28
ATOM     27  C   UNL     1      -0.404   8.734  21.863  0.00  0.00    +0.000 C 
ATOM     28  O   UNL     1       0.901   9.096  21.419  0.00  0.00    +0.000 OA
ENDBRANCH  15  28
ENDBRANCH   1  20
BRANCH   5  29
ATOM     29  C   UNL     1      -0.749  14.863  21.269  0.00  0.00    +0.000 C 
ATOM     30  C   UNL     1      -0.015  14.920  22.609  0.00  0.00    +0.000 C 
ATOM     31  C   UNL     1      -1.131  15.094  23.627  0.00  0.00    +0.000 C 
ATOM     32  C   UNL     1      -2.230  15.866  22.901  0.00  0.00    +0.000 C 
ATOM     33  C   UNL     1      -1.828  15.925  21.428  0.00  0.00    +0.000 C 
ENDBRANCH   5  29
BRANCH   7  34
ATOM     34  C   UNL     1       2.617  16.895  18.928  0.00  0.00    +0.000 C 
ATOM     35  N   UNL     1       2.378  17.994  19.232  0.00  0.00    +0.000 NA
ENDBRANCH   7  34
TORSDOF 5
ENDMDL
MODEL 5
REMARK VINA RESULT:      -7.4      2.759      3.403
REMARK  Name = 
REMARK  6 active torsions:
REMARK  status: ('A' for Active; 'I' for Inactive)
REMARK    1  A    between atoms: C_1  and  O_2
REMARK    2  A    between atoms: O_2  and  C_3
REMARK    3  A    between atoms: C_5  and  N_6
REMARK    4  A    between atoms: C_14  and  N_15
REMARK    5  A    between atoms: N_19  and  C_20
REMARK    6  A    between atoms: C_26  and  C_27
REMARK                            x       y       z     vdW  Elec       q    Type
REMARK                         _______ _______ _______ _____ _____    ______ ____
ROOT
ATOM      1  N   UNL     1       2.146   9.035  17.600  0.00  0.00    +0.000 N 
ATOM      2  C   UNL     1       2.515   7.853  18.238  0.00  0.00    +0.000 A 
ATOM      3  N   UNL     1       3.226   6.983  17.490  0.00  0.00    +0.000 NA
ATOM      4  C   UNL     1       3.496   5.737  17.953  0.00  0.00    +0.000 A 
ATOM      5  N   UNL     1       4.237   4.856  17.198  0.00  0.00    +0.000 N 
ATOM      6  C   UNL     1       2.993   5.390  19.216  0.00  0.00    +0.000 A 
ATOM      7  C   UNL     1       3.012   4.251  20.073  0.00  0.00    +0.000 A 
ATOM      8  C   UNL     1       2.335   4.580  21.233  0.00  0.00    +0.000 A 
ATOM      9  N   UNL     1       1.930   5.884  21.117  0.00  0.00    +0.000 N 
ATOM     10  C   UNL     1       2.322   6.382  19.905  0.00  0.00    +0.000 A 
ATOM     11  N   UNL     1       2.068   7.621  19.483  0.00  0.00    +0.000 NA
ATOM     12  H   UNL     1       2.504   9.042  16.654  0.00  0.00    +0.000 HD
ATOM     13  H   UNL     1       4.041   3.866  17.269  0.00  0.00    +0.000 HD
ATOM     14  H   UNL     1       1.412   6.420  21.800  0.00  0.00    +0.000 HD
ENDROOT
BRANCH   1  20
ATOM     15  C   UNL     1       0.832  10.606  18.941  0.00  0.00    +0.000 A 
ATOM     16  C   UNL     1       0.534  11.939  19.283  0.00  0.00    +0.000 A 
ATOM     17  C   UNL     1       1.334  13.009  18.859  0.00  0.00    +0.000 A 
ATOM     18  C   UNL     1       2.490  12.704  18.133  0.00  0.00    +0.000 A 
ATOM     19  C   UNL     1       2.787  11.380  17.777  0.00  0.00    +0.000 A 
ATOM     20  C   UNL     1       1.947  10.317  18.139  0.00  0.00    +0.000 A 
BRANCH  17  21
ATOM     21  N   UNL     1       0.975  14.361  19.116  0.00  0.00    +0.000 N 
ATOM     22  C   UNL     1       1.827  15.482  18.789  0.00  0.00    +0.000 C 
ATOM     23  C   UNL     1       1.187  16.655  19.505  0.00  0.00    +0.000 C 
ATOM     24  C   UNL     1      -0.291  16.316  19.489  0.00  0.00    +0.000 C 
ATOM     25  C   UNL     1      -0.301  14.805  19.503  0.00  0.00    +0.000 C 
ATOM     26  O   UNL     1      -1.306  14.155  19.738  0.00  0.00    +0.000 OA
ENDBRANCH  17  21
BRANCH  15  28
ATOM     27  C   UNL     1      -0.486   9.661  20.694  0.00  0.00    +0.000 C 
ATOM     28  O   UNL     1      -0.123   9.690  19.316  0.00  0.00    +0.000 OA
ENDBRANCH  15  28
ENDBRANCH   1  20
BRANCH   5  29
ATOM     29  C   UNL     1       5.142   5.317  16.172  0.00  0.00    +0.000 C 
ATOM     30  C   UNL     1       6.587   5.210  16.658  0.00  0.00    +0.000 C 
ATOM     31  C   UNL     1       7.405   5.245  15.377  0.00  0.00    +0.000 C 
ATOM     32  C   UNL     1       6.518   4.613  14.307  0.00  0.00    +0.000 C 
ATOM     33  C   UNL     1       5.135   4.434  14.932  0.00  0.00    +0.000 C 
ENDBRANCH   5  29
BRANCH   7  34
ATOM     34  C   UNL     1       3.605   2.986  19.797  0.00  0.00    +0.000 C 
ATOM     35  N   UNL     1       4.090   1.957  19.543  0.00  0.00    +0.000 NA
ENDBRANCH   7  34
TORSDOF 5
ENDMDL
MODEL 6
REMARK VINA RESULT:      -7.4      3.742      9.987
REMARK  Name = 
REMARK  6 active torsions:
REMARK  status: ('A' for Active; 'I' for Inactive)
REMARK    1  A    between atoms: C_1  and  O_2
REMARK    2  A    between atoms: O_2  and  C_3
REMARK    3  A    between atoms: C_5  and  N_6
REMARK    4  A    between atoms: C_14  and  N_15
REMARK    5  A    between atoms: N_19  and  C_20
REMARK    6  A    between atoms: C_26  and  C_27
REMARK                            x       y       z     vdW  Elec       q    Type
REMARK                         _______ _______ _______ _____ _____    ______ ____
ROOT
ATOM      1  N   UNL     1       0.496  10.691  18.901  0.00  0.00    +0.000 N 
ATOM      2  C   UNL     1       1.099  11.945  18.977  0.00  0.00    +0.000 A 
ATOM      3  N   UNL     1       0.376  12.903  19.594  0.00  0.00    +0.000 NA
ATOM      4  C   UNL     1       0.791  14.195  19.581  0.00  0.00    +0.000 A 
ATOM      5  N   UNL     1       0.064  15.169  20.226  0.00  0.00    +0.000 N 
ATOM      6  C   UNL     1       1.976  14.490  18.890  0.00  0.00    +0.000 A 
ATOM      7  C   UNL     1       2.763  15.643  18.608  0.00  0.00    +0.000 A 
ATOM      8  C   UNL     1       3.867  15.238  17.881  0.00  0.00    +0.000 A 
ATOM      9  N   UNL     1       3.787  13.878  17.735  0.00  0.00    +0.000 N 
ATOM     10  C   UNL     1       2.650  13.417  18.340  0.00  0.00    +0.000 A 
ATOM     11  N   UNL     1       2.278  12.136  18.363  0.00  0.00    +0.000 NA
ATOM     12  H   UNL     1      -0.408  10.715  19.354  0.00  0.00    +0.000 HD
ATOM     13  H   UNL     1       0.057  16.107  19.846  0.00  0.00    +0.000 HD
ATOM     14  H   UNL     1       4.446  13.281  17.253  0.00  0.00    +0.000 HD
ENDROOT
BRANCH   1  20
ATOM     15  C   UNL     1       1.330   8.707  20.069  0.00  0.00    +0.000 A 
ATOM     16  C   UNL     1       2.117   7.541  20.046  0.00  0.00    +0.000 A 
ATOM     17  C   UNL     1       2.664   7.039  18.856  0.00  0.00    +0.000 A 
ATOM     18  C   UNL     1       2.341   7.702  17.667  0.00  0.00    +0.000 A 
ATOM     19  C   UNL     1       1.569   8.873  17.683  0.00  0.00    +0.000 A 
ATOM     20  C   UNL     1       1.085   9.416  18.882  0.00  0.00    +0.000 A 
BRANCH  17  21
ATOM     21  N   UNL     1       3.543   5.921  18.848  0.00  0.00    +0.000 N 
ATOM     22  C   UNL     1       3.168   4.616  19.342  0.00  0.00    +0.000 C 
ATOM     23  C   UNL     1       4.478   3.857  19.416  0.00  0.00    +0.000 C 
ATOM     24  C   UNL     1       5.291   4.444  18.279  0.00  0.00    +0.000 C 
ATOM     25  C   UNL     1       4.778   5.862  18.181  0.00  0.00    +0.000 C 
ATOM     26  O   UNL     1       5.354   6.729  17.543  0.00  0.00    +0.000 OA
ENDBRANCH  17  21
BRANCH  15  28
ATOM     27  C   UNL     1      -0.308   8.790  21.805  0.00  0.00    +0.000 C 
ATOM     28  O   UNL     1       0.988   9.144  21.328  0.00  0.00    +0.000 OA
ENDBRANCH  15  28
ENDBRANCH   1  20
BRANCH   5  29
ATOM     29  C   UNL     1      -0.840  14.847  21.306  0.00  0.00    +0.000 C 
ATOM     30  C   UNL     1      -0.084  14.821  22.634  0.00  0.00    +0.000 C 
ATOM     31  C   UNL     1      -1.180  14.964  23.678  0.00  0.00    +0.000 C 
ATOM     32  C   UNL     1      -2.276  15.792  23.012  0.00  0.00    +0.000 C 
ATOM     33  C   UNL     1      -1.896  15.919  21.537  0.00  0.00    +0.000 C 
ENDBRANCH   5  29
BRANCH   7  34
ATOM     34  C   UNL     1       2.475  16.986  18.987  0.00  0.00    +0.000 C 
ATOM     35  N   UNL     1       2.223  18.087  19.273  0.00  0.00    +0.000 NA
ENDBRANCH   7  34
TORSDOF 5
ENDMDL
MODEL 7
REMARK VINA RESULT:      -7.1      2.724      9.309
REMARK  Name = 
REMARK  6 active torsions:
REMARK  status: ('A' for Active; 'I' for Inactive)
REMARK    1  A    between atoms: C_1  and  O_2
REMARK    2  A    between atoms: O_2  and  C_3
REMARK    3  A    between atoms: C_5  and  N_6
REMARK    4  A    between atoms: C_14  and  N_15
REMARK    5  A    between atoms: N_19  and  C_20
REMARK    6  A    between atoms: C_26  and  C_27
REMARK                            x       y       z     vdW  Elec       q    Type
REMARK                         _______ _______ _______ _____ _____    ______ ____
ROOT
ATOM      1  N   UNL     1       1.803   8.628  18.762  0.00  0.00    +0.000 N 
ATOM      2  C   UNL     1       0.844   9.290  19.525  0.00  0.00    +0.000 A 
ATOM      3  N   UNL     1       0.018  10.110  18.841  0.00  0.00    +0.000 NA
ATOM      4  C   UNL     1      -0.843  10.926  19.500  0.00  0.00    +0.000 A 
ATOM      5  N   UNL     1      -1.698  11.749  18.802  0.00  0.00    +0.000 N 
ATOM      6  C   UNL     1      -0.823  10.896  20.902  0.00  0.00    +0.000 A 
ATOM      7  C   UNL     1      -1.503  11.545  21.973  0.00  0.00    +0.000 A 
ATOM      8  C   UNL     1      -1.024  11.024  23.160  0.00  0.00    +0.000 A 
ATOM      9  N   UNL     1      -0.096  10.066  22.845  0.00  0.00    +0.000 N 
ATOM     10  C   UNL     1       0.032   9.981  21.485  0.00  0.00    +0.000 A 
ATOM     11  N   UNL     1       0.867   9.150  20.860  0.00  0.00    +0.000 NA
ATOM     12  H   UNL     1       1.699   8.876  17.786  0.00  0.00    +0.000 HD
ATOM     13  H   UNL     1      -1.954  12.641  19.204  0.00  0.00    +0.000 HD
ATOM     14  H   UNL     1       0.434   9.500  23.493  0.00  0.00    +0.000 HD
ENDROOT
BRANCH   1  20
ATOM     15  C   UNL     1       3.390   6.885  18.101  0.00  0.00    +0.000 A 
ATOM     16  C   UNL     1       3.809   5.544  18.189  0.00  0.00    +0.000 A 
ATOM     17  C   UNL     1       3.271   4.661  19.137  0.00  0.00    +0.000 A 
ATOM     18  C   UNL     1       2.345   5.178  20.049  0.00  0.00    +0.000 A 
ATOM     19  C   UNL     1       1.913   6.509  19.960  0.00  0.00    +0.000 A 
ATOM     20  C   UNL     1       2.396   7.371  18.965  0.00  0.00    +0.000 A 
BRANCH  17  21
ATOM     21  N   UNL     1       3.618   3.281  19.157  0.00  0.00    +0.000 N 
ATOM     22  C   UNL     1       4.330   2.661  20.251  0.00  0.00    +0.000 C 
ATOM     23  C   UNL     1       4.734   1.305  19.708  0.00  0.00    +0.000 C 
ATOM     24  C   UNL     1       3.611   0.959  18.750  0.00  0.00    +0.000 C 
ATOM     25  C   UNL     1       3.143   2.310  18.260  0.00  0.00    +0.000 C 
ATOM     26  O   UNL     1       2.412   2.444  17.292  0.00  0.00    +0.000 OA
ENDBRANCH  17  21
BRANCH  15  28
ATOM     27  C   UNL     1       4.909   6.922  16.258  0.00  0.00    +0.000 C 
ATOM     28  O   UNL     1       3.909   7.579  17.034  0.00  0.00    +0.000 OA
ENDBRANCH  15  28
ENDBRANCH   1  20
BRANCH   5  29
ATOM     29  C   UNL     1      -2.077  11.462  17.438  0.00  0.00    +0.000 C 
ATOM     30  C   UNL     1      -1.897   9.973  17.146  0.00  0.00    +0.000 C 
ATOM     31  C   UNL     1      -2.760   9.738  15.916  0.00  0.00    +0.000 C 
ATOM     32  C   UNL     1      -3.903  10.744  16.019  0.00  0.00    +0.000 C 
ATOM     33  C   UNL     1      -3.560  11.683  17.175  0.00  0.00    +0.000 C 
ENDBRANCH   5  29
BRANCH   7  34
ATOM     34  C   UNL     1      -2.494  12.562  21.861  0.00  0.00    +0.000 C 
ATOM     35  N   UNL     1      -3.284  13.414  21.765  0.00  0.00    +0.000 NA
ENDBRANCH   7  34
TORSDOF 5
ENDMDL
MODEL 8
REMARK VINA RESULT:      -7.0      3.651     10.058
REMARK  Name = 
REMARK  6 active torsions:
REMARK  status: ('A' for Active; 'I' for Inactive)
REMARK    1  A    between atoms: C_1  and  O_2
REMARK    2  A    between atoms: O_2  and  C_3
REMARK    3  A    between atoms: C_5  and  N_6
REMARK    4  A    between atoms: C_14  and  N_15
REMARK    5  A    between atoms: N_19  and  C_20
REMARK    6  A    between atoms: C_26  and  C_27
REMARK                            x       y       z     vdW  Elec       q    Type
REMARK                         _______ _______ _______ _____ _____    ______ ____
ROOT
ATOM      1  N   UNL     1       0.854  11.852  20.154  0.00  0.00    +0.000 N 
ATOM      2  C   UNL     1      -0.339  12.564  20.265  0.00  0.00    +0.000 A 
ATOM      3  N   UNL     1      -0.288  13.853  19.866  0.00  0.00    +0.000 NA
ATOM      4  C   UNL     1      -1.339  14.683  20.081  0.00  0.00    +0.000 A 
ATOM      5  N   UNL     1      -1.295  15.992  19.658  0.00  0.00    +0.000 N 
ATOM      6  C   UNL     1      -2.457  14.156  20.746  0.00  0.00    +0.000 A 
ATOM      7  C   UNL     1      -3.731  14.622  21.181  0.00  0.00    +0.000 A 
ATOM      8  C   UNL     1      -4.397  13.560  21.764  0.00  0.00    +0.000 A 
ATOM      9  N   UNL     1      -3.580  12.464  21.674  0.00  0.00    +0.000 N 
ATOM     10  C   UNL     1      -2.408  12.812  21.062  0.00  0.00    +0.000 A 
ATOM     11  N   UNL     1      -1.398  11.970  20.837  0.00  0.00    +0.000 NA
ATOM     12  H   UNL     1       1.575  12.445  19.763  0.00  0.00    +0.000 HD
ATOM     13  H   UNL     1      -1.782  16.696  20.195  0.00  0.00    +0.000 HD
ATOM     14  H   UNL     1      -3.781  11.530  22.008  0.00  0.00    +0.000 HD
ENDROOT
BRANCH   1  20
ATOM     15  C   UNL     1       1.188   9.571  20.977  0.00  0.00    +0.000 A 
ATOM     16  C   UNL     1       1.612   8.252  20.727  0.00  0.00    +0.000 A 
ATOM     17  C   UNL     1       1.899   7.800  19.431  0.00  0.00    +0.000 A 
ATOM     18  C   UNL     1       1.682   8.690  18.373  0.00  0.00    +0.000 A 
ATOM     19  C   UNL     1       1.273  10.009  18.615  0.00  0.00    +0.000 A 
ATOM     20  C   UNL     1       1.058  10.483  19.918  0.00  0.00    +0.000 A 
BRANCH  17  21
ATOM     21  N   UNL     1       2.426   6.501  19.190  0.00  0.00    +0.000 N 
ATOM     22  C   UNL     1       3.569   6.257  18.341  0.00  0.00    +0.000 C 
ATOM     23  C   UNL     1       3.570   4.754  18.144  0.00  0.00    +0.000 C 
ATOM     24  C   UNL     1       2.995   4.226  19.444  0.00  0.00    +0.000 C 
ATOM     25  C   UNL     1       2.071   5.336  19.889  0.00  0.00    +0.000 C 
ATOM     26  O   UNL     1       1.240   5.187  20.771  0.00  0.00    +0.000 OA
ENDBRANCH  17  21
BRANCH  15  28
ATOM     27  C   UNL     1      -0.081   9.444  22.997  0.00  0.00    +0.000 C 
ATOM     28  O   UNL     1       1.083   9.896  22.309  0.00  0.00    +0.000 OA
ENDBRANCH  15  28
ENDBRANCH   1  20
BRANCH   5  29
ATOM     29  C   UNL     1      -0.417  16.410  18.590  0.00  0.00    +0.000 C 
ATOM     30  C   UNL     1      -1.001  17.630  17.878  0.00  0.00    +0.000 C 
ATOM     31  C   UNL     1       0.193  18.235  17.156  0.00  0.00    +0.000 C 
ATOM     32  C   UNL     1       1.406  17.899  18.019  0.00  0.00    +0.000 C 
ATOM     33  C   UNL     1       0.926  16.922  19.092  0.00  0.00    +0.000 C 
ENDBRANCH   5  29
BRANCH   7  34
ATOM     34  C   UNL     1      -4.242  15.947  21.059  0.00  0.00    +0.000 C 
ATOM     35  N   UNL     1      -4.642  17.038  20.981  0.00  0.00    +0.000 NA
ENDBRANCH   7  34
TORSDOF 5
ENDMDL
MODEL 9
REMARK VINA RESULT:      -7.0      3.655     10.037
REMARK  Name = 
REMARK  6 active torsions:
REMARK  status: ('A' for Active; 'I' for Inactive)
REMARK    1  A    between atoms: C_1  and  O_2
REMARK    2  A    between atoms: O_2  and  C_3
REMARK    3  A    between atoms: C_5  and  N_6
REMARK    4  A    between atoms: C_14  and  N_15
REMARK    5  A    between atoms: N_19  and  C_20
REMARK    6  A    between atoms: C_26  and  C_27
REMARK                            x       y       z     vdW  Elec       q    Type
REMARK                         _______ _______ _______ _____ _____    ______ ____
ROOT
ATOM      1  N   UNL     1       0.817  11.927  20.334  0.00  0.00    +0.000 N 
ATOM      2  C   UNL     1      -0.364  12.664  20.375  0.00  0.00    +0.000 A 
ATOM      3  N   UNL     1      -0.279  13.930  19.913  0.00  0.00    +0.000 NA
ATOM      4  C   UNL     1      -1.321  14.787  20.057  0.00  0.00    +0.000 A 
ATOM      5  N   UNL     1      -1.241  16.072  19.570  0.00  0.00    +0.000 N 
ATOM      6  C   UNL     1      -2.466  14.314  20.716  0.00  0.00    +0.000 A 
ATOM      7  C   UNL     1      -3.743  14.823  21.091  0.00  0.00    +0.000 A 
ATOM      8  C   UNL     1      -4.444  13.803  21.707  0.00  0.00    +0.000 A 
ATOM      9  N   UNL     1      -3.645  12.690  21.696  0.00  0.00    +0.000 N 
ATOM     10  C   UNL     1      -2.450  12.987  21.100  0.00  0.00    +0.000 A 
ATOM     11  N   UNL     1      -1.450  12.118  20.946  0.00  0.00    +0.000 NA
ATOM     12  H   UNL     1       1.559  12.487  19.934  0.00  0.00    +0.000 HD
ATOM     13  H   UNL     1      -1.730  16.811  20.058  0.00  0.00    +0.000 HD
ATOM     14  H   UNL     1      -3.872  11.778  22.070  0.00  0.00    +0.000 HD
ENDROOT
BRANCH   1  20
ATOM     15  C   UNL     1       1.054   9.681  21.278  0.00  0.00    +0.000 A 
ATOM     16  C   UNL     1       1.460   8.344  21.112  0.00  0.00    +0.000 A 
ATOM     17  C   UNL     1       1.808   7.825  19.857  0.00  0.00    +0.000 A 
ATOM     18  C   UNL     1       1.670   8.669  18.749  0.00  0.00    +0.000 A 
ATOM     19  C   UNL     1       1.279  10.006  18.907  0.00  0.00    +0.000 A 
ATOM     20  C   UNL     1       1.003  10.544  20.172  0.00  0.00    +0.000 A 
BRANCH  17  21
ATOM     21  N   UNL     1       2.318   6.506  19.706  0.00  0.00    +0.000 N 
ATOM     22  C   UNL     1       1.810   5.373  20.445  0.00  0.00    +0.000 C 
ATOM     23  C   UNL     1       2.829   4.279  20.193  0.00  0.00    +0.000 C 
ATOM     24  C   UNL     1       3.335   4.583  18.796  0.00  0.00    +0.000 C 
ATOM     25  C   UNL     1       3.199   6.085  18.696  0.00  0.00    +0.000 C 
ATOM     26  O   UNL     1       3.727   6.737  17.810  0.00  0.00    +0.000 OA
ENDBRANCH  17  21
BRANCH  15  28
ATOM     27  C   UNL     1      -0.330   9.679  23.225  0.00  0.00    +0.000 C 
ATOM     28  O   UNL     1       0.883  10.071  22.586  0.00  0.00    +0.000 OA
ENDBRANCH  15  28
ENDBRANCH   1  20
BRANCH   5  29
ATOM     29  C   UNL     1      -0.327  16.421  18.508  0.00  0.00    +0.000 C 
ATOM     30  C   UNL     1      -0.846  17.641  17.748  0.00  0.00    +0.000 C 
ATOM     31  C   UNL     1       0.385  18.175  17.033  0.00  0.00    +0.000 C 
ATOM     32  C   UNL     1       1.567  17.815  17.929  0.00  0.00    +0.000 C 
ATOM     33  C   UNL     1       1.027  16.892  19.021  0.00  0.00    +0.000 C 
ENDBRANCH   5  29
BRANCH   7  34
ATOM     34  C   UNL     1      -4.226  16.148  20.889  0.00  0.00    +0.000 C 
ATOM     35  N   UNL     1      -4.595  17.239  20.712  0.00  0.00    +0.000 NA
ENDBRANCH   7  34
TORSDOF 5
ENDMDL
