MODEL 1
REMARK VINA RESULT:      -6.2      0.000      0.000
REMARK  Name = 
REMARK  4 active torsions:
REMARK  status: ('A' for Active; 'I' for Inactive)
REMARK    1  A    between atoms: C_1  and  C_2
REMARK    2  A    between atoms: C_2  and  C_3
REMARK    3  A    between atoms: C_3  and  N_4
REMARK    4  A    between atoms: C_8  and  C_9
REMARK                            x       y       z     vdW  Elec       q    Type
REMARK                         _______ _______ _______ _____ _____    ______ ____
ROOT
ATOM      1  N   UNL     1       2.152   5.781  19.538  0.00  0.00    +0.000 NA
ATOM      2  C   UNL     1       2.144   7.248  19.663  0.00  0.00    +0.000 C 
ATOM      3  C   UNL     1       2.358   7.933  18.310  0.00  0.00    +0.000 C 
ATOM      4  C   UNL     1       3.652   7.474  17.643  0.00  0.00    +0.000 C 
ATOM      5  C   UNL     1       3.680   5.945  17.551  0.00  0.00    +0.000 C 
ATOM      6  C   UNL     1       3.427   5.325  18.940  0.00  0.00    +0.000 C 
ENDROOT
BRANCH   5   7
ATOM      7  C   UNL     1       4.963   5.425  16.964  0.00  0.00    +0.000 A 
ATOM      8  C   UNL     1       5.177   5.076  15.644  0.00  0.00    +0.000 A 
ATOM      9  S   UNL     1       6.748   4.422  15.457  0.00  0.00    +0.000 S 
ATOM     10  C   UNL     1       7.028   4.641  17.135  0.00  0.00    +0.000 A 
ATOM     11  N   UNL     1       8.179   4.260  17.710  0.00  0.00    +0.000 N 
ATOM     12  N   UNL     1       6.048   5.198  17.800  0.00  0.00    +0.000 NA
ATOM     13  H   UNL     1       8.987   4.103  17.121  0.00  0.00    +0.000 HD
ATOM     14  H   UNL     1       8.380   4.661  18.618  0.00  0.00    +0.000 HD
ENDBRANCH   5   7
BRANCH   1  15
ATOM     15  C   UNL     1       1.966   5.114  20.841  0.00  0.00    +0.000 C 
BRANCH  15  17
ATOM     16  C   UNL     1       1.341   2.717  21.455  0.00  0.00    +0.000 C 
ATOM     17  C   UNL     1       2.403   3.644  20.880  0.00  0.00    +0.000 C 
ENDBRANCH  15  17
ENDBRANCH   1  15
TORSDOF 3
ENDMDL
MODEL 2
REMARK VINA RESULT:      -6.2      2.740      5.672
REMARK  Name = 
REMARK  4 active torsions:
REMARK  status: ('A' for Active; 'I' for Inactive)
REMARK    1  A    between atoms: C_1  and  C_2
REMARK    2  A    between atoms: C_2  and  C_3
REMARK    3  A    between atoms: C_3  and  N_4
REMARK    4  A    between atoms: C_8  and  C_9
REMARK                            x       y       z     vdW  Elec       q    Type
REMARK                         _______ _______ _______ _____ _____    ______ ____
ROOT
ATOM      1  N   UNL     1       5.782   4.730  16.382  0.00  0.00    +0.000 NA
ATOM      2  C   UNL     1       5.311   6.063  15.972  0.00  0.00    +0.000 C 
ATOM      3  C   UNL     1       4.742   6.851  17.156  0.00  0.00    +0.000 C 
ATOM      4  C   UNL     1       3.615   6.092  17.851  0.00  0.00    +0.000 C 
ATOM      5  C   UNL     1       4.092   4.688  18.239  0.00  0.00    +0.000 C 
ATOM      6  C   UNL     1       4.679   3.968  17.009  0.00  0.00    +0.000 C 
ENDROOT
BRANCH   5   7
ATOM      7  C   UNL     1       3.004   3.863  18.868  0.00  0.00    +0.000 A 
ATOM      8  C   UNL     1       1.869   3.388  18.238  0.00  0.00    +0.000 A 
ATOM      9  S   UNL     1       0.854   2.602  19.371  0.00  0.00    +0.000 S 
ATOM     10  C   UNL     1       1.985   2.953  20.612  0.00  0.00    +0.000 A 
ATOM     11  N   UNL     1       1.757   2.605  21.888  0.00  0.00    +0.000 N 
ATOM     12  N   UNL     1       3.069   3.575  20.224  0.00  0.00    +0.000 NA
ATOM     13  H   UNL     1       1.061   1.897  22.081  0.00  0.00    +0.000 HD
ATOM     14  H   UNL     1       2.563   2.594  22.499  0.00  0.00    +0.000 HD
ENDBRANCH   5   7
BRANCH   1  15
ATOM     15  C   UNL     1       6.313   3.957  15.242  0.00  0.00    +0.000 C 
BRANCH  15  17
ATOM     16  C   UNL     1       6.253   3.538  12.726  0.00  0.00    +0.000 C 
ATOM     17  C   UNL     1       5.530   4.119  13.933  0.00  0.00    +0.000 C 
ENDBRANCH  15  17
ENDBRANCH   1  15
TORSDOF 3
ENDMDL
MODEL 3
REMARK VINA RESULT:      -6.2      2.795      5.794
REMARK  Name = 
REMARK  4 active torsions:
REMARK  status: ('A' for Active; 'I' for Inactive)
REMARK    1  A    between atoms: C_1  and  C_2
REMARK    2  A    between atoms: C_2  and  C_3
REMARK    3  A    between atoms: C_3  and  N_4
REMARK    4  A    between atoms: C_8  and  C_9
REMARK                            x       y       z     vdW  Elec       q    Type
REMARK                         _______ _______ _______ _____ _____    ______ ____
ROOT
ATOM      1  N   UNL     1       6.879   4.591  16.562  0.00  0.00    +0.000 NA
ATOM      2  C   UNL     1       7.217   5.847  17.250  0.00  0.00    +0.000 C 
ATOM      3  C   UNL     1       7.058   5.721  18.768  0.00  0.00    +0.000 C 
ATOM      4  C   UNL     1       5.649   5.278  19.155  0.00  0.00    +0.000 C 
ATOM      5  C   UNL     1       5.280   3.994  18.404  0.00  0.00    +0.000 C 
ATOM      6  C   UNL     1       5.494   4.184  16.889  0.00  0.00    +0.000 C 
ENDROOT
BRANCH   5   7
ATOM      7  C   UNL     1       3.874   3.543  18.689  0.00  0.00    +0.000 A 
ATOM      8  C   UNL     1       3.186   2.543  18.029  0.00  0.00    +0.000 A 
ATOM      9  S   UNL     1       1.577   2.457  18.608  0.00  0.00    +0.000 S 
ATOM     10  C   UNL     1       1.906   3.752  19.684  0.00  0.00    +0.000 A 
ATOM     11  N   UNL     1       0.957   4.254  20.489  0.00  0.00    +0.000 N 
ATOM     12  N   UNL     1       3.133   4.205  19.659  0.00  0.00    +0.000 NA
ATOM     13  H   UNL     1       0.130   3.699  20.669  0.00  0.00    +0.000 HD
ATOM     14  H   UNL     1       1.281   4.809  21.270  0.00  0.00    +0.000 HD
ENDBRANCH   5   7
BRANCH   1  15
ATOM     15  C   UNL     1       7.011   4.711  15.097  0.00  0.00    +0.000 C 
BRANCH  15  17
ATOM     16  C   UNL     1       6.209   3.681  12.904  0.00  0.00    +0.000 C 
ATOM     17  C   UNL     1       5.822   4.161  14.296  0.00  0.00    +0.000 C 
ENDBRANCH  15  17
ENDBRANCH   1  15
TORSDOF 3
ENDMDL
MODEL 4
REMARK VINA RESULT:      -6.2      2.704      6.093
REMARK  Name = 
REMARK  4 active torsions:
REMARK  status: ('A' for Active; 'I' for Inactive)
REMARK    1  A    between atoms: C_1  and  C_2
REMARK    2  A    between atoms: C_2  and  C_3
REMARK    3  A    between atoms: C_3  and  N_4
REMARK    4  A    between atoms: C_8  and  C_9
REMARK                            x       y       z     vdW  Elec       q    Type
REMARK                         _______ _______ _______ _____ _____    ______ ____
ROOT
ATOM      1  N   UNL     1       5.843   4.184  15.748  0.00  0.00    +0.000 NA
ATOM      2  C   UNL     1       7.008   4.934  16.244  0.00  0.00    +0.000 C 
ATOM      3  C   UNL     1       7.316   4.598  17.706  0.00  0.00    +0.000 C 
ATOM      4  C   UNL     1       6.113   4.849  18.610  0.00  0.00    +0.000 C 
ATOM      5  C   UNL     1       4.888   4.103  18.069  0.00  0.00    +0.000 C 
ATOM      6  C   UNL     1       4.658   4.464  16.588  0.00  0.00    +0.000 C 
ENDROOT
BRANCH   5   7
ATOM      7  C   UNL     1       3.649   4.365  18.879  0.00  0.00    +0.000 A 
ATOM      8  C   UNL     1       3.411   5.468  19.678  0.00  0.00    +0.000 A 
ATOM      9  S   UNL     1       1.923   5.285  20.504  0.00  0.00    +0.000 S 
ATOM     10  C   UNL     1       1.705   3.759  19.751  0.00  0.00    +0.000 A 
ATOM     11  N   UNL     1       0.639   2.989  20.020  0.00  0.00    +0.000 N 
ATOM     12  N   UNL     1       2.643   3.409  18.909  0.00  0.00    +0.000 NA
ATOM     13  H   UNL     1      -0.173   3.417  20.447  0.00  0.00    +0.000 HD
ATOM     14  H   UNL     1       0.438   2.254  19.355  0.00  0.00    +0.000 HD
ENDBRANCH   5   7
BRANCH   1  15
ATOM     15  C   UNL     1       5.527   4.517  14.345  0.00  0.00    +0.000 C 
BRANCH  15  17
ATOM     16  C   UNL     1       5.346   3.336  12.091  0.00  0.00    +0.000 C 
ATOM     17  C   UNL     1       6.220   3.630  13.301  0.00  0.00    +0.000 C 
ENDBRANCH  15  17
ENDBRANCH   1  15
TORSDOF 3
ENDMDL
MODEL 5
REMARK VINA RESULT:      -6.2      2.861      5.972
REMARK  Name = 
REMARK  4 active torsions:
REMARK  status: ('A' for Active; 'I' for Inactive)
REMARK    1  A    between atoms: C_1  and  C_2
REMARK    2  A    between atoms: C_2  and  C_3
REMARK    3  A    between atoms: C_3  and  N_4
REMARK    4  A    between atoms: C_8  and  C_9
REMARK                            x       y       z     vdW  Elec       q    Type
REMARK                         _______ _______ _______ _____ _____    ______ ____
ROOT
ATOM      1  N   UNL     1       5.762   4.211  16.123  0.00  0.00    +0.000 NA
ATOM      2  C   UNL     1       6.707   5.195  16.674  0.00  0.00    +0.000 C 
ATOM      3  C   UNL     1       7.048   4.897  18.136  0.00  0.00    +0.000 C 
ATOM      4  C   UNL     1       5.796   4.833  19.007  0.00  0.00    +0.000 C 
ATOM      5  C   UNL     1       4.793   3.840  18.410  0.00  0.00    +0.000 C 
ATOM      6  C   UNL     1       4.523   4.182  16.932  0.00  0.00    +0.000 C 
ENDROOT
BRANCH   5   7
ATOM      7  C   UNL     1       3.506   3.783  19.186  0.00  0.00    +0.000 A 
ATOM      8  C   UNL     1       2.351   4.489  18.908  0.00  0.00    +0.000 A 
ATOM      9  S   UNL     1       1.181   4.204  20.125  0.00  0.00    +0.000 S 
ATOM     10  C   UNL     1       2.289   3.173  20.933  0.00  0.00    +0.000 A 
ATOM     11  N   UNL     1       1.978   2.586  22.100  0.00  0.00    +0.000 N 
ATOM     12  N   UNL     1       3.441   3.007  20.335  0.00  0.00    +0.000 NA
ATOM     13  H   UNL     1       1.004   2.521  22.366  0.00  0.00    +0.000 HD
ATOM     14  H   UNL     1       2.552   1.797  22.370  0.00  0.00    +0.000 HD
ENDBRANCH   5   7
BRANCH   1  15
ATOM     15  C   UNL     1       5.414   4.503  14.719  0.00  0.00    +0.000 C 
BRANCH  15  17
ATOM     16  C   UNL     1       5.600   3.389  12.432  0.00  0.00    +0.000 C 
ATOM     17  C   UNL     1       6.337   3.855  13.678  0.00  0.00    +0.000 C 
ENDBRANCH  15  17
ENDBRANCH   1  15
TORSDOF 3
ENDMDL
MODEL 6
REMARK VINA RESULT:      -6.2      2.078      2.385
REMARK  Name = 
REMARK  4 active torsions:
REMARK  status: ('A' for Active; 'I' for Inactive)
REMARK    1  A    between atoms: C_1  and  C_2
REMARK    2  A    between atoms: C_2  and  C_3
REMARK    3  A    between atoms: C_3  and  N_4
REMARK    4  A    between atoms: C_8  and  C_9
REMARK                            x       y       z     vdW  Elec       q    Type
REMARK                         _______ _______ _______ _____ _____    ______ ____
ROOT
ATOM      1  N   UNL     1       2.655   3.255  18.612  0.00  0.00    +0.000 NA
ATOM      2  C   UNL     1       1.577   4.255  18.671  0.00  0.00    +0.000 C 
ATOM      3  C   UNL     1       1.828   5.415  17.702  0.00  0.00    +0.000 C 
ATOM      4  C   UNL     1       3.176   6.084  17.958  0.00  0.00    +0.000 C 
ATOM      5  C   UNL     1       4.293   5.036  17.939  0.00  0.00    +0.000 C 
ATOM      6  C   UNL     1       3.959   3.887  18.912  0.00  0.00    +0.000 C 
ENDROOT
BRANCH   5   7
ATOM      7  C   UNL     1       5.641   5.623  18.255  0.00  0.00    +0.000 A 
ATOM      8  C   UNL     1       6.295   6.605  17.534  0.00  0.00    +0.000 A 
ATOM      9  S   UNL     1       7.853   6.875  18.190  0.00  0.00    +0.000 S 
ATOM     10  C   UNL     1       7.552   5.670  19.373  0.00  0.00    +0.000 A 
ATOM     11  N   UNL     1       8.483   5.327  20.278  0.00  0.00    +0.000 N 
ATOM     12  N   UNL     1       6.365   5.121  19.327  0.00  0.00    +0.000 NA
ATOM     13  H   UNL     1       9.253   5.961  20.446  0.00  0.00    +0.000 HD
ATOM     14  H   UNL     1       8.151   4.827  21.093  0.00  0.00    +0.000 HD
ENDBRANCH   5   7
BRANCH   1  15
ATOM     15  C   UNL     1       2.430   2.144  19.557  0.00  0.00    +0.000 C 
BRANCH  15  17
ATOM     16  C   UNL     1       2.123   2.980  21.948  0.00  0.00    +0.000 C 
ATOM     17  C   UNL     1       1.445   2.453  20.692  0.00  0.00    +0.000 C 
ENDBRANCH  15  17
ENDBRANCH   1  15
TORSDOF 3
ENDMDL
MODEL 7
REMARK VINA RESULT:      -6.2      2.829      5.626
REMARK  Name = 
REMARK  4 active torsions:
REMARK  status: ('A' for Active; 'I' for Inactive)
REMARK    1  A    between atoms: C_1  and  C_2
REMARK    2  A    between atoms: C_2  and  C_3
REMARK    3  A    between atoms: C_3  and  N_4
REMARK    4  A    between atoms: C_8  and  C_9
REMARK                            x       y       z     vdW  Elec       q    Type
REMARK                         _______ _______ _______ _____ _____    ______ ____
ROOT
ATOM      1  N   UNL     1       6.483   5.578  18.008  0.00  0.00    +0.000 NA
ATOM      2  C   UNL     1       6.931   4.678  16.932  0.00  0.00    +0.000 C 
ATOM      3  C   UNL     1       5.777   4.285  16.006  0.00  0.00    +0.000 C 
ATOM      4  C   UNL     1       4.626   3.643  16.777  0.00  0.00    +0.000 C 
ATOM      5  C   UNL     1       4.189   4.561  17.924  0.00  0.00    +0.000 C 
ATOM      6  C   UNL     1       5.404   4.940  18.793  0.00  0.00    +0.000 C 
ENDROOT
BRANCH   5   7
ATOM      7  C   UNL     1       3.102   3.953  18.766  0.00  0.00    +0.000 A 
ATOM      8  C   UNL     1       1.829   3.619  18.343  0.00  0.00    +0.000 A 
ATOM      9  S   UNL     1       0.895   3.070  19.670  0.00  0.00    +0.000 S 
ATOM     10  C   UNL     1       2.238   3.321  20.706  0.00  0.00    +0.000 A 
ATOM     11  N   UNL     1       2.159   3.094  22.027  0.00  0.00    +0.000 N 
ATOM     12  N   UNL     1       3.329   3.745  20.120  0.00  0.00    +0.000 NA
ATOM     13  H   UNL     1       1.406   2.514  22.374  0.00  0.00    +0.000 HD
ATOM     14  H   UNL     1       3.038   2.998  22.518  0.00  0.00    +0.000 HD
ENDBRANCH   5   7
BRANCH   1  15
ATOM     15  C   UNL     1       7.587   5.945  18.916  0.00  0.00    +0.000 C 
BRANCH  15  17
ATOM     16  C   UNL     1       7.545   8.085  17.527  0.00  0.00    +0.000 C 
ATOM     17  C   UNL     1       8.282   7.272  18.581  0.00  0.00    +0.000 C 
ENDBRANCH  15  17
ENDBRANCH   1  15
TORSDOF 3
ENDMDL
MODEL 8
REMARK VINA RESULT:      -6.2      2.694      6.005
REMARK  Name = 
REMARK  4 active torsions:
REMARK  status: ('A' for Active; 'I' for Inactive)
REMARK    1  A    between atoms: C_1  and  C_2
REMARK    2  A    between atoms: C_2  and  C_3
REMARK    3  A    between atoms: C_3  and  N_4
REMARK    4  A    between atoms: C_8  and  C_9
REMARK                            x       y       z     vdW  Elec       q    Type
REMARK                         _______ _______ _______ _____ _____    ______ ____
ROOT
ATOM      1  N   UNL     1       5.824   4.105  15.867  0.00  0.00    +0.000 NA
ATOM      2  C   UNL     1       6.974   4.930  16.273  0.00  0.00    +0.000 C 
ATOM      3  C   UNL     1       7.364   4.676  17.732  0.00  0.00    +0.000 C 
ATOM      4  C   UNL     1       6.192   4.912  18.681  0.00  0.00    +0.000 C 
ATOM      5  C   UNL     1       4.981   4.087  18.232  0.00  0.00    +0.000 C 
ATOM      6  C   UNL     1       4.667   4.369  16.750  0.00  0.00    +0.000 C 
ENDROOT
BRANCH   5   7
ATOM      7  C   UNL     1       3.769   4.329  19.088  0.00  0.00    +0.000 A 
ATOM      8  C   UNL     1       2.782   3.409  19.387  0.00  0.00    +0.000 A 
ATOM      9  S   UNL     1       1.536   4.158  20.292  0.00  0.00    +0.000 S 
ATOM     10  C   UNL     1       2.389   5.644  20.216  0.00  0.00    +0.000 A 
ATOM     11  N   UNL     1       1.892   6.768  20.757  0.00  0.00    +0.000 N 
ATOM     12  N   UNL     1       3.543   5.599  19.599  0.00  0.00    +0.000 NA
ATOM     13  H   UNL     1       1.156   6.689  21.447  0.00  0.00    +0.000 HD
ATOM     14  H   UNL     1       2.552   7.518  20.914  0.00  0.00    +0.000 HD
ENDBRANCH   5   7
BRANCH   1  15
ATOM     15  C   UNL     1       5.429   4.358  14.467  0.00  0.00    +0.000 C 
BRANCH  15  17
ATOM     16  C   UNL     1       5.791   3.239  12.203  0.00  0.00    +0.000 C 
ATOM     17  C   UNL     1       6.443   3.886  13.416  0.00  0.00    +0.000 C 
ENDBRANCH  15  17
ENDBRANCH   1  15
TORSDOF 3
ENDMDL
MODEL 9
REMARK VINA RESULT:      -6.0      3.007      5.783
REMARK  Name = 
REMARK  4 active torsions:
REMARK  status: ('A' for Active; 'I' for Inactive)
REMARK    1  A    between atoms: C_1  and  C_2
REMARK    2  A    between atoms: C_2  and  C_3
REMARK    3  A    between atoms: C_3  and  N_4
REMARK    4  A    between atoms: C_8  and  C_9
REMARK                            x       y       z     vdW  Elec       q    Type
REMARK                         _______ _______ _______ _____ _____    ______ ____
ROOT
ATOM      1  N   UNL     1       6.491   6.351  16.901  0.00  0.00    +0.000 NA
ATOM      2  C   UNL     1       7.089   5.290  16.074  0.00  0.00    +0.000 C 
ATOM      3  C   UNL     1       6.034   4.565  15.234  0.00  0.00    +0.000 C 
ATOM      4  C   UNL     1       4.920   3.985  16.101  0.00  0.00    +0.000 C 
ATOM      5  C   UNL     1       4.327   5.081  16.993  0.00  0.00    +0.000 C 
ATOM      6  C   UNL     1       5.447   5.786  17.784  0.00  0.00    +0.000 C 
ENDROOT
BRANCH   5   7
ATOM      7  C   UNL     1       3.269   4.556  17.924  0.00  0.00    +0.000 A 
ATOM      8  C   UNL     1       2.711   5.233  18.993  0.00  0.00    +0.000 A 
ATOM      9  S   UNL     1       1.637   4.205  19.842  0.00  0.00    +0.000 S 
ATOM     10  C   UNL     1       1.993   2.940  18.740  0.00  0.00    +0.000 A 
ATOM     11  N   UNL     1       1.450   1.719  18.873  0.00  0.00    +0.000 N 
ATOM     12  N   UNL     1       2.820   3.251  17.775  0.00  0.00    +0.000 NA
ATOM     13  H   UNL     1       0.624   1.616  19.448  0.00  0.00    +0.000 HD
ATOM     14  H   UNL     1       1.483   1.124  18.055  0.00  0.00    +0.000 HD
ENDBRANCH   5   7
BRANCH   1  15
ATOM     15  C   UNL     1       7.499   7.041  17.729  0.00  0.00    +0.000 C 
BRANCH  15  17
ATOM     16  C   UNL     1       8.583   9.244  18.423  0.00  0.00    +0.000 C 
ATOM     17  C   UNL     1       7.634   8.545  17.459  0.00  0.00    +0.000 C 
ENDBRANCH  15  17
ENDBRANCH   1  15
TORSDOF 3
ENDMDL
