MODEL 1
REMARK VINA RESULT:      -7.7      0.000      0.000
REMARK  Name = 
REMARK  7 active torsions:
REMARK  status: ('A' for Active; 'I' for Inactive)
REMARK    1  A    between atoms: C_2  and  C_3
REMARK    2  A    between atoms: C_2  and  O_12
REMARK    3  A    between atoms: C_3  and  S_4
REMARK    4  A    between atoms: S_4  and  C_5
REMARK    5  A    between atoms: O_12  and  C_13
REMARK    6  A    between atoms: C_13  and  C_14
REMARK    7  A    between atoms: C_20  and  C_22
REMARK                            x       y       z     vdW  Elec       q    Type
REMARK                         _______ _______ _______ _____ _____    ______ ____
ROOT
ATOM      1  C   UNL     1       5.253   4.529  19.022  0.00  0.00    +0.000 C 
ATOM      2  O   UNL     1       5.766   5.335  19.802  0.00  0.00    +0.000 OA
ATOM      3  N   UNL     1       5.287   4.723  17.648  0.00  0.00    +0.000 N 
ATOM      4  C   UNL     1       6.101   5.813  17.084  0.00  0.00    +0.000 C 
ATOM      5  C   UNL     1       7.098   5.289  16.030  0.00  0.00    +0.000 C 
ATOM      6  N   UNL     1       6.431   4.420  15.050  0.00  0.00    +0.000 N 
ATOM      7  C   UNL     1       6.767   4.524  13.695  0.00  0.00    +0.000 C 
ATOM      8  O   UNL     1       7.673   5.278  13.333  0.00  0.00    +0.000 OA
ATOM      9  C   UNL     1       5.665   3.322  15.659  0.00  0.00    +0.000 C 
ATOM     10  C   UNL     1       4.626   3.888  16.637  0.00  0.00    +0.000 C 
ENDROOT
BRANCH   7  11
ATOM     11  C   UNL     1       6.031   3.730  12.723  0.00  0.00    +0.000 A 
ATOM     12  C   UNL     1       4.752   3.890  12.218  0.00  0.00    +0.000 A 
ATOM     13  C   UNL     1       4.541   2.843  11.289  0.00  0.00    +0.000 A 
ATOM     14  C   UNL     1       5.676   2.070  11.322  0.00  0.00    +0.000 A 
ATOM     15  O   UNL     1       6.568   2.575  12.210  0.00  0.00    +0.000 OA
ENDBRANCH   7  11
BRANCH   1  16
ATOM     16  C   UNL     1       4.551   3.272  19.565  0.00  0.00    +0.000 C 
BRANCH  16  17
ATOM     17  O   UNL     1       3.429   3.578  20.405  0.00  0.00    +0.000 OA
BRANCH  17  19
ATOM     18  O   UNL     1       1.857   3.632  18.749  0.00  0.00    +0.000 OA
ATOM     19  C   UNL     1       2.381   4.145  19.730  0.00  0.00    +0.000 C 
BRANCH  19  20
ATOM     20  C   UNL     1       2.052   5.512  20.312  0.00  0.00    +0.000 C 
BRANCH  20  21
ATOM     21  S   UNL     1       2.516   6.821  19.123  0.00  0.00    +0.000 S 
BRANCH  21  22
ATOM     22  C   UNL     1       1.651   8.239  19.777  0.00  0.00    +0.000 A 
ATOM     23  C   UNL     1       1.222   8.194  21.111  0.00  0.00    +0.000 A 
ATOM     24  C   UNL     1       0.435   9.220  21.643  0.00  0.00    +0.000 A 
ATOM     25  C   UNL     1       0.057  10.300  20.844  0.00  0.00    +0.000 A 
ATOM     26  C   UNL     1       0.476  10.354  19.516  0.00  0.00    +0.000 A 
ATOM     27  C   UNL     1       1.268   9.330  18.993  0.00  0.00    +0.000 A 
ATOM     28  F   UNL     1       1.636   9.407  17.704  0.00  0.00    +0.000 F 
ENDBRANCH  21  22
ENDBRANCH  20  21
ENDBRANCH  19  20
ENDBRANCH  17  19
ENDBRANCH  16  17
ENDBRANCH   1  16
TORSDOF 7
ENDMDL
MODEL 2
REMARK VINA RESULT:      -7.5      1.231      1.747
REMARK  Name = 
REMARK  7 active torsions:
REMARK  status: ('A' for Active; 'I' for Inactive)
REMARK    1  A    between atoms: C_2  and  C_3
REMARK    2  A    between atoms: C_2  and  O_12
REMARK    3  A    between atoms: C_3  and  S_4
REMARK    4  A    between atoms: S_4  and  C_5
REMARK    5  A    between atoms: O_12  and  C_13
REMARK    6  A    between atoms: C_13  and  C_14
REMARK    7  A    between atoms: C_20  and  C_22
REMARK                            x       y       z     vdW  Elec       q    Type
REMARK                         _______ _______ _______ _____ _____    ______ ____
ROOT
ATOM      1  C   UNL     1       5.026   4.551  19.051  0.00  0.00    +0.000 C 
ATOM      2  O   UNL     1       5.439   5.403  19.843  0.00  0.00    +0.000 OA
ATOM      3  N   UNL     1       5.110   4.734  17.677  0.00  0.00    +0.000 N 
ATOM      4  C   UNL     1       5.864   5.878  17.137  0.00  0.00    +0.000 C 
ATOM      5  C   UNL     1       6.948   5.422  16.138  0.00  0.00    +0.000 C 
ATOM      6  N   UNL     1       6.397   4.495  15.140  0.00  0.00    +0.000 N 
ATOM      7  C   UNL     1       6.787   4.611  13.800  0.00  0.00    +0.000 C 
ATOM      8  O   UNL     1       7.649   5.429  13.471  0.00  0.00    +0.000 OA
ATOM      9  C   UNL     1       5.689   3.347  15.728  0.00  0.00    +0.000 C 
ATOM     10  C   UNL     1       4.565   3.840  16.648  0.00  0.00    +0.000 C 
ENDROOT
BRANCH   7  11
ATOM     11  C   UNL     1       6.161   3.752  12.807  0.00  0.00    +0.000 A 
ATOM     12  C   UNL     1       6.710   2.775  11.994  0.00  0.00    +0.000 A 
ATOM     13  C   UNL     1       5.651   2.236  11.224  0.00  0.00    +0.000 A 
ATOM     14  C   UNL     1       4.529   2.952  11.565  0.00  0.00    +0.000 A 
ATOM     15  O   UNL     1       4.832   3.894  12.493  0.00  0.00    +0.000 OA
ENDBRANCH   7  11
BRANCH   1  16
ATOM     16  C   UNL     1       4.398   3.249  19.578  0.00  0.00    +0.000 C 
BRANCH  16  17
ATOM     17  O   UNL     1       3.448   3.473  20.628  0.00  0.00    +0.000 OA
BRANCH  17  19
ATOM     18  O   UNL     1       1.563   2.227  20.295  0.00  0.00    +0.000 OA
ATOM     19  C   UNL     1       2.148   3.302  20.234  0.00  0.00    +0.000 C 
BRANCH  19  20
ATOM     20  C   UNL     1       1.599   4.590  19.637  0.00  0.00    +0.000 C 
BRANCH  20  21
ATOM     21  S   UNL     1       1.918   5.986  20.775  0.00  0.00    +0.000 S 
BRANCH  21  22
ATOM     22  C   UNL     1       1.823   7.388  19.674  0.00  0.00    +0.000 A 
ATOM     23  C   UNL     1       2.527   7.327  18.464  0.00  0.00    +0.000 A 
ATOM     24  C   UNL     1       2.590   8.440  17.618  0.00  0.00    +0.000 A 
ATOM     25  C   UNL     1       1.959   9.631  17.977  0.00  0.00    +0.000 A 
ATOM     26  C   UNL     1       1.257   9.703  19.180  0.00  0.00    +0.000 A 
ATOM     27  C   UNL     1       1.193   8.587  20.016  0.00  0.00    +0.000 A 
ATOM     28  F   UNL     1       0.525   8.700  21.175  0.00  0.00    +0.000 F 
ENDBRANCH  21  22
ENDBRANCH  20  21
ENDBRANCH  19  20
ENDBRANCH  17  19
ENDBRANCH  16  17
ENDBRANCH   1  16
TORSDOF 7
ENDMDL
MODEL 3
REMARK VINA RESULT:      -7.4      1.837      2.309
REMARK  Name = 
REMARK  7 active torsions:
REMARK  status: ('A' for Active; 'I' for Inactive)
REMARK    1  A    between atoms: C_2  and  C_3
REMARK    2  A    between atoms: C_2  and  O_12
REMARK    3  A    between atoms: C_3  and  S_4
REMARK    4  A    between atoms: S_4  and  C_5
REMARK    5  A    between atoms: O_12  and  C_13
REMARK    6  A    between atoms: C_13  and  C_14
REMARK    7  A    between atoms: C_20  and  C_22
REMARK                            x       y       z     vdW  Elec       q    Type
REMARK                         _______ _______ _______ _____ _____    ______ ____
ROOT
ATOM      1  C   UNL     1       5.321   4.455  18.917  0.00  0.00    +0.000 C 
ATOM      2  O   UNL     1       5.816   5.279  19.690  0.00  0.00    +0.000 OA
ATOM      3  N   UNL     1       5.332   4.647  17.542  0.00  0.00    +0.000 N 
ATOM      4  C   UNL     1       6.104   5.762  16.967  0.00  0.00    +0.000 C 
ATOM      5  C   UNL     1       7.105   5.268  15.902  0.00  0.00    +0.000 C 
ATOM      6  N   UNL     1       6.456   4.376  14.932  0.00  0.00    +0.000 N 
ATOM      7  C   UNL     1       6.772   4.488  13.573  0.00  0.00    +0.000 C 
ATOM      8  O   UNL     1       7.648   5.270  13.199  0.00  0.00    +0.000 OA
ATOM      9  C   UNL     1       5.733   3.254  15.552  0.00  0.00    +0.000 C 
ATOM     10  C   UNL     1       4.688   3.788  16.541  0.00  0.00    +0.000 C 
ENDROOT
BRANCH   7  11
ATOM     11  C   UNL     1       6.051   3.667  12.611  0.00  0.00    +0.000 A 
ATOM     12  C   UNL     1       4.765   3.791  12.113  0.00  0.00    +0.000 A 
ATOM     13  C   UNL     1       4.576   2.731  11.193  0.00  0.00    +0.000 A 
ATOM     14  C   UNL     1       5.731   1.989  11.224  0.00  0.00    +0.000 A 
ATOM     15  O   UNL     1       6.615   2.524  12.103  0.00  0.00    +0.000 OA
ENDBRANCH   7  11
BRANCH   1  16
ATOM     16  C   UNL     1       4.667   3.176  19.471  0.00  0.00    +0.000 C 
BRANCH  16  17
ATOM     17  O   UNL     1       4.153   3.343  20.799  0.00  0.00    +0.000 OA
BRANCH  17  19
ATOM     18  O   UNL     1       2.910   2.014  22.179  0.00  0.00    +0.000 OA
ATOM     19  C   UNL     1       3.092   2.524  21.081  0.00  0.00    +0.000 C 
BRANCH  19  20
ATOM     20  C   UNL     1       2.263   2.278  19.829  0.00  0.00    +0.000 C 
BRANCH  20  21
ATOM     21  S   UNL     1       0.797   3.372  19.831  0.00  0.00    +0.000 S 
BRANCH  21  22
ATOM     22  C   UNL     1       1.524   4.964  19.480  0.00  0.00    +0.000 A 
ATOM     23  C   UNL     1       1.625   5.890  20.526  0.00  0.00    +0.000 A 
ATOM     24  C   UNL     1       2.072   7.194  20.285  0.00  0.00    +0.000 A 
ATOM     25  C   UNL     1       2.413   7.591  18.992  0.00  0.00    +0.000 A 
ATOM     26  C   UNL     1       2.314   6.678  17.943  0.00  0.00    +0.000 A 
ATOM     27  C   UNL     1       1.874   5.377  18.191  0.00  0.00    +0.000 A 
ATOM     28  F   UNL     1       1.773   4.532  17.153  0.00  0.00    +0.000 F 
ENDBRANCH  21  22
ENDBRANCH  20  21
ENDBRANCH  19  20
ENDBRANCH  17  19
ENDBRANCH  16  17
ENDBRANCH   1  16
TORSDOF 7
ENDMDL
MODEL 4
REMARK VINA RESULT:      -7.2      3.628      7.994
REMARK  Name = 
REMARK  7 active torsions:
REMARK  status: ('A' for Active; 'I' for Inactive)
REMARK    1  A    between atoms: C_2  and  C_3
REMARK    2  A    between atoms: C_2  and  O_12
REMARK    3  A    between atoms: C_3  and  S_4
REMARK    4  A    between atoms: S_4  and  C_5
REMARK    5  A    between atoms: O_12  and  C_13
REMARK    6  A    between atoms: C_13  and  C_14
REMARK    7  A    between atoms: C_20  and  C_22
REMARK                            x       y       z     vdW  Elec       q    Type
REMARK                         _______ _______ _______ _____ _____    ______ ____
ROOT
ATOM      1  C   UNL     1       3.773   6.177  18.888  0.00  0.00    +0.000 C 
ATOM      2  O   UNL     1       4.243   5.457  19.774  0.00  0.00    +0.000 OA
ATOM      3  N   UNL     1       2.565   6.840  19.054  0.00  0.00    +0.000 N 
ATOM      4  C   UNL     1       1.907   6.840  20.372  0.00  0.00    +0.000 C 
ATOM      5  C   UNL     1       1.619   8.275  20.861  0.00  0.00    +0.000 C 
ATOM      6  N   UNL     1       0.958   9.072  19.819  0.00  0.00    +0.000 N 
ATOM      7  C   UNL     1      -0.089   9.934  20.170  0.00  0.00    +0.000 C 
ATOM      8  O   UNL     1      -0.399  10.088  21.353  0.00  0.00    +0.000 OA
ATOM      9  C   UNL     1       1.674   9.075  18.534  0.00  0.00    +0.000 C 
ATOM     10  C   UNL     1       1.865   7.636  18.038  0.00  0.00    +0.000 C 
ENDROOT
BRANCH   7  11
ATOM     11  C   UNL     1      -0.800  10.643  19.118  0.00  0.00    +0.000 A 
ATOM     12  C   UNL     1      -1.732  10.187  18.201  0.00  0.00    +0.000 A 
ATOM     13  C   UNL     1      -2.116  11.300  17.415  0.00  0.00    +0.000 A 
ATOM     14  C   UNL     1      -1.357  12.357  17.854  0.00  0.00    +0.000 A 
ATOM     15  O   UNL     1      -0.533  11.965  18.858  0.00  0.00    +0.000 OA
ENDBRANCH   7  11
BRANCH   1  16
ATOM     16  C   UNL     1       4.527   6.354  17.559  0.00  0.00    +0.000 C 
BRANCH  16  17
ATOM     17  O   UNL     1       5.572   5.388  17.377  0.00  0.00    +0.000 OA
BRANCH  17  19
ATOM     18  O   UNL     1       5.949   3.873  15.711  0.00  0.00    +0.000 OA
ATOM     19  C   UNL     1       5.214   4.342  16.570  0.00  0.00    +0.000 C 
BRANCH  19  20
ATOM     20  C   UNL     1       3.771   3.935  16.836  0.00  0.00    +0.000 C 
BRANCH  20  21
ATOM     21  S   UNL     1       3.723   2.256  17.559  0.00  0.00    +0.000 S 
BRANCH  21  22
ATOM     22  C   UNL     1       2.782   2.524  19.052  0.00  0.00    +0.000 A 
ATOM     23  C   UNL     1       1.468   2.997  18.929  0.00  0.00    +0.000 A 
ATOM     24  C   UNL     1       0.724   3.342  20.063  0.00  0.00    +0.000 A 
ATOM     25  C   UNL     1       1.289   3.228  21.334  0.00  0.00    +0.000 A 
ATOM     26  C   UNL     1       2.596   2.761  21.467  0.00  0.00    +0.000 A 
ATOM     27  C   UNL     1       3.330   2.412  20.332  0.00  0.00    +0.000 A 
ATOM     28  F   UNL     1       4.592   1.985  20.499  0.00  0.00    +0.000 F 
ENDBRANCH  21  22
ENDBRANCH  20  21
ENDBRANCH  19  20
ENDBRANCH  17  19
ENDBRANCH  16  17
ENDBRANCH   1  16
TORSDOF 7
ENDMDL
MODEL 5
REMARK VINA RESULT:      -7.2      5.686      8.002
REMARK  Name = 
REMARK  7 active torsions:
REMARK  status: ('A' for Active; 'I' for Inactive)
REMARK    1  A    between atoms: C_2  and  C_3
REMARK    2  A    between atoms: C_2  and  O_12
REMARK    3  A    between atoms: C_3  and  S_4
REMARK    4  A    between atoms: S_4  and  C_5
REMARK    5  A    between atoms: O_12  and  C_13
REMARK    6  A    between atoms: C_13  and  C_14
REMARK    7  A    between atoms: C_20  and  C_22
REMARK                            x       y       z     vdW  Elec       q    Type
REMARK                         _______ _______ _______ _____ _____    ______ ____
ROOT
ATOM      1  C   UNL     1       7.159   6.445  16.853  0.00  0.00    +0.000 C 
ATOM      2  O   UNL     1       7.751   6.314  15.778  0.00  0.00    +0.000 OA
ATOM      3  N   UNL     1       5.975   5.770  17.118  0.00  0.00    +0.000 N 
ATOM      4  C   UNL     1       5.496   4.739  16.183  0.00  0.00    +0.000 C 
ATOM      5  C   UNL     1       5.258   3.392  16.898  0.00  0.00    +0.000 C 
ATOM      6  N   UNL     1       4.455   3.570  18.116  0.00  0.00    +0.000 N 
ATOM      7  C   UNL     1       3.453   2.641  18.423  0.00  0.00    +0.000 C 
ATOM      8  O   UNL     1       3.299   1.637  17.724  0.00  0.00    +0.000 OA
ATOM      9  C   UNL     1       4.996   4.580  19.038  0.00  0.00    +0.000 C 
ATOM     10  C   UNL     1       5.138   5.926  18.315  0.00  0.00    +0.000 C 
ENDROOT
BRANCH   7  11
ATOM     11  C   UNL     1       2.600   2.880  19.577  0.00  0.00    +0.000 A 
ATOM     12  C   UNL     1       1.390   3.545  19.675  0.00  0.00    +0.000 A 
ATOM     13  C   UNL     1       0.986   3.468  21.030  0.00  0.00    +0.000 A 
ATOM     14  C   UNL     1       1.996   2.814  21.693  0.00  0.00    +0.000 A 
ATOM     15  O   UNL     1       2.992   2.486  20.832  0.00  0.00    +0.000 OA
ENDBRANCH   7  11
BRANCH   1  16
ATOM     16  C   UNL     1       7.730   7.375  17.937  0.00  0.00    +0.000 C 
BRANCH  16  17
ATOM     17  O   UNL     1       7.655   8.762  17.579  0.00  0.00    +0.000 OA
BRANCH  17  19
ATOM     18  O   UNL     1       9.166   9.155  19.246  0.00  0.00    +0.000 OA
ATOM     19  C   UNL     1       8.516   9.556  18.289  0.00  0.00    +0.000 C 
BRANCH  19  20
ATOM     20  C   UNL     1       8.460  10.989  17.779  0.00  0.00    +0.000 C 
BRANCH  20  21
ATOM     21  S   UNL     1      10.093  11.786  17.991  0.00  0.00    +0.000 S 
BRANCH  21  22
ATOM     22  C   UNL     1       9.658  13.517  18.012  0.00  0.00    +0.000 A 
ATOM     23  C   UNL     1       8.299  13.857  18.068  0.00  0.00    +0.000 A 
ATOM     24  C   UNL     1       7.892  15.192  17.964  0.00  0.00    +0.000 A 
ATOM     25  C   UNL     1       8.838  16.202  17.792  0.00  0.00    +0.000 A 
ATOM     26  C   UNL     1      10.192  15.876  17.733  0.00  0.00    +0.000 A 
ATOM     27  C   UNL     1      10.592  14.543  17.844  0.00  0.00    +0.000 A 
ATOM     28  F   UNL     1      11.903  14.265  17.763  0.00  0.00    +0.000 F 
ENDBRANCH  21  22
ENDBRANCH  20  21
ENDBRANCH  19  20
ENDBRANCH  17  19
ENDBRANCH  16  17
ENDBRANCH   1  16
TORSDOF 7
ENDMDL
MODEL 6
REMARK VINA RESULT:      -7.2      5.674      7.952
REMARK  Name = 
REMARK  7 active torsions:
REMARK  status: ('A' for Active; 'I' for Inactive)
REMARK    1  A    between atoms: C_2  and  C_3
REMARK    2  A    between atoms: C_2  and  O_12
REMARK    3  A    between atoms: C_3  and  S_4
REMARK    4  A    between atoms: S_4  and  C_5
REMARK    5  A    between atoms: O_12  and  C_13
REMARK    6  A    between atoms: C_13  and  C_14
REMARK    7  A    between atoms: C_20  and  C_22
REMARK                            x       y       z     vdW  Elec       q    Type
REMARK                         _______ _______ _______ _____ _____    ______ ____
ROOT
ATOM      1  C   UNL     1       7.196   6.562  16.880  0.00  0.00    +0.000 C 
ATOM      2  O   UNL     1       7.783   6.456  15.800  0.00  0.00    +0.000 OA
ATOM      3  N   UNL     1       6.010   5.886  17.133  0.00  0.00    +0.000 N 
ATOM      4  C   UNL     1       5.524   4.880  16.174  0.00  0.00    +0.000 C 
ATOM      5  C   UNL     1       5.282   3.517  16.856  0.00  0.00    +0.000 C 
ATOM      6  N   UNL     1       4.485   3.667  18.080  0.00  0.00    +0.000 N 
ATOM      7  C   UNL     1       3.480   2.735  18.367  0.00  0.00    +0.000 C 
ATOM      8  O   UNL     1       3.319   1.749  17.644  0.00  0.00    +0.000 OA
ATOM      9  C   UNL     1       5.033   4.651  19.026  0.00  0.00    +0.000 C 
ATOM     10  C   UNL     1       5.178   6.015  18.336  0.00  0.00    +0.000 C 
ENDROOT
BRANCH   7  11
ATOM     11  C   UNL     1       2.633   2.947  19.531  0.00  0.00    +0.000 A 
ATOM     12  C   UNL     1       1.413   3.593  19.645  0.00  0.00    +0.000 A 
ATOM     13  C   UNL     1       1.021   3.495  21.002  0.00  0.00    +0.000 A 
ATOM     14  C   UNL     1       2.045   2.849  21.650  0.00  0.00    +0.000 A 
ATOM     15  O   UNL     1       3.040   2.545  20.778  0.00  0.00    +0.000 OA
ENDBRANCH   7  11
BRANCH   1  16
ATOM     16  C   UNL     1       7.774   7.463  17.986  0.00  0.00    +0.000 C 
BRANCH  16  17
ATOM     17  O   UNL     1       7.789   8.851  17.625  0.00  0.00    +0.000 OA
BRANCH  17  19
ATOM     18  O   UNL     1       9.180   9.182  19.405  0.00  0.00    +0.000 OA
ATOM     19  C   UNL     1       8.630   9.607  18.397  0.00  0.00    +0.000 C 
BRANCH  19  20
ATOM     20  C   UNL     1       8.689  11.036  17.876  0.00  0.00    +0.000 C 
BRANCH  20  21
ATOM     21  S   UNL     1      10.416  11.638  17.912  0.00  0.00    +0.000 S 
BRANCH  21  22
ATOM     22  C   UNL     1      10.377  12.790  19.274  0.00  0.00    +0.000 A 
ATOM     23  C   UNL     1       9.996  12.311  20.535  0.00  0.00    +0.000 A 
ATOM     24  C   UNL     1       9.829  13.188  21.611  0.00  0.00    +0.000 A 
ATOM     25  C   UNL     1      10.031  14.558  21.438  0.00  0.00    +0.000 A 
ATOM     26  C   UNL     1      10.408  15.046  20.188  0.00  0.00    +0.000 A 
ATOM     27  C   UNL     1      10.580  14.164  19.120  0.00  0.00    +0.000 A 
ATOM     28  F   UNL     1      10.925  14.673  17.926  0.00  0.00    +0.000 F 
ENDBRANCH  21  22
ENDBRANCH  20  21
ENDBRANCH  19  20
ENDBRANCH  17  19
ENDBRANCH  16  17
ENDBRANCH   1  16
TORSDOF 7
ENDMDL
MODEL 7
REMARK VINA RESULT:      -7.1      5.544      7.848
REMARK  Name = 
REMARK  7 active torsions:
REMARK  status: ('A' for Active; 'I' for Inactive)
REMARK    1  A    between atoms: C_2  and  C_3
REMARK    2  A    between atoms: C_2  and  O_12
REMARK    3  A    between atoms: C_3  and  S_4
REMARK    4  A    between atoms: S_4  and  C_5
REMARK    5  A    between atoms: O_12  and  C_13
REMARK    6  A    between atoms: C_13  and  C_14
REMARK    7  A    between atoms: C_20  and  C_22
REMARK                            x       y       z     vdW  Elec       q    Type
REMARK                         _______ _______ _______ _____ _____    ______ ____
ROOT
ATOM      1  C   UNL     1       7.147   6.513  16.828  0.00  0.00    +0.000 C 
ATOM      2  O   UNL     1       7.763   6.370  15.768  0.00  0.00    +0.000 OA
ATOM      3  N   UNL     1       5.974   5.817  17.087  0.00  0.00    +0.000 N 
ATOM      4  C   UNL     1       5.539   4.751  16.169  0.00  0.00    +0.000 C 
ATOM      5  C   UNL     1       5.318   3.418  16.913  0.00  0.00    +0.000 C 
ATOM      6  N   UNL     1       4.486   3.606  18.109  0.00  0.00    +0.000 N 
ATOM      7  C   UNL     1       3.500   2.661  18.420  0.00  0.00    +0.000 C 
ATOM      8  O   UNL     1       3.384   1.636  17.744  0.00  0.00    +0.000 OA
ATOM      9  C   UNL     1       4.984   4.652  19.016  0.00  0.00    +0.000 C 
ATOM     10  C   UNL     1       5.109   5.982  18.262  0.00  0.00    +0.000 C 
ENDROOT
BRANCH   7  11
ATOM     11  C   UNL     1       2.619   2.908  19.551  0.00  0.00    +0.000 A 
ATOM     12  C   UNL     1       1.424   3.605  19.621  0.00  0.00    +0.000 A 
ATOM     13  C   UNL     1       0.977   3.521  20.961  0.00  0.00    +0.000 A 
ATOM     14  C   UNL     1       1.947   2.831  21.645  0.00  0.00    +0.000 A 
ATOM     15  O   UNL     1       2.961   2.487  20.812  0.00  0.00    +0.000 OA
ENDBRANCH   7  11
BRANCH   1  16
ATOM     16  C   UNL     1       7.673   7.484  17.899  0.00  0.00    +0.000 C 
BRANCH  16  17
ATOM     17  O   UNL     1       7.683   8.849  17.459  0.00  0.00    +0.000 OA
BRANCH  17  19
ATOM     18  O   UNL     1       9.063   9.279  19.228  0.00  0.00    +0.000 OA
ATOM     19  C   UNL     1       8.481   9.661  18.220  0.00  0.00    +0.000 C 
BRANCH  19  20
ATOM     20  C   UNL     1       8.450  11.087  17.687  0.00  0.00    +0.000 C 
BRANCH  20  21
ATOM     21  S   UNL     1      10.091  11.865  17.900  0.00  0.00    +0.000 S 
BRANCH  21  22
ATOM     22  C   UNL     1       9.800  12.972  19.270  0.00  0.00    +0.000 A 
ATOM     23  C   UNL     1       9.369  14.275  18.986  0.00  0.00    +0.000 A 
ATOM     24  C   UNL     1       9.242  15.223  20.007  0.00  0.00    +0.000 A 
ATOM     25  C   UNL     1       9.555  14.883  21.323  0.00  0.00    +0.000 A 
ATOM     26  C   UNL     1       9.987  13.590  21.616  0.00  0.00    +0.000 A 
ATOM     27  C   UNL     1      10.105  12.647  20.594  0.00  0.00    +0.000 A 
ATOM     28  F   UNL     1      10.542  11.418  20.912  0.00  0.00    +0.000 F 
ENDBRANCH  21  22
ENDBRANCH  20  21
ENDBRANCH  19  20
ENDBRANCH  17  19
ENDBRANCH  16  17
ENDBRANCH   1  16
TORSDOF 7
ENDMDL
MODEL 8
REMARK VINA RESULT:      -7.1      3.873      9.235
REMARK  Name = 
REMARK  7 active torsions:
REMARK  status: ('A' for Active; 'I' for Inactive)
REMARK    1  A    between atoms: C_2  and  C_3
REMARK    2  A    between atoms: C_2  and  O_12
REMARK    3  A    between atoms: C_3  and  S_4
REMARK    4  A    between atoms: S_4  and  C_5
REMARK    5  A    between atoms: O_12  and  C_13
REMARK    6  A    between atoms: C_13  and  C_14
REMARK    7  A    between atoms: C_20  and  C_22
REMARK                            x       y       z     vdW  Elec       q    Type
REMARK                         _______ _______ _______ _____ _____    ______ ____
ROOT
ATOM      1  C   UNL     1       2.149   7.037  19.456  0.00  0.00    +0.000 C 
ATOM      2  O   UNL     1       2.581   6.667  18.361  0.00  0.00    +0.000 OA
ATOM      3  N   UNL     1       1.708   8.336  19.664  0.00  0.00    +0.000 N 
ATOM      4  C   UNL     1       1.577   9.255  18.520  0.00  0.00    +0.000 C 
ATOM      5  C   UNL     1       0.156   9.849  18.429  0.00  0.00    +0.000 C 
ATOM      6  N   UNL     1      -0.284  10.381  19.726  0.00  0.00    +0.000 N 
ATOM      7  C   UNL     1      -0.982  11.593  19.773  0.00  0.00    +0.000 C 
ATOM      8  O   UNL     1      -1.300  12.170  18.731  0.00  0.00    +0.000 OA
ATOM      9  C   UNL     1      -0.175   9.413  20.829  0.00  0.00    +0.000 C 
ATOM     10  C   UNL     1       1.271   8.911  20.943  0.00  0.00    +0.000 C 
ENDROOT
BRANCH   7  11
ATOM     11  C   UNL     1      -1.327  12.159  21.068  0.00  0.00    +0.000 A 
ATOM     12  C   UNL     1      -2.556  12.287  21.692  0.00  0.00    +0.000 A 
ATOM     13  C   UNL     1      -2.320  12.895  22.949  0.00  0.00    +0.000 A 
ATOM     14  C   UNL     1      -0.972  13.157  22.998  0.00  0.00    +0.000 A 
ATOM     15  O   UNL     1      -0.368  12.749  21.854  0.00  0.00    +0.000 OA
ENDBRANCH   7  11
BRANCH   1  16
ATOM     16  C   UNL     1       2.092   6.048  20.635  0.00  0.00    +0.000 C 
BRANCH  16  17
ATOM     17  O   UNL     1       1.377   4.845  20.321  0.00  0.00    +0.000 OA
BRANCH  17  19
ATOM     18  O   UNL     1       2.127   3.493  22.001  0.00  0.00    +0.000 OA
ATOM     19  C   UNL     1       1.974   3.713  20.806  0.00  0.00    +0.000 C 
BRANCH  19  20
ATOM     20  C   UNL     1       2.489   2.851  19.662  0.00  0.00    +0.000 C 
BRANCH  20  21
ATOM     21  S   UNL     1       4.316   2.794  19.701  0.00  0.00    +0.000 S 
BRANCH  21  22
ATOM     22  C   UNL     1       4.749   3.933  18.397  0.00  0.00    +0.000 A 
ATOM     23  C   UNL     1       4.305   3.652  17.098  0.00  0.00    +0.000 A 
ATOM     24  C   UNL     1       4.714   4.439  16.017  0.00  0.00    +0.000 A 
ATOM     25  C   UNL     1       5.582   5.513  16.220  0.00  0.00    +0.000 A 
ATOM     26  C   UNL     1       6.032   5.801  17.507  0.00  0.00    +0.000 A 
ATOM     27  C   UNL     1       5.614   5.015  18.583  0.00  0.00    +0.000 A 
ATOM     28  F   UNL     1       6.084   5.311  19.805  0.00  0.00    +0.000 F 
ENDBRANCH  21  22
ENDBRANCH  20  21
ENDBRANCH  19  20
ENDBRANCH  17  19
ENDBRANCH  16  17
ENDBRANCH   1  16
TORSDOF 7
ENDMDL
MODEL 9
REMARK VINA RESULT:      -7.1      3.293      7.752
REMARK  Name = 
REMARK  7 active torsions:
REMARK  status: ('A' for Active; 'I' for Inactive)
REMARK    1  A    between atoms: C_2  and  C_3
REMARK    2  A    between atoms: C_2  and  O_12
REMARK    3  A    between atoms: C_3  and  S_4
REMARK    4  A    between atoms: S_4  and  C_5
REMARK    5  A    between atoms: O_12  and  C_13
REMARK    6  A    between atoms: C_13  and  C_14
REMARK    7  A    between atoms: C_20  and  C_22
REMARK                            x       y       z     vdW  Elec       q    Type
REMARK                         _______ _______ _______ _____ _____    ______ ____
ROOT
ATOM      1  C   UNL     1       3.901   6.250  18.848  0.00  0.00    +0.000 C 
ATOM      2  O   UNL     1       4.419   5.610  19.767  0.00  0.00    +0.000 OA
ATOM      3  N   UNL     1       2.671   6.875  19.000  0.00  0.00    +0.000 N 
ATOM      4  C   UNL     1       2.043   6.937  20.330  0.00  0.00    +0.000 C 
ATOM      5  C   UNL     1       1.708   8.389  20.731  0.00  0.00    +0.000 C 
ATOM      6  N   UNL     1       0.992   9.088  19.655  0.00  0.00    +0.000 N 
ATOM      7  C   UNL     1      -0.081   9.930  19.974  0.00  0.00    +0.000 C 
ATOM      8  O   UNL     1      -0.372  10.150  21.152  0.00  0.00    +0.000 OA
ATOM      9  C   UNL     1       1.680   9.034  18.356  0.00  0.00    +0.000 C 
ATOM     10  C   UNL     1       1.918   7.573  17.951  0.00  0.00    +0.000 C 
ENDROOT
BRANCH   7  11
ATOM     11  C   UNL     1      -0.843  10.540  18.895  0.00  0.00    +0.000 A 
ATOM     12  C   UNL     1      -0.967  11.868  18.525  0.00  0.00    +0.000 A 
ATOM     13  C   UNL     1      -1.820  11.903  17.395  0.00  0.00    +0.000 A 
ATOM     14  C   UNL     1      -2.215  10.605  17.175  0.00  0.00    +0.000 A 
ATOM     15  O   UNL     1      -1.660   9.779  18.096  0.00  0.00    +0.000 OA
ENDBRANCH   7  11
BRANCH   1  16
ATOM     16  C   UNL     1       4.619   6.367  17.492  0.00  0.00    +0.000 C 
BRANCH  16  17
ATOM     17  O   UNL     1       5.696   5.432  17.347  0.00  0.00    +0.000 OA
BRANCH  17  19
ATOM     18  O   UNL     1       6.162   3.751  15.873  0.00  0.00    +0.000 OA
ATOM     19  C   UNL     1       5.367   4.331  16.602  0.00  0.00    +0.000 C 
BRANCH  19  20
ATOM     20  C   UNL     1       3.885   4.017  16.744  0.00  0.00    +0.000 C 
BRANCH  20  21
ATOM     21  S   UNL     1       3.671   2.380  17.533  0.00  0.00    +0.000 S 
BRANCH  21  22
ATOM     22  C   UNL     1       2.784   2.802  19.023  0.00  0.00    +0.000 A 
ATOM     23  C   UNL     1       3.353   2.447  20.254  0.00  0.00    +0.000 A 
ATOM     24  C   UNL     1       2.651   2.641  21.448  0.00  0.00    +0.000 A 
ATOM     25  C   UNL     1       1.365   3.183  21.426  0.00  0.00    +0.000 A 
ATOM     26  C   UNL     1       0.788   3.537  20.207  0.00  0.00    +0.000 A 
ATOM     27  C   UNL     1       1.498   3.347  19.020  0.00  0.00    +0.000 A 
ATOM     28  F   UNL     1       0.902   3.683  17.865  0.00  0.00    +0.000 F 
ENDBRANCH  21  22
ENDBRANCH  20  21
ENDBRANCH  19  20
ENDBRANCH  17  19
ENDBRANCH  16  17
ENDBRANCH   1  16
TORSDOF 7
ENDMDL
