MODEL 1
REMARK VINA RESULT:      -8.5      0.000      0.000
REMARK  Name = 
REMARK  6 active torsions:
REMARK  status: ('A' for Active; 'I' for Inactive)
REMARK    1  A    between atoms: C_1  and  N_2
REMARK    2  A    between atoms: N_2  and  C_3
REMARK    3  A    between atoms: N_2  and  C_22
REMARK    4  A    between atoms: C_3  and  C_4
REMARK    5  A    between atoms: C_7  and  C_8
REMARK    6  A    between atoms: C_25  and  C_26
REMARK                            x       y       z     vdW  Elec       q    Type
REMARK                         _______ _______ _______ _____ _____    ______ ____
ROOT
ATOM      1  C   UNL     1       3.310   6.123  19.303  0.00  0.00    +0.000 C 
ATOM      2  C   UNL     1       2.773   6.874  18.077  0.00  0.00    +0.000 C 
ATOM      3  C   UNL     1       2.226   8.254  18.472  0.00  0.00    +0.000 C 
ATOM      4  C   UNL     1       1.128   8.181  19.557  0.00  0.00    +0.000 C 
ATOM      5  C   UNL     1       1.595   7.313  20.738  0.00  0.00    +0.000 C 
ATOM      6  C   UNL     1       2.179   5.966  20.330  0.00  0.00    +0.000 C 
ENDROOT
BRANCH   4   7
ATOM      7  C   UNL     1       0.741   9.536  20.081  0.00  0.00    +0.000 A 
ATOM      8  N   UNL     1       1.244   9.977  21.298  0.00  0.00    +0.000 NA
ATOM      9  N   UNL     1       0.686  11.144  21.607  0.00  0.00    +0.000 NA
ATOM     10  N   UNL     1      -0.166  11.440  20.616  0.00  0.00    +0.000 N 
ATOM     11  C   UNL     1      -0.974  12.583  20.590  0.00  0.00    +0.000 A 
ATOM     12  N   UNL     1      -1.815  12.822  19.610  0.00  0.00    +0.000 NA
ATOM     13  C   UNL     1      -1.829  11.862  18.636  0.00  0.00    +0.000 A 
ATOM     14  N   UNL     1      -2.641  11.925  17.538  0.00  0.00    +0.000 N 
ATOM     15  C   UNL     1      -2.426  10.811  16.755  0.00  0.00    +0.000 A 
ATOM     16  C   UNL     1      -1.462  10.021  17.359  0.00  0.00    +0.000 A 
ATOM     17  C   UNL     1      -1.094  10.689  18.533  0.00  0.00    +0.000 A 
ATOM     18  C   UNL     1      -0.165  10.471  19.646  0.00  0.00    +0.000 A 
ATOM     19  H   UNL     1      -3.288  12.680  17.356  0.00  0.00    +0.000 HD
ENDBRANCH   4   7
BRANCH   1  20
ATOM     20  C   UNL     1       3.919   4.738  18.989  0.00  0.00    +0.000 C 
BRANCH  20  22
ATOM     21  C   UNL     1       6.285   5.476  19.420  0.00  0.00    +0.000 C 
ATOM     22  N   UNL     1       5.321   4.814  18.550  0.00  0.00    +0.000 N 
BRANCH  22  23
ATOM     23  C   UNL     1       5.629   4.636  17.202  0.00  0.00    +0.000 A 
ATOM     24  C   UNL     1       4.671   4.146  16.302  0.00  0.00    +0.000 A 
ATOM     25  C   UNL     1       4.968   3.901  14.958  0.00  0.00    +0.000 A 
ATOM     26  C   UNL     1       6.243   4.172  14.469  0.00  0.00    +0.000 A 
ATOM     27  C   UNL     1       7.214   4.679  15.331  0.00  0.00    +0.000 A 
ATOM     28  C   UNL     1       6.907   4.899  16.679  0.00  0.00    +0.000 A 
BRANCH  26  29
ATOM     29  C   UNL     1       6.554   3.926  13.096  0.00  0.00    +0.000 C 
ATOM     30  N   UNL     1       6.808   3.728  11.977  0.00  0.00    +0.000 NA
ENDBRANCH  26  29
ENDBRANCH  22  23
ENDBRANCH  20  22
ENDBRANCH   1  20
TORSDOF 5
ENDMDL
MODEL 2
REMARK VINA RESULT:      -8.5      2.846     10.011
REMARK  Name = 
REMARK  6 active torsions:
REMARK  status: ('A' for Active; 'I' for Inactive)
REMARK    1  A    between atoms: C_1  and  N_2
REMARK    2  A    between atoms: N_2  and  C_3
REMARK    3  A    between atoms: N_2  and  C_22
REMARK    4  A    between atoms: C_3  and  C_4
REMARK    5  A    between atoms: C_7  and  C_8
REMARK    6  A    between atoms: C_25  and  C_26
REMARK                            x       y       z     vdW  Elec       q    Type
REMARK                         _______ _______ _______ _____ _____    ______ ____
ROOT
ATOM      1  C   UNL     1       1.197  10.277  19.137  0.00  0.00    +0.000 C 
ATOM      2  C   UNL     1       0.768   9.129  20.061  0.00  0.00    +0.000 C 
ATOM      3  C   UNL     1       1.810   8.001  20.057  0.00  0.00    +0.000 C 
ATOM      4  C   UNL     1       2.098   7.447  18.643  0.00  0.00    +0.000 C 
ATOM      5  C   UNL     1       2.393   8.598  17.665  0.00  0.00    +0.000 C 
ATOM      6  C   UNL     1       1.377   9.733  17.712  0.00  0.00    +0.000 C 
ENDROOT
BRANCH   4   7
ATOM      7  C   UNL     1       3.256   6.490  18.621  0.00  0.00    +0.000 A 
ATOM      8  N   UNL     1       4.344   6.738  17.794  0.00  0.00    +0.000 NA
ATOM      9  N   UNL     1       5.188   5.712  17.860  0.00  0.00    +0.000 NA
ATOM     10  N   UNL     1       4.649   4.819  18.701  0.00  0.00    +0.000 N 
ATOM     11  C   UNL     1       5.226   3.582  19.009  0.00  0.00    +0.000 A 
ATOM     12  N   UNL     1       4.649   2.725  19.821  0.00  0.00    +0.000 NA
ATOM     13  C   UNL     1       3.449   3.147  20.322  0.00  0.00    +0.000 A 
ATOM     14  N   UNL     1       2.692   2.395  21.177  0.00  0.00    +0.000 N 
ATOM     15  C   UNL     1       1.545   3.091  21.492  0.00  0.00    +0.000 A 
ATOM     16  C   UNL     1       1.565   4.308  20.830  0.00  0.00    +0.000 A 
ATOM     17  C   UNL     1       2.762   4.333  20.104  0.00  0.00    +0.000 A 
ATOM     18  C   UNL     1       3.449   5.259  19.198  0.00  0.00    +0.000 A 
ATOM     19  H   UNL     1       2.956   1.477  21.507  0.00  0.00    +0.000 HD
ENDBRANCH   4   7
BRANCH   1  20
ATOM     20  C   UNL     1       0.223  11.476  19.111  0.00  0.00    +0.000 C 
BRANCH  20  22
ATOM     21  C   UNL     1       1.668  12.847  20.648  0.00  0.00    +0.000 C 
ATOM     22  N   UNL     1       0.347  12.342  20.295  0.00  0.00    +0.000 N 
BRANCH  22  23
ATOM     23  C   UNL     1      -0.661  12.337  21.257  0.00  0.00    +0.000 A 
ATOM     24  C   UNL     1      -0.658  11.400  22.301  0.00  0.00    +0.000 A 
ATOM     25  C   UNL     1      -1.686  11.334  23.246  0.00  0.00    +0.000 A 
ATOM     26  C   UNL     1      -2.745  12.235  23.183  0.00  0.00    +0.000 A 
ATOM     27  C   UNL     1      -2.770  13.193  22.172  0.00  0.00    +0.000 A 
ATOM     28  C   UNL     1      -1.744  13.233  21.220  0.00  0.00    +0.000 A 
BRANCH  26  29
ATOM     29  C   UNL     1      -3.799  12.175  24.147  0.00  0.00    +0.000 C 
ATOM     30  N   UNL     1      -4.660  12.126  24.929  0.00  0.00    +0.000 NA
ENDBRANCH  26  29
ENDBRANCH  22  23
ENDBRANCH  20  22
ENDBRANCH   1  20
TORSDOF 5
ENDMDL
MODEL 3
REMARK VINA RESULT:      -8.4      2.442     10.035
REMARK  Name = 
REMARK  6 active torsions:
REMARK  status: ('A' for Active; 'I' for Inactive)
REMARK    1  A    between atoms: C_1  and  N_2
REMARK    2  A    between atoms: N_2  and  C_3
REMARK    3  A    between atoms: N_2  and  C_22
REMARK    4  A    between atoms: C_3  and  C_4
REMARK    5  A    between atoms: C_7  and  C_8
REMARK    6  A    between atoms: C_25  and  C_26
REMARK                            x       y       z     vdW  Elec       q    Type
REMARK                         _______ _______ _______ _____ _____    ______ ____
ROOT
ATOM      1  C   UNL     1       0.866   9.832  19.314  0.00  0.00    +0.000 C 
ATOM      2  C   UNL     1       1.918   9.415  18.278  0.00  0.00    +0.000 C 
ATOM      3  C   UNL     1       2.030   7.885  18.194  0.00  0.00    +0.000 C 
ATOM      4  C   UNL     1       2.352   7.225  19.554  0.00  0.00    +0.000 C 
ATOM      5  C   UNL     1       1.393   7.740  20.641  0.00  0.00    +0.000 C 
ATOM      6  C   UNL     1       1.255   9.257  20.685  0.00  0.00    +0.000 C 
ENDROOT
BRANCH   4   7
ATOM      7  C   UNL     1       2.263   5.726  19.505  0.00  0.00    +0.000 A 
ATOM      8  N   UNL     1       1.468   5.050  20.422  0.00  0.00    +0.000 NA
ATOM      9  N   UNL     1       1.628   3.739  20.258  0.00  0.00    +0.000 NA
ATOM     10  N   UNL     1       2.515   3.577  19.266  0.00  0.00    +0.000 N 
ATOM     11  C   UNL     1       2.972   2.333  18.818  0.00  0.00    +0.000 A 
ATOM     12  N   UNL     1       3.863   2.221  17.858  0.00  0.00    +0.000 NA
ATOM     13  C   UNL     1       4.297   3.416  17.354  0.00  0.00    +0.000 A 
ATOM     14  N   UNL     1       5.228   3.510  16.356  0.00  0.00    +0.000 N 
ATOM     15  C   UNL     1       5.455   4.840  16.078  0.00  0.00    +0.000 A 
ATOM     16  C   UNL     1       4.660   5.612  16.909  0.00  0.00    +0.000 A 
ATOM     17  C   UNL     1       3.938   4.711  17.700  0.00  0.00    +0.000 A 
ATOM     18  C   UNL     1       2.936   4.783  18.769  0.00  0.00    +0.000 A 
ATOM     19  H   UNL     1       5.664   2.712  15.913  0.00  0.00    +0.000 HD
ENDBRANCH   4   7
BRANCH   1  20
ATOM     20  C   UNL     1       0.658  11.359  19.437  0.00  0.00    +0.000 C 
BRANCH  20  22
ATOM     21  C   UNL     1      -1.224  12.316  18.068  0.00  0.00    +0.000 C 
ATOM     22  N   UNL     1      -0.755  11.756  19.330  0.00  0.00    +0.000 N 
BRANCH  22  23
ATOM     23  C   UNL     1      -1.496  11.973  20.489  0.00  0.00    +0.000 A 
ATOM     24  C   UNL     1      -0.990  11.614  21.748  0.00  0.00    +0.000 A 
ATOM     25  C   UNL     1      -1.735  11.766  22.921  0.00  0.00    +0.000 A 
ATOM     26  C   UNL     1      -3.013  12.315  22.865  0.00  0.00    +0.000 A 
ATOM     27  C   UNL     1      -3.539  12.702  21.635  0.00  0.00    +0.000 A 
ATOM     28  C   UNL     1      -2.789  12.524  20.465  0.00  0.00    +0.000 A 
BRANCH  26  29
ATOM     29  C   UNL     1      -3.780  12.475  24.061  0.00  0.00    +0.000 C 
ATOM     30  N   UNL     1      -4.405  12.602  25.034  0.00  0.00    +0.000 NA
ENDBRANCH  26  29
ENDBRANCH  22  23
ENDBRANCH  20  22
ENDBRANCH   1  20
TORSDOF 5
ENDMDL
MODEL 4
REMARK VINA RESULT:      -8.3      2.388     10.235
REMARK  Name = 
REMARK  6 active torsions:
REMARK  status: ('A' for Active; 'I' for Inactive)
REMARK    1  A    between atoms: C_1  and  N_2
REMARK    2  A    between atoms: N_2  and  C_3
REMARK    3  A    between atoms: N_2  and  C_22
REMARK    4  A    between atoms: C_3  and  C_4
REMARK    5  A    between atoms: C_7  and  C_8
REMARK    6  A    between atoms: C_25  and  C_26
REMARK                            x       y       z     vdW  Elec       q    Type
REMARK                         _______ _______ _______ _____ _____    ______ ____
ROOT
ATOM      1  C   UNL     1       0.378   9.824  19.102  0.00  0.00    +0.000 C 
ATOM      2  C   UNL     1       1.530   9.405  18.179  0.00  0.00    +0.000 C 
ATOM      3  C   UNL     1       1.868   7.918  18.362  0.00  0.00    +0.000 C 
ATOM      4  C   UNL     1       2.216   7.551  19.823  0.00  0.00    +0.000 C 
ATOM      5  C   UNL     1       1.139   8.088  20.782  0.00  0.00    +0.000 C 
ATOM      6  C   UNL     1       0.778   9.552  20.560  0.00  0.00    +0.000 C 
ENDROOT
BRANCH   4   7
ATOM      7  C   UNL     1       2.349   6.069  20.032  0.00  0.00    +0.000 A 
ATOM      8  N   UNL     1       1.428   5.396  20.825  0.00  0.00    +0.000 NA
ATOM      9  N   UNL     1       1.805   4.127  20.953  0.00  0.00    +0.000 NA
ATOM     10  N   UNL     1       2.948   3.990  20.268  0.00  0.00    +0.000 N 
ATOM     11  C   UNL     1       3.679   2.799  20.189  0.00  0.00    +0.000 A 
ATOM     12  N   UNL     1       4.810   2.716  19.525  0.00  0.00    +0.000 NA
ATOM     13  C   UNL     1       5.201   3.886  18.936  0.00  0.00    +0.000 A 
ATOM     14  N   UNL     1       6.353   4.006  18.208  0.00  0.00    +0.000 N 
ATOM     15  C   UNL     1       6.466   5.303  17.756  0.00  0.00    +0.000 A 
ATOM     16  C   UNL     1       5.372   6.027  18.199  0.00  0.00    +0.000 A 
ATOM     17  C   UNL     1       4.586   5.131  18.933  0.00  0.00    +0.000 A 
ATOM     18  C   UNL     1       3.324   5.170  19.679  0.00  0.00    +0.000 A 
ATOM     19  H   UNL     1       7.001   3.247  18.046  0.00  0.00    +0.000 HD
ENDBRANCH   4   7
BRANCH   1  20
ATOM     20  C   UNL     1      -0.057  11.300  18.954  0.00  0.00    +0.000 C 
BRANCH  20  22
ATOM     21  C   UNL     1      -2.001  11.461  17.365  0.00  0.00    +0.000 C 
ATOM     22  N   UNL     1      -1.504  11.452  18.736  0.00  0.00    +0.000 N 
BRANCH  22  23
ATOM     23  C   UNL     1      -2.300  11.976  19.753  0.00  0.00    +0.000 A 
ATOM     24  C   UNL     1      -1.772  12.217  21.031  0.00  0.00    +0.000 A 
ATOM     25  C   UNL     1      -2.561  12.685  22.085  0.00  0.00    +0.000 A 
ATOM     26  C   UNL     1      -3.911  12.954  21.877  0.00  0.00    +0.000 A 
ATOM     27  C   UNL     1      -4.464  12.746  20.615  0.00  0.00    +0.000 A 
ATOM     28  C   UNL     1      -3.666  12.256  19.573  0.00  0.00    +0.000 A 
BRANCH  26  29
ATOM     29  C   UNL     1      -4.723  13.435  22.951  0.00  0.00    +0.000 C 
ATOM     30  N   UNL     1      -5.385  13.824  23.825  0.00  0.00    +0.000 NA
ENDBRANCH  26  29
ENDBRANCH  22  23
ENDBRANCH  20  22
ENDBRANCH   1  20
TORSDOF 5
ENDMDL
MODEL 5
REMARK VINA RESULT:      -8.3      2.231      9.396
REMARK  Name = 
REMARK  6 active torsions:
REMARK  status: ('A' for Active; 'I' for Inactive)
REMARK    1  A    between atoms: C_1  and  N_2
REMARK    2  A    between atoms: N_2  and  C_3
REMARK    3  A    between atoms: N_2  and  C_22
REMARK    4  A    between atoms: C_3  and  C_4
REMARK    5  A    between atoms: C_7  and  C_8
REMARK    6  A    between atoms: C_25  and  C_26
REMARK                            x       y       z     vdW  Elec       q    Type
REMARK                         _______ _______ _______ _____ _____    ______ ____
ROOT
ATOM      1  C   UNL     1       0.765   9.752  19.866  0.00  0.00    +0.000 C 
ATOM      2  C   UNL     1       1.767   9.403  18.757  0.00  0.00    +0.000 C 
ATOM      3  C   UNL     1       1.854   7.884  18.552  0.00  0.00    +0.000 C 
ATOM      4  C   UNL     1       2.224   7.119  19.843  0.00  0.00    +0.000 C 
ATOM      5  C   UNL     1       1.319   7.559  21.007  0.00  0.00    +0.000 C 
ATOM      6  C   UNL     1       1.204   9.070  21.171  0.00  0.00    +0.000 C 
ENDROOT
BRANCH   4   7
ATOM      7  C   UNL     1       2.112   5.629  19.686  0.00  0.00    +0.000 A 
ATOM      8  N   UNL     1       1.267   4.906  20.517  0.00  0.00    +0.000 NA
ATOM      9  N   UNL     1       1.412   3.607  20.269  0.00  0.00    +0.000 NA
ATOM     10  N   UNL     1       2.339   3.497  19.307  0.00  0.00    +0.000 N 
ATOM     11  C   UNL     1       2.795   2.278  18.792  0.00  0.00    +0.000 A 
ATOM     12  N   UNL     1       3.725   2.216  17.866  0.00  0.00    +0.000 NA
ATOM     13  C   UNL     1       4.200   3.434  17.466  0.00  0.00    +0.000 A 
ATOM     14  N   UNL     1       5.176   3.578  16.518  0.00  0.00    +0.000 N 
ATOM     15  C   UNL     1       5.437   4.920  16.345  0.00  0.00    +0.000 A 
ATOM     16  C   UNL     1       4.619   5.648  17.193  0.00  0.00    +0.000 A 
ATOM     17  C   UNL     1       3.848   4.708  17.887  0.00  0.00    +0.000 A 
ATOM     18  C   UNL     1       2.802   4.726  18.914  0.00  0.00    +0.000 A 
ATOM     19  H   UNL     1       5.617   2.806  16.039  0.00  0.00    +0.000 HD
ENDBRANCH   4   7
BRANCH   1  20
ATOM     20  C   UNL     1       0.584  11.267  20.112  0.00  0.00    +0.000 C 
BRANCH  20  22
ATOM     21  C   UNL     1       0.655  13.088  18.378  0.00  0.00    +0.000 C 
ATOM     22  N   UNL     1      -0.048  11.960  18.978  0.00  0.00    +0.000 N 
BRANCH  22  23
ATOM     23  C   UNL     1      -1.417  11.816  18.762  0.00  0.00    +0.000 A 
ATOM     24  C   UNL     1      -2.350  12.401  19.631  0.00  0.00    +0.000 A 
ATOM     25  C   UNL     1      -3.728  12.223  19.472  0.00  0.00    +0.000 A 
ATOM     26  C   UNL     1      -4.212  11.468  18.408  0.00  0.00    +0.000 A 
ATOM     27  C   UNL     1      -3.315  10.890  17.513  0.00  0.00    +0.000 A 
ATOM     28  C   UNL     1      -1.936  11.059  17.697  0.00  0.00    +0.000 A 
BRANCH  26  29
ATOM     29  C   UNL     1      -5.620  11.284  18.239  0.00  0.00    +0.000 C 
ATOM     30  N   UNL     1      -6.766  11.137  18.101  0.00  0.00    +0.000 NA
ENDBRANCH  26  29
ENDBRANCH  22  23
ENDBRANCH  20  22
ENDBRANCH   1  20
TORSDOF 5
ENDMDL
MODEL 6
REMARK VINA RESULT:      -8.2      2.413      8.914
REMARK  Name = 
REMARK  6 active torsions:
REMARK  status: ('A' for Active; 'I' for Inactive)
REMARK    1  A    between atoms: C_1  and  N_2
REMARK    2  A    between atoms: N_2  and  C_3
REMARK    3  A    between atoms: N_2  and  C_22
REMARK    4  A    between atoms: C_3  and  C_4
REMARK    5  A    between atoms: C_7  and  C_8
REMARK    6  A    between atoms: C_25  and  C_26
REMARK                            x       y       z     vdW  Elec       q    Type
REMARK                         _______ _______ _______ _____ _____    ______ ____
ROOT
ATOM      1  C   UNL     1       0.393   9.851  19.160  0.00  0.00    +0.000 C 
ATOM      2  C   UNL     1       1.543   9.435  18.234  0.00  0.00    +0.000 C 
ATOM      3  C   UNL     1       1.869   7.944  18.396  0.00  0.00    +0.000 C 
ATOM      4  C   UNL     1       2.210   7.553  19.852  0.00  0.00    +0.000 C 
ATOM      5  C   UNL     1       1.136   8.085  20.817  0.00  0.00    +0.000 C 
ATOM      6  C   UNL     1       0.788   9.555  20.615  0.00  0.00    +0.000 C 
ENDROOT
BRANCH   4   7
ATOM      7  C   UNL     1       2.330   6.067  20.040  0.00  0.00    +0.000 A 
ATOM      8  N   UNL     1       1.373   5.383  20.778  0.00  0.00    +0.000 NA
ATOM      9  N   UNL     1       1.741   4.110  20.901  0.00  0.00    +0.000 NA
ATOM     10  N   UNL     1       2.914   3.982  20.265  0.00  0.00    +0.000 N 
ATOM     11  C   UNL     1       3.645   2.791  20.198  0.00  0.00    +0.000 A 
ATOM     12  N   UNL     1       4.804   2.716  19.585  0.00  0.00    +0.000 NA
ATOM     13  C   UNL     1       5.224   3.895  19.035  0.00  0.00    +0.000 A 
ATOM     14  N   UNL     1       6.408   4.024  18.362  0.00  0.00    +0.000 N 
ATOM     15  C   UNL     1       6.545   5.329  17.939  0.00  0.00    +0.000 A 
ATOM     16  C   UNL     1       5.433   6.048  18.345  0.00  0.00    +0.000 A 
ATOM     17  C   UNL     1       4.613   5.141  19.027  0.00  0.00    +0.000 A 
ATOM     18  C   UNL     1       3.319   5.171  19.716  0.00  0.00    +0.000 A 
ATOM     19  H   UNL     1       7.061   3.266  18.217  0.00  0.00    +0.000 HD
ENDBRANCH   4   7
BRANCH   1  20
ATOM     20  C   UNL     1      -0.029  11.332  19.033  0.00  0.00    +0.000 C 
BRANCH  20  22
ATOM     21  C   UNL     1      -2.236  11.688  20.188  0.00  0.00    +0.000 C 
ATOM     22  N   UNL     1      -1.488  11.508  18.949  0.00  0.00    +0.000 N 
BRANCH  22  23
ATOM     23  C   UNL     1      -2.162  11.110  17.797  0.00  0.00    +0.000 A 
ATOM     24  C   UNL     1      -1.649  10.095  16.975  0.00  0.00    +0.000 A 
ATOM     25  C   UNL     1      -2.273   9.717  15.783  0.00  0.00    +0.000 A 
ATOM     26  C   UNL     1      -3.458  10.334  15.393  0.00  0.00    +0.000 A 
ATOM     27  C   UNL     1      -4.008  11.331  16.196  0.00  0.00    +0.000 A 
ATOM     28  C   UNL     1      -3.360  11.715  17.377  0.00  0.00    +0.000 A 
BRANCH  26  29
ATOM     29  C   UNL     1      -4.103   9.950  14.176  0.00  0.00    +0.000 C 
ATOM     30  N   UNL     1      -4.628   9.640  13.184  0.00  0.00    +0.000 NA
ENDBRANCH  26  29
ENDBRANCH  22  23
ENDBRANCH  20  22
ENDBRANCH   1  20
TORSDOF 5
ENDMDL
MODEL 7
REMARK VINA RESULT:      -8.2      2.273      9.552
REMARK  Name = 
REMARK  6 active torsions:
REMARK  status: ('A' for Active; 'I' for Inactive)
REMARK    1  A    between atoms: C_1  and  N_2
REMARK    2  A    between atoms: N_2  and  C_3
REMARK    3  A    between atoms: N_2  and  C_22
REMARK    4  A    between atoms: C_3  and  C_4
REMARK    5  A    between atoms: C_7  and  C_8
REMARK    6  A    between atoms: C_25  and  C_26
REMARK                            x       y       z     vdW  Elec       q    Type
REMARK                         _______ _______ _______ _____ _____    ______ ____
ROOT
ATOM      1  C   UNL     1       1.181  10.163  19.826  0.00  0.00    +0.000 C 
ATOM      2  C   UNL     1       0.957   8.826  20.547  0.00  0.00    +0.000 C 
ATOM      3  C   UNL     1       1.951   7.763  20.056  0.00  0.00    +0.000 C 
ATOM      4  C   UNL     1       1.896   7.542  18.528  0.00  0.00    +0.000 C 
ATOM      5  C   UNL     1       1.978   8.889  17.787  0.00  0.00    +0.000 C 
ATOM      6  C   UNL     1       1.020   9.949  18.313  0.00  0.00    +0.000 C 
ENDROOT
BRANCH   4   7
ATOM      7  C   UNL     1       3.002   6.653  18.032  0.00  0.00    +0.000 A 
ATOM      8  N   UNL     1       4.125   7.212  17.436  0.00  0.00    +0.000 NA
ATOM      9  N   UNL     1       4.911   6.240  16.982  0.00  0.00    +0.000 NA
ATOM     10  N   UNL     1       4.300   5.082  17.269  0.00  0.00    +0.000 N 
ATOM     11  C   UNL     1       4.801   3.822  16.921  0.00  0.00    +0.000 A 
ATOM     12  N   UNL     1       4.156   2.712  17.200  0.00  0.00    +0.000 NA
ATOM     13  C   UNL     1       2.966   2.903  17.846  0.00  0.00    +0.000 A 
ATOM     14  N   UNL     1       2.145   1.873  18.216  0.00  0.00    +0.000 N 
ATOM     15  C   UNL     1       1.028   2.390  18.836  0.00  0.00    +0.000 A 
ATOM     16  C   UNL     1       1.133   3.770  18.866  0.00  0.00    +0.000 A 
ATOM     17  C   UNL     1       2.350   4.080  18.247  0.00  0.00    +0.000 A 
ATOM     18  C   UNL     1       3.112   5.289  17.921  0.00  0.00    +0.000 A 
ATOM     19  H   UNL     1       2.350   0.898  18.045  0.00  0.00    +0.000 HD
ENDBRANCH   4   7
BRANCH   1  20
ATOM     20  C   UNL     1       0.248  11.304  20.288  0.00  0.00    +0.000 C 
BRANCH  20  22
ATOM     21  C   UNL     1       0.456  13.200  18.648  0.00  0.00    +0.000 C 
ATOM     22  N   UNL     1      -0.313  12.076  19.168  0.00  0.00    +0.000 N 
BRANCH  22  23
ATOM     23  C   UNL     1      -1.678  12.001  18.898  0.00  0.00    +0.000 A 
ATOM     24  C   UNL     1      -2.625  12.425  19.842  0.00  0.00    +0.000 A 
ATOM     25  C   UNL     1      -4.000  12.306  19.622  0.00  0.00    +0.000 A 
ATOM     26  C   UNL     1      -4.468  11.777  18.423  0.00  0.00    +0.000 A 
ATOM     27  C   UNL     1      -3.556  11.365  17.454  0.00  0.00    +0.000 A 
ATOM     28  C   UNL     1      -2.181  11.470  17.697  0.00  0.00    +0.000 A 
BRANCH  26  29
ATOM     29  C   UNL     1      -5.873  11.654  18.190  0.00  0.00    +0.000 C 
ATOM     30  N   UNL     1      -7.018  11.556  18.001  0.00  0.00    +0.000 NA
ENDBRANCH  26  29
ENDBRANCH  22  23
ENDBRANCH  20  22
ENDBRANCH   1  20
TORSDOF 5
ENDMDL
MODEL 8
REMARK VINA RESULT:      -8.2      0.790      1.213
REMARK  Name = 
REMARK  6 active torsions:
REMARK  status: ('A' for Active; 'I' for Inactive)
REMARK    1  A    between atoms: C_1  and  N_2
REMARK    2  A    between atoms: N_2  and  C_3
REMARK    3  A    between atoms: N_2  and  C_22
REMARK    4  A    between atoms: C_3  and  C_4
REMARK    5  A    between atoms: C_7  and  C_8
REMARK    6  A    between atoms: C_25  and  C_26
REMARK                            x       y       z     vdW  Elec       q    Type
REMARK                         _______ _______ _______ _____ _____    ______ ____
ROOT
ATOM      1  C   UNL     1       3.273   5.845  19.424  0.00  0.00    +0.000 C 
ATOM      2  C   UNL     1       2.749   6.839  18.378  0.00  0.00    +0.000 C 
ATOM      3  C   UNL     1       2.206   8.108  19.050  0.00  0.00    +0.000 C 
ATOM      4  C   UNL     1       1.098   7.817  20.088  0.00  0.00    +0.000 C 
ATOM      5  C   UNL     1       1.552   6.718  21.064  0.00  0.00    +0.000 C 
ATOM      6  C   UNL     1       2.132   5.483  20.387  0.00  0.00    +0.000 C 
ENDROOT
BRANCH   4   7
ATOM      7  C   UNL     1       0.713   9.035  20.880  0.00  0.00    +0.000 A 
ATOM      8  N   UNL     1       1.079   9.135  22.216  0.00  0.00    +0.000 NA
ATOM      9  N   UNL     1       0.542  10.235  22.737  0.00  0.00    +0.000 NA
ATOM     10  N   UNL     1      -0.163  10.822  21.760  0.00  0.00    +0.000 N 
ATOM     11  C   UNL     1      -0.906  11.996  21.925  0.00  0.00    +0.000 A 
ATOM     12  N   UNL     1      -1.605  12.524  20.945  0.00  0.00    +0.000 NA
ATOM     13  C   UNL     1      -1.541  11.826  19.771  0.00  0.00    +0.000 A 
ATOM     14  N   UNL     1      -2.205  12.209  18.638  0.00  0.00    +0.000 N 
ATOM     15  C   UNL     1      -1.946  11.299  17.637  0.00  0.00    +0.000 A 
ATOM     16  C   UNL     1      -1.105  10.317  18.132  0.00  0.00    +0.000 A 
ATOM     17  C   UNL     1      -0.856  10.658  19.467  0.00  0.00    +0.000 A 
ATOM     18  C   UNL     1      -0.086  10.113  20.589  0.00  0.00    +0.000 A 
ATOM     19  H   UNL     1      -2.788  13.033  18.576  0.00  0.00    +0.000 HD
ENDBRANCH   4   7
BRANCH   1  20
ATOM     20  C   UNL     1       3.878   4.552  18.832  0.00  0.00    +0.000 C 
BRANCH  20  22
ATOM     21  C   UNL     1       6.185   5.393  19.383  0.00  0.00    +0.000 C 
ATOM     22  N   UNL     1       5.294   4.699  18.460  0.00  0.00    +0.000 N 
BRANCH  22  23
ATOM     23  C   UNL     1       5.671   4.555  17.127  0.00  0.00    +0.000 A 
ATOM     24  C   UNL     1       6.998   4.770  16.725  0.00  0.00    +0.000 A 
ATOM     25  C   UNL     1       7.393   4.692  15.386  0.00  0.00    +0.000 A 
ATOM     26  C   UNL     1       6.461   4.365  14.406  0.00  0.00    +0.000 A 
ATOM     27  C   UNL     1       5.138   4.124  14.771  0.00  0.00    +0.000 A 
ATOM     28  C   UNL     1       4.753   4.227  16.114  0.00  0.00    +0.000 A 
BRANCH  26  29
ATOM     29  C   UNL     1       6.858   4.281  13.035  0.00  0.00    +0.000 C 
ATOM     30  N   UNL     1       7.181   4.215  11.919  0.00  0.00    +0.000 NA
ENDBRANCH  26  29
ENDBRANCH  22  23
ENDBRANCH  20  22
ENDBRANCH   1  20
TORSDOF 5
ENDMDL
MODEL 9
REMARK VINA RESULT:      -8.1      2.383     10.114
REMARK  Name = 
REMARK  6 active torsions:
REMARK  status: ('A' for Active; 'I' for Inactive)
REMARK    1  A    between atoms: C_1  and  N_2
REMARK    2  A    between atoms: N_2  and  C_3
REMARK    3  A    between atoms: N_2  and  C_22
REMARK    4  A    between atoms: C_3  and  C_4
REMARK    5  A    between atoms: C_7  and  C_8
REMARK    6  A    between atoms: C_25  and  C_26
REMARK                            x       y       z     vdW  Elec       q    Type
REMARK                         _______ _______ _______ _____ _____    ______ ____
ROOT
ATOM      1  C   UNL     1       0.758   9.803  19.234  0.00  0.00    +0.000 C 
ATOM      2  C   UNL     1       1.829   9.349  18.232  0.00  0.00    +0.000 C 
ATOM      3  C   UNL     1       1.975   7.821  18.237  0.00  0.00    +0.000 C 
ATOM      4  C   UNL     1       2.300   7.248  19.635  0.00  0.00    +0.000 C 
ATOM      5  C   UNL     1       1.320   7.804  20.684  0.00  0.00    +0.000 C 
ATOM      6  C   UNL     1       1.148   9.317  20.638  0.00  0.00    +0.000 C 
ENDROOT
BRANCH   4   7
ATOM      7  C   UNL     1       2.243   5.747  19.674  0.00  0.00    +0.000 A 
ATOM      8  N   UNL     1       1.490   5.107  20.649  0.00  0.00    +0.000 NA
ATOM      9  N   UNL     1       1.676   3.793  20.555  0.00  0.00    +0.000 NA
ATOM     10  N   UNL     1       2.538   3.594  19.549  0.00  0.00    +0.000 N 
ATOM     11  C   UNL     1       3.012   2.337  19.157  0.00  0.00    +0.000 A 
ATOM     12  N   UNL     1       3.878   2.190  18.181  0.00  0.00    +0.000 NA
ATOM     13  C   UNL     1       4.270   3.363  17.598  0.00  0.00    +0.000 A 
ATOM     14  N   UNL     1       5.171   3.420  16.570  0.00  0.00    +0.000 N 
ATOM     15  C   UNL     1       5.360   4.737  16.212  0.00  0.00    +0.000 A 
ATOM     16  C   UNL     1       4.571   5.538  17.020  0.00  0.00    +0.000 A 
ATOM     17  C   UNL     1       3.891   4.667  17.881  0.00  0.00    +0.000 A 
ATOM     18  C   UNL     1       2.918   4.779  18.972  0.00  0.00    +0.000 A 
ATOM     19  H   UNL     1       5.613   2.609  16.160  0.00  0.00    +0.000 HD
ENDBRANCH   4   7
BRANCH   1  20
ATOM     20  C   UNL     1       0.516  11.329  19.266  0.00  0.00    +0.000 C 
BRANCH  20  22
ATOM     21  C   UNL     1      -1.674  11.844  18.139  0.00  0.00    +0.000 C 
ATOM     22  N   UNL     1      -0.909  11.681  19.370  0.00  0.00    +0.000 N 
BRANCH  22  23
ATOM     23  C   UNL     1      -1.394  12.235  20.553  0.00  0.00    +0.000 A 
ATOM     24  C   UNL     1      -2.660  12.838  20.601  0.00  0.00    +0.000 A 
ATOM     25  C   UNL     1      -3.147  13.454  21.758  0.00  0.00    +0.000 A 
ATOM     26  C   UNL     1      -2.380  13.457  22.919  0.00  0.00    +0.000 A 
ATOM     27  C   UNL     1      -1.126  12.849  22.913  0.00  0.00    +0.000 A 
ATOM     28  C   UNL     1      -0.642  12.254  21.740  0.00  0.00    +0.000 A 
BRANCH  26  29
ATOM     29  C   UNL     1      -2.873  14.083  24.106  0.00  0.00    +0.000 C 
ATOM     30  N   UNL     1      -3.277  14.592  25.071  0.00  0.00    +0.000 NA
ENDBRANCH  26  29
ENDBRANCH  22  23
ENDBRANCH  20  22
ENDBRANCH   1  20
TORSDOF 5
ENDMDL
