MODEL 1
REMARK VINA RESULT:      -8.5      0.000      0.000
REMARK  Name = 
REMARK  7 active torsions:
REMARK  status: ('A' for Active; 'I' for Inactive)
REMARK    1  A    between atoms: C_2  and  C_3
REMARK    2  A    between atoms: C_2  and  O_13
REMARK    3  A    between atoms: C_3  and  N_4
REMARK    4  A    between atoms: C_5  and  C_7
REMARK    5  A    between atoms: O_13  and  C_14
REMARK    6  A    between atoms: C_14  and  C_15
REMARK    7  A    between atoms: C_15  and  C_17
REMARK                            x       y       z     vdW  Elec       q    Type
REMARK                         _______ _______ _______ _____ _____    ______ ____
ROOT
ATOM      1  O   UNL     1       6.738   4.716  18.623  0.00  0.00    +0.000 OA
ENDROOT
BRANCH   1   3
ATOM      2  O   UNL     1       7.989   5.617  20.322  0.00  0.00    +0.000 OA
ATOM      3  C   UNL     1       7.533   5.658  19.185  0.00  0.00    +0.000 C 
BRANCH   3   4
ATOM      4  C   UNL     1       7.741   6.812  18.221  0.00  0.00    +0.000 C 
BRANCH   4   5
ATOM      5  N   UNL     1       8.565   7.863  18.781  0.00  0.00    +0.000 N 
ATOM      6  C   UNL     1       8.423   9.164  18.352  0.00  0.00    +0.000 C 
ATOM      7  O   UNL     1       7.608   9.518  17.509  0.00  0.00    +0.000 OA
ATOM      8  H   UNL     1       9.054   7.672  19.647  0.00  0.00    +0.000 HD
BRANCH   6   9
ATOM      9  C   UNL     1       9.316  10.163  18.994  0.00  0.00    +0.000 A 
ATOM     10  C   UNL     1      10.342  10.789  18.276  0.00  0.00    +0.000 A 
ATOM     11  C   UNL     1      11.162  11.728  18.905  0.00  0.00    +0.000 A 
ATOM     12  C   UNL     1      10.951  12.052  20.248  0.00  0.00    +0.000 A 
ATOM     13  C   UNL     1       9.914  11.446  20.958  0.00  0.00    +0.000 A 
ATOM     14  C   UNL     1       9.090  10.508  20.332  0.00  0.00    +0.000 A 
ENDBRANCH   6   9
ENDBRANCH   4   5
ENDBRANCH   3   4
ENDBRANCH   1   3
BRANCH   1  15
ATOM     15  C   UNL     1       6.737   4.665  17.196  0.00  0.00    +0.000 C 
BRANCH  15  16
ATOM     16  C   UNL     1       5.291   4.511  16.724  0.00  0.00    +0.000 C 
ATOM     17  O   UNL     1       4.977   3.746  15.815  0.00  0.00    +0.000 OA
BRANCH  16  18
ATOM     18  C   UNL     1       4.255   5.311  17.443  0.00  0.00    +0.000 A 
ATOM     19  C   UNL     1       4.173   6.684  17.146  0.00  0.00    +0.000 A 
ATOM     20  C   UNL     1       3.316   7.509  17.862  0.00  0.00    +0.000 A 
ATOM     21  C   UNL     1       2.560   6.978  18.901  0.00  0.00    +0.000 A 
ATOM     22  C   UNL     1       2.616   5.611  19.214  0.00  0.00    +0.000 A 
ATOM     23  C   UNL     1       1.875   5.121  20.302  0.00  0.00    +0.000 A 
ATOM     24  C   UNL     1       1.879   3.766  20.629  0.00  0.00    +0.000 A 
ATOM     25  C   UNL     1       2.596   2.880  19.840  0.00  0.00    +0.000 A 
ATOM     26  C   UNL     1       3.359   3.352  18.771  0.00  0.00    +0.000 A 
ATOM     27  C   UNL     1       3.426   4.733  18.450  0.00  0.00    +0.000 A 
ENDBRANCH  16  18
ENDBRANCH  15  16
ENDBRANCH   1  15
TORSDOF 7
ENDMDL
MODEL 2
REMARK VINA RESULT:      -8.2      1.625      2.049
REMARK  Name = 
REMARK  7 active torsions:
REMARK  status: ('A' for Active; 'I' for Inactive)
REMARK    1  A    between atoms: C_2  and  C_3
REMARK    2  A    between atoms: C_2  and  O_13
REMARK    3  A    between atoms: C_3  and  N_4
REMARK    4  A    between atoms: C_5  and  C_7
REMARK    5  A    between atoms: O_13  and  C_14
REMARK    6  A    between atoms: C_14  and  C_15
REMARK    7  A    between atoms: C_15  and  C_17
REMARK                            x       y       z     vdW  Elec       q    Type
REMARK                         _______ _______ _______ _____ _____    ______ ____
ROOT
ATOM      1  O   UNL     1       7.641   6.952  16.755  0.00  0.00    +0.000 OA
ENDROOT
BRANCH   1   3
ATOM      2  O   UNL     1       8.302   7.084  18.949  0.00  0.00    +0.000 OA
ATOM      3  C   UNL     1       7.939   7.609  17.903  0.00  0.00    +0.000 C 
BRANCH   3   4
ATOM      4  C   UNL     1       7.708   9.100  17.729  0.00  0.00    +0.000 C 
BRANCH   4   5
ATOM      5  N   UNL     1       8.831   9.893  18.183  0.00  0.00    +0.000 N 
ATOM      6  C   UNL     1       8.882  11.245  17.922  0.00  0.00    +0.000 C 
ATOM      7  O   UNL     1       8.004  11.856  17.325  0.00  0.00    +0.000 OA
ATOM      8  H   UNL     1       9.436   9.498  18.892  0.00  0.00    +0.000 HD
BRANCH   6   9
ATOM      9  C   UNL     1      10.077  11.963  18.435  0.00  0.00    +0.000 A 
ATOM     10  C   UNL     1      10.389  13.257  17.999  0.00  0.00    +0.000 A 
ATOM     11  C   UNL     1      11.516  13.910  18.503  0.00  0.00    +0.000 A 
ATOM     12  C   UNL     1      12.326  13.277  19.449  0.00  0.00    +0.000 A 
ATOM     13  C   UNL     1      12.002  11.996  19.901  0.00  0.00    +0.000 A 
ATOM     14  C   UNL     1      10.875  11.341  19.402  0.00  0.00    +0.000 A 
ENDBRANCH   6   9
ENDBRANCH   4   5
ENDBRANCH   3   4
ENDBRANCH   1   3
BRANCH   1  15
ATOM     15  C   UNL     1       6.704   5.882  16.871  0.00  0.00    +0.000 C 
BRANCH  15  16
ATOM     16  C   UNL     1       5.374   6.344  16.276  0.00  0.00    +0.000 C 
ATOM     17  O   UNL     1       5.276   6.736  15.115  0.00  0.00    +0.000 OA
BRANCH  16  18
ATOM     18  C   UNL     1       4.173   6.270  17.161  0.00  0.00    +0.000 A 
ATOM     19  C   UNL     1       3.679   7.477  17.688  0.00  0.00    +0.000 A 
ATOM     20  C   UNL     1       2.642   7.469  18.611  0.00  0.00    +0.000 A 
ATOM     21  C   UNL     1       2.115   6.257  19.041  0.00  0.00    +0.000 A 
ATOM     22  C   UNL     1       2.583   5.038  18.527  0.00  0.00    +0.000 A 
ATOM     23  C   UNL     1       2.059   3.833  19.022  0.00  0.00    +0.000 A 
ATOM     24  C   UNL     1       2.475   2.602  18.519  0.00  0.00    +0.000 A 
ATOM     25  C   UNL     1       3.393   2.568  17.481  0.00  0.00    +0.000 A 
ATOM     26  C   UNL     1       3.945   3.755  16.994  0.00  0.00    +0.000 A 
ATOM     27  C   UNL     1       3.589   5.021  17.528  0.00  0.00    +0.000 A 
ENDBRANCH  16  18
ENDBRANCH  15  16
ENDBRANCH   1  15
TORSDOF 7
ENDMDL
MODEL 3
REMARK VINA RESULT:      -8.0      4.099      6.314
REMARK  Name = 
REMARK  7 active torsions:
REMARK  status: ('A' for Active; 'I' for Inactive)
REMARK    1  A    between atoms: C_2  and  C_3
REMARK    2  A    between atoms: C_2  and  O_13
REMARK    3  A    between atoms: C_3  and  N_4
REMARK    4  A    between atoms: C_5  and  C_7
REMARK    5  A    between atoms: O_13  and  C_14
REMARK    6  A    between atoms: C_14  and  C_15
REMARK    7  A    between atoms: C_15  and  C_17
REMARK                            x       y       z     vdW  Elec       q    Type
REMARK                         _______ _______ _______ _____ _____    ______ ____
ROOT
ATOM      1  O   UNL     1       2.565   1.743  18.790  0.00  0.00    +0.000 OA
ENDROOT
BRANCH   1   3
ATOM      2  O   UNL     1       3.609   2.334  20.747  0.00  0.00    +0.000 OA
ATOM      3  C   UNL     1       2.659   2.396  19.974  0.00  0.00    +0.000 C 
BRANCH   3   4
ATOM      4  C   UNL     1       1.389   3.184  20.241  0.00  0.00    +0.000 C 
BRANCH   4   5
ATOM      5  N   UNL     1       1.416   4.502  19.642  0.00  0.00    +0.000 N 
ATOM      6  C   UNL     1       2.005   5.557  20.303  0.00  0.00    +0.000 C 
ATOM      7  O   UNL     1       2.545   5.457  21.399  0.00  0.00    +0.000 OA
ATOM      8  H   UNL     1       1.225   4.577  18.651  0.00  0.00    +0.000 HD
BRANCH   6   9
ATOM      9  C   UNL     1       1.980   6.864  19.598  0.00  0.00    +0.000 A 
ATOM     10  C   UNL     1       2.466   6.995  18.292  0.00  0.00    +0.000 A 
ATOM     11  C   UNL     1       2.424   8.236  17.653  0.00  0.00    +0.000 A 
ATOM     12  C   UNL     1       1.887   9.344  18.312  0.00  0.00    +0.000 A 
ATOM     13  C   UNL     1       1.381   9.210  19.606  0.00  0.00    +0.000 A 
ATOM     14  C   UNL     1       1.419   7.970  20.248  0.00  0.00    +0.000 A 
ENDBRANCH   6   9
ENDBRANCH   4   5
ENDBRANCH   3   4
ENDBRANCH   1   3
BRANCH   1  15
ATOM     15  C   UNL     1       3.644   1.941  17.877  0.00  0.00    +0.000 C 
BRANCH  15  16
ATOM     16  C   UNL     1       3.370   3.218  17.083  0.00  0.00    +0.000 C 
ATOM     17  O   UNL     1       2.232   3.646  16.902  0.00  0.00    +0.000 OA
BRANCH  16  18
ATOM     18  C   UNL     1       4.557   3.955  16.555  0.00  0.00    +0.000 A 
ATOM     19  C   UNL     1       4.790   3.902  15.169  0.00  0.00    +0.000 A 
ATOM     20  C   UNL     1       5.940   4.463  14.627  0.00  0.00    +0.000 A 
ATOM     21  C   UNL     1       6.879   5.049  15.467  0.00  0.00    +0.000 A 
ATOM     22  C   UNL     1       6.669   5.122  16.852  0.00  0.00    +0.000 A 
ATOM     23  C   UNL     1       7.664   5.678  17.674  0.00  0.00    +0.000 A 
ATOM     24  C   UNL     1       7.484   5.796  19.050  0.00  0.00    +0.000 A 
ATOM     25  C   UNL     1       6.283   5.396  19.614  0.00  0.00    +0.000 A 
ATOM     26  C   UNL     1       5.293   4.816  18.818  0.00  0.00    +0.000 A 
ATOM     27  C   UNL     1       5.470   4.624  17.423  0.00  0.00    +0.000 A 
ENDBRANCH  16  18
ENDBRANCH  15  16
ENDBRANCH   1  15
TORSDOF 7
ENDMDL
MODEL 4
REMARK VINA RESULT:      -7.9      3.222      5.555
REMARK  Name = 
REMARK  7 active torsions:
REMARK  status: ('A' for Active; 'I' for Inactive)
REMARK    1  A    between atoms: C_2  and  C_3
REMARK    2  A    between atoms: C_2  and  O_13
REMARK    3  A    between atoms: C_3  and  N_4
REMARK    4  A    between atoms: C_5  and  C_7
REMARK    5  A    between atoms: O_13  and  C_14
REMARK    6  A    between atoms: C_14  and  C_15
REMARK    7  A    between atoms: C_15  and  C_17
REMARK                            x       y       z     vdW  Elec       q    Type
REMARK                         _______ _______ _______ _____ _____    ______ ____
ROOT
ATOM      1  O   UNL     1       1.530   3.343  19.449  0.00  0.00    +0.000 OA
ENDROOT
BRANCH   1   3
ATOM      2  O   UNL     1       1.062   3.852  17.260  0.00  0.00    +0.000 OA
ATOM      3  C   UNL     1       1.835   3.477  18.135  0.00  0.00    +0.000 C 
BRANCH   3   4
ATOM      4  C   UNL     1       3.268   3.044  17.882  0.00  0.00    +0.000 C 
BRANCH   4   5
ATOM      5  N   UNL     1       4.170   4.167  17.733  0.00  0.00    +0.000 N 
ATOM      6  C   UNL     1       5.296   4.268  18.520  0.00  0.00    +0.000 C 
ATOM      7  O   UNL     1       5.615   3.435  19.361  0.00  0.00    +0.000 OA
ATOM      8  H   UNL     1       4.096   4.728  16.894  0.00  0.00    +0.000 HD
BRANCH   6   9
ATOM      9  C   UNL     1       6.153   5.458  18.284  0.00  0.00    +0.000 A 
ATOM     10  C   UNL     1       7.362   5.631  18.970  0.00  0.00    +0.000 A 
ATOM     11  C   UNL     1       8.149   6.757  18.722  0.00  0.00    +0.000 A 
ATOM     12  C   UNL     1       7.737   7.706  17.783  0.00  0.00    +0.000 A 
ATOM     13  C   UNL     1       6.544   7.523  17.083  0.00  0.00    +0.000 A 
ATOM     14  C   UNL     1       5.755   6.396  17.325  0.00  0.00    +0.000 A 
ENDBRANCH   6   9
ENDBRANCH   4   5
ENDBRANCH   3   4
ENDBRANCH   1   3
BRANCH   1  15
ATOM     15  C   UNL     1       1.007   4.504  20.093  0.00  0.00    +0.000 C 
BRANCH  15  16
ATOM     16  C   UNL     1       2.135   5.528  20.220  0.00  0.00    +0.000 C 
ATOM     17  O   UNL     1       3.189   5.275  20.800  0.00  0.00    +0.000 OA
BRANCH  16  18
ATOM     18  C   UNL     1       1.918   6.858  19.575  0.00  0.00    +0.000 A 
ATOM     19  C   UNL     1       2.353   7.014  18.247  0.00  0.00    +0.000 A 
ATOM     20  C   UNL     1       2.291   8.256  17.628  0.00  0.00    +0.000 A 
ATOM     21  C   UNL     1       1.828   9.356  18.340  0.00  0.00    +0.000 A 
ATOM     22  C   UNL     1       1.381   9.227  19.664  0.00  0.00    +0.000 A 
ATOM     23  C   UNL     1       0.966  10.371  20.367  0.00  0.00    +0.000 A 
ATOM     24  C   UNL     1       0.487  10.284  21.672  0.00  0.00    +0.000 A 
ATOM     25  C   UNL     1       0.380   9.040  22.275  0.00  0.00    +0.000 A 
ATOM     26  C   UNL     1       0.812   7.896  21.602  0.00  0.00    +0.000 A 
ATOM     27  C   UNL     1       1.362   7.958  20.295  0.00  0.00    +0.000 A 
ENDBRANCH  16  18
ENDBRANCH  15  16
ENDBRANCH   1  15
TORSDOF 7
ENDMDL
MODEL 5
REMARK VINA RESULT:      -7.9      4.125      6.242
REMARK  Name = 
REMARK  7 active torsions:
REMARK  status: ('A' for Active; 'I' for Inactive)
REMARK    1  A    between atoms: C_2  and  C_3
REMARK    2  A    between atoms: C_2  and  O_13
REMARK    3  A    between atoms: C_3  and  N_4
REMARK    4  A    between atoms: C_5  and  C_7
REMARK    5  A    between atoms: O_13  and  C_14
REMARK    6  A    between atoms: C_14  and  C_15
REMARK    7  A    between atoms: C_15  and  C_17
REMARK                            x       y       z     vdW  Elec       q    Type
REMARK                         _______ _______ _______ _____ _____    ______ ____
ROOT
ATOM      1  O   UNL     1       5.553   6.101  18.338  0.00  0.00    +0.000 OA
ENDROOT
BRANCH   1   3
ATOM      2  O   UNL     1       5.899   3.954  19.069  0.00  0.00    +0.000 OA
ATOM      3  C   UNL     1       6.133   4.876  18.297  0.00  0.00    +0.000 C 
BRANCH   3   4
ATOM      4  C   UNL     1       7.162   4.820  17.182  0.00  0.00    +0.000 C 
BRANCH   4   5
ATOM      5  N   UNL     1       6.638   4.221  15.972  0.00  0.00    +0.000 N 
ATOM      6  C   UNL     1       7.006   4.708  14.737  0.00  0.00    +0.000 C 
ATOM      7  O   UNL     1       7.787   5.638  14.577  0.00  0.00    +0.000 OA
ATOM      8  H   UNL     1       6.210   3.306  16.042  0.00  0.00    +0.000 HD
BRANCH   6   9
ATOM      9  C   UNL     1       6.412   4.019  13.562  0.00  0.00    +0.000 A 
ATOM     10  C   UNL     1       7.217   3.368  12.619  0.00  0.00    +0.000 A 
ATOM     11  C   UNL     1       6.630   2.724  11.527  0.00  0.00    +0.000 A 
ATOM     12  C   UNL     1       5.241   2.721  11.381  0.00  0.00    +0.000 A 
ATOM     13  C   UNL     1       4.437   3.351  12.333  0.00  0.00    +0.000 A 
ATOM     14  C   UNL     1       5.019   3.993  13.428  0.00  0.00    +0.000 A 
ENDBRANCH   6   9
ENDBRANCH   4   5
ENDBRANCH   3   4
ENDBRANCH   1   3
BRANCH   1  15
ATOM     15  C   UNL     1       4.852   6.503  17.161  0.00  0.00    +0.000 C 
BRANCH  15  16
ATOM     16  C   UNL     1       3.518   7.118  17.587  0.00  0.00    +0.000 C 
ATOM     17  O   UNL     1       3.104   8.175  17.115  0.00  0.00    +0.000 OA
BRANCH  16  18
ATOM     18  C   UNL     1       2.711   6.358  18.588  0.00  0.00    +0.000 A 
ATOM     19  C   UNL     1       2.280   7.051  19.734  0.00  0.00    +0.000 A 
ATOM     20  C   UNL     1       1.630   6.377  20.760  0.00  0.00    +0.000 A 
ATOM     21  C   UNL     1       1.436   5.004  20.665  0.00  0.00    +0.000 A 
ATOM     22  C   UNL     1       1.850   4.289  19.530  0.00  0.00    +0.000 A 
ATOM     23  C   UNL     1       1.681   2.895  19.492  0.00  0.00    +0.000 A 
ATOM     24  C   UNL     1       2.051   2.151  18.373  0.00  0.00    +0.000 A 
ATOM     25  C   UNL     1       2.556   2.805  17.260  0.00  0.00    +0.000 A 
ATOM     26  C   UNL     1       2.756   4.187  17.289  0.00  0.00    +0.000 A 
ATOM     27  C   UNL     1       2.448   4.965  18.436  0.00  0.00    +0.000 A 
ENDBRANCH  16  18
ENDBRANCH  15  16
ENDBRANCH   1  15
TORSDOF 7
ENDMDL
MODEL 6
REMARK VINA RESULT:      -7.9      4.180      6.666
REMARK  Name = 
REMARK  7 active torsions:
REMARK  status: ('A' for Active; 'I' for Inactive)
REMARK    1  A    between atoms: C_2  and  C_3
REMARK    2  A    between atoms: C_2  and  O_13
REMARK    3  A    between atoms: C_3  and  N_4
REMARK    4  A    between atoms: C_5  and  C_7
REMARK    5  A    between atoms: O_13  and  C_14
REMARK    6  A    between atoms: C_14  and  C_15
REMARK    7  A    between atoms: C_15  and  C_17
REMARK                            x       y       z     vdW  Elec       q    Type
REMARK                         _______ _______ _______ _____ _____    ______ ____
ROOT
ATOM      1  O   UNL     1       3.079   1.825  19.273  0.00  0.00    +0.000 OA
ENDROOT
BRANCH   1   3
ATOM      2  O   UNL     1       4.989   1.847  20.546  0.00  0.00    +0.000 OA
ATOM      3  C   UNL     1       3.825   2.180  20.348  0.00  0.00    +0.000 C 
BRANCH   3   4
ATOM      4  C   UNL     1       2.997   3.011  21.311  0.00  0.00    +0.000 C 
BRANCH   4   5
ATOM      5  N   UNL     1       2.901   4.398  20.907  0.00  0.00    +0.000 N 
ATOM      6  C   UNL     1       1.707   4.912  20.451  0.00  0.00    +0.000 C 
ATOM      7  O   UNL     1       0.672   4.262  20.374  0.00  0.00    +0.000 OA
ATOM      8  H   UNL     1       3.639   5.028  21.196  0.00  0.00    +0.000 HD
BRANCH   6   9
ATOM      9  C   UNL     1       1.720   6.347  20.066  0.00  0.00    +0.000 A 
ATOM     10  C   UNL     1       1.178   7.329  20.904  0.00  0.00    +0.000 A 
ATOM     11  C   UNL     1       1.209   8.671  20.517  0.00  0.00    +0.000 A 
ATOM     12  C   UNL     1       1.790   9.034  19.299  0.00  0.00    +0.000 A 
ATOM     13  C   UNL     1       2.350   8.058  18.474  0.00  0.00    +0.000 A 
ATOM     14  C   UNL     1       2.324   6.716  18.858  0.00  0.00    +0.000 A 
ENDBRANCH   6   9
ENDBRANCH   4   5
ENDBRANCH   3   4
ENDBRANCH   1   3
BRANCH   1  15
ATOM     15  C   UNL     1       3.728   1.904  18.005  0.00  0.00    +0.000 C 
BRANCH  15  16
ATOM     16  C   UNL     1       3.670   3.356  17.528  0.00  0.00    +0.000 C 
ATOM     17  O   UNL     1       2.610   3.909  17.241  0.00  0.00    +0.000 OA
BRANCH  16  18
ATOM     18  C   UNL     1       4.964   4.097  17.454  0.00  0.00    +0.000 A 
ATOM     19  C   UNL     1       5.427   4.715  18.630  0.00  0.00    +0.000 A 
ATOM     20  C   UNL     1       6.559   5.518  18.603  0.00  0.00    +0.000 A 
ATOM     21  C   UNL     1       7.217   5.738  17.399  0.00  0.00    +0.000 A 
ATOM     22  C   UNL     1       6.782   5.128  16.212  0.00  0.00    +0.000 A 
ATOM     23  C   UNL     1       7.444   5.414  15.006  0.00  0.00    +0.000 A 
ATOM     24  C   UNL     1       7.063   4.808  13.811  0.00  0.00    +0.000 A 
ATOM     25  C   UNL     1       6.038   3.874  13.819  0.00  0.00    +0.000 A 
ATOM     26  C   UNL     1       5.352   3.597  15.003  0.00  0.00    +0.000 A 
ATOM     27  C   UNL     1       5.674   4.244  16.225  0.00  0.00    +0.000 A 
ENDBRANCH  16  18
ENDBRANCH  15  16
ENDBRANCH   1  15
TORSDOF 7
ENDMDL
MODEL 7
REMARK VINA RESULT:      -7.8      4.194      7.030
REMARK  Name = 
REMARK  7 active torsions:
REMARK  status: ('A' for Active; 'I' for Inactive)
REMARK    1  A    between atoms: C_2  and  C_3
REMARK    2  A    between atoms: C_2  and  O_13
REMARK    3  A    between atoms: C_3  and  N_4
REMARK    4  A    between atoms: C_5  and  C_7
REMARK    5  A    between atoms: O_13  and  C_14
REMARK    6  A    between atoms: C_14  and  C_15
REMARK    7  A    between atoms: C_15  and  C_17
REMARK                            x       y       z     vdW  Elec       q    Type
REMARK                         _______ _______ _______ _____ _____    ______ ____
ROOT
ATOM      1  O   UNL     1       1.509   4.490  18.890  0.00  0.00    +0.000 OA
ENDROOT
BRANCH   1   3
ATOM      2  O   UNL     1       1.567   4.303  21.177  0.00  0.00    +0.000 OA
ATOM      3  C   UNL     1       1.806   4.916  20.142  0.00  0.00    +0.000 C 
BRANCH   3   4
ATOM      4  C   UNL     1       2.435   6.297  20.091  0.00  0.00    +0.000 C 
BRANCH   4   5
ATOM      5  N   UNL     1       1.676   7.281  20.835  0.00  0.00    +0.000 N 
ATOM      6  C   UNL     1       1.296   8.464  20.241  0.00  0.00    +0.000 C 
ATOM      7  O   UNL     1       1.548   8.754  19.078  0.00  0.00    +0.000 OA
ATOM      8  H   UNL     1       1.226   6.984  21.692  0.00  0.00    +0.000 HD
BRANCH   6   9
ATOM      9  C   UNL     1       0.520   9.401  21.093  0.00  0.00    +0.000 A 
ATOM     10  C   UNL     1      -0.060  10.559  20.559  0.00  0.00    +0.000 A 
ATOM     11  C   UNL     1      -0.789  11.418  21.384  0.00  0.00    +0.000 A 
ATOM     12  C   UNL     1      -0.950  11.118  22.739  0.00  0.00    +0.000 A 
ATOM     13  C   UNL     1      -0.392   9.953  23.267  0.00  0.00    +0.000 A 
ATOM     14  C   UNL     1       0.336   9.089  22.446  0.00  0.00    +0.000 A 
ENDBRANCH   6   9
ENDBRANCH   4   5
ENDBRANCH   3   4
ENDBRANCH   1   3
BRANCH   1  15
ATOM     15  C   UNL     1       2.453   4.826  17.873  0.00  0.00    +0.000 C 
BRANCH  15  16
ATOM     16  C   UNL     1       3.578   3.791  17.904  0.00  0.00    +0.000 C 
ATOM     17  O   UNL     1       3.356   2.584  17.971  0.00  0.00    +0.000 OA
BRANCH  16  18
ATOM     18  C   UNL     1       4.977   4.308  17.816  0.00  0.00    +0.000 A 
ATOM     19  C   UNL     1       5.566   4.790  18.998  0.00  0.00    +0.000 A 
ATOM     20  C   UNL     1       6.817   5.394  18.965  0.00  0.00    +0.000 A 
ATOM     21  C   UNL     1       7.471   5.552  17.749  0.00  0.00    +0.000 A 
ATOM     22  C   UNL     1       6.909   5.074  16.555  0.00  0.00    +0.000 A 
ATOM     23  C   UNL     1       7.578   5.295  15.340  0.00  0.00    +0.000 A 
ATOM     24  C   UNL     1       7.070   4.812  14.136  0.00  0.00    +0.000 A 
ATOM     25  C   UNL     1       5.904   4.063  14.142  0.00  0.00    +0.000 A 
ATOM     26  C   UNL     1       5.211   3.855  15.337  0.00  0.00    +0.000 A 
ATOM     27  C   UNL     1       5.669   4.387  16.571  0.00  0.00    +0.000 A 
ENDBRANCH  16  18
ENDBRANCH  15  16
ENDBRANCH   1  15
TORSDOF 7
ENDMDL
MODEL 8
REMARK VINA RESULT:      -7.7      5.156      8.462
REMARK  Name = 
REMARK  7 active torsions:
REMARK  status: ('A' for Active; 'I' for Inactive)
REMARK    1  A    between atoms: C_2  and  C_3
REMARK    2  A    between atoms: C_2  and  O_13
REMARK    3  A    between atoms: C_3  and  N_4
REMARK    4  A    between atoms: C_5  and  C_7
REMARK    5  A    between atoms: O_13  and  C_14
REMARK    6  A    between atoms: C_14  and  C_15
REMARK    7  A    between atoms: C_15  and  C_17
REMARK                            x       y       z     vdW  Elec       q    Type
REMARK                         _______ _______ _______ _____ _____    ______ ____
ROOT
ATOM      1  O   UNL     1       0.918   7.928  20.584  0.00  0.00    +0.000 OA
ENDROOT
BRANCH   1   3
ATOM      2  O   UNL     1       0.985   8.968  22.628  0.00  0.00    +0.000 OA
ATOM      3  C   UNL     1       0.951   9.007  21.404  0.00  0.00    +0.000 C 
BRANCH   3   4
ATOM      4  C   UNL     1       0.884  10.287  20.589  0.00  0.00    +0.000 C 
BRANCH   4   5
ATOM      5  N   UNL     1      -0.052  10.197  19.488  0.00  0.00    +0.000 N 
ATOM      6  C   UNL     1      -1.161  11.013  19.447  0.00  0.00    +0.000 C 
ATOM      7  O   UNL     1      -1.418  11.856  20.297  0.00  0.00    +0.000 OA
ATOM      8  H   UNL     1       0.247   9.716  18.649  0.00  0.00    +0.000 HD
BRANCH   6   9
ATOM      9  C   UNL     1      -2.054  10.839  18.272  0.00  0.00    +0.000 A 
ATOM     10  C   UNL     1      -1.703   9.997  17.210  0.00  0.00    +0.000 A 
ATOM     11  C   UNL     1      -2.566   9.850  16.122  0.00  0.00    +0.000 A 
ATOM     12  C   UNL     1      -3.784  10.535  16.098  0.00  0.00    +0.000 A 
ATOM     13  C   UNL     1      -4.145  11.356  17.166  0.00  0.00    +0.000 A 
ATOM     14  C   UNL     1      -3.286  11.504  18.258  0.00  0.00    +0.000 A 
ENDBRANCH   6   9
ENDBRANCH   4   5
ENDBRANCH   3   4
ENDBRANCH   1   3
BRANCH   1  15
ATOM     15  C   UNL     1       2.183   7.377  20.221  0.00  0.00    +0.000 C 
BRANCH  15  16
ATOM     16  C   UNL     1       2.269   7.342  18.695  0.00  0.00    +0.000 C 
ATOM     17  O   UNL     1       2.068   8.339  18.004  0.00  0.00    +0.000 OA
BRANCH  16  18
ATOM     18  C   UNL     1       2.644   6.039  18.067  0.00  0.00    +0.000 A 
ATOM     19  C   UNL     1       1.702   4.996  18.124  0.00  0.00    +0.000 A 
ATOM     20  C   UNL     1       2.030   3.726  17.668  0.00  0.00    +0.000 A 
ATOM     21  C   UNL     1       3.310   3.480  17.185  0.00  0.00    +0.000 A 
ATOM     22  C   UNL     1       4.267   4.503  17.110  0.00  0.00    +0.000 A 
ATOM     23  C   UNL     1       5.564   4.204  16.661  0.00  0.00    +0.000 A 
ATOM     24  C   UNL     1       6.536   5.196  16.544  0.00  0.00    +0.000 A 
ATOM     25  C   UNL     1       6.204   6.510  16.836  0.00  0.00    +0.000 A 
ATOM     26  C   UNL     1       4.928   6.822  17.308  0.00  0.00    +0.000 A 
ATOM     27  C   UNL     1       3.935   5.826  17.498  0.00  0.00    +0.000 A 
ENDBRANCH  16  18
ENDBRANCH  15  16
ENDBRANCH   1  15
TORSDOF 7
ENDMDL
MODEL 9
REMARK VINA RESULT:      -7.7      2.410      9.161
REMARK  Name = 
REMARK  7 active torsions:
REMARK  status: ('A' for Active; 'I' for Inactive)
REMARK    1  A    between atoms: C_2  and  C_3
REMARK    2  A    between atoms: C_2  and  O_13
REMARK    3  A    between atoms: C_3  and  N_4
REMARK    4  A    between atoms: C_5  and  C_7
REMARK    5  A    between atoms: O_13  and  C_14
REMARK    6  A    between atoms: C_14  and  C_15
REMARK    7  A    between atoms: C_15  and  C_17
REMARK                            x       y       z     vdW  Elec       q    Type
REMARK                         _______ _______ _______ _____ _____    ______ ____
ROOT
ATOM      1  O   UNL     1       8.256   8.467  18.641  0.00  0.00    +0.000 OA
ENDROOT
BRANCH   1   3
ATOM      2  O   UNL     1       7.881   7.387  16.650  0.00  0.00    +0.000 OA
ATOM      3  C   UNL     1       7.940   7.394  17.875  0.00  0.00    +0.000 C 
BRANCH   3   4
ATOM      4  C   UNL     1       7.612   6.200  18.755  0.00  0.00    +0.000 C 
BRANCH   4   5
ATOM      5  N   UNL     1       6.222   5.805  18.658  0.00  0.00    +0.000 N 
ATOM      6  C   UNL     1       5.825   4.874  17.724  0.00  0.00    +0.000 C 
ATOM      7  O   UNL     1       6.593   4.319  16.947  0.00  0.00    +0.000 OA
ATOM      8  H   UNL     1       5.610   6.029  19.433  0.00  0.00    +0.000 HD
BRANCH   6   9
ATOM      9  C   UNL     1       4.378   4.538  17.713  0.00  0.00    +0.000 A 
ATOM     10  C   UNL     1       3.935   3.239  17.436  0.00  0.00    +0.000 A 
ATOM     11  C   UNL     1       2.568   2.952  17.438  0.00  0.00    +0.000 A 
ATOM     12  C   UNL     1       1.643   3.959  17.726  0.00  0.00    +0.000 A 
ATOM     13  C   UNL     1       2.085   5.249  18.023  0.00  0.00    +0.000 A 
ATOM     14  C   UNL     1       3.451   5.539  18.026  0.00  0.00    +0.000 A 
ENDBRANCH   6   9
ENDBRANCH   4   5
ENDBRANCH   3   4
ENDBRANCH   1   3
BRANCH   1  15
ATOM     15  C   UNL     1       8.517   9.682  17.940  0.00  0.00    +0.000 C 
BRANCH  15  16
ATOM     16  C   UNL     1       9.228  10.641  18.895  0.00  0.00    +0.000 C 
ATOM     17  O   UNL     1       9.227  10.474  20.113  0.00  0.00    +0.000 OA
BRANCH  16  18
ATOM     18  C   UNL     1       9.962  11.788  18.281  0.00  0.00    +0.000 A 
ATOM     19  C   UNL     1      11.318  11.595  17.963  0.00  0.00    +0.000 A 
ATOM     20  C   UNL     1      12.090  12.654  17.502  0.00  0.00    +0.000 A 
ATOM     21  C   UNL     1      11.524  13.918  17.388  0.00  0.00    +0.000 A 
ATOM     22  C   UNL     1      10.171  14.138  17.691  0.00  0.00    +0.000 A 
ATOM     23  C   UNL     1       9.647  15.439  17.610  0.00  0.00    +0.000 A 
ATOM     24  C   UNL     1       8.304  15.696  17.874  0.00  0.00    +0.000 A 
ATOM     25  C   UNL     1       7.458  14.641  18.182  0.00  0.00    +0.000 A 
ATOM     26  C   UNL     1       7.966  13.345  18.293  0.00  0.00    +0.000 A 
ATOM     27  C   UNL     1       9.342  13.059  18.092  0.00  0.00    +0.000 A 
ENDBRANCH  16  18
ENDBRANCH  15  16
ENDBRANCH   1  15
TORSDOF 7
ENDMDL
