MODEL 1
REMARK VINA RESULT:      -8.5      0.000      0.000
REMARK  Name = 
REMARK  4 active torsions:
REMARK  status: ('A' for Active; 'I' for Inactive)
REMARK    1  A    between atoms: C_3  and  N_4
REMARK    2  A    between atoms: C_12  and  N_13
REMARK    3  A    between atoms: C_18  and  N_19
REMARK    4  A    between atoms: C_22  and  C_23
REMARK                            x       y       z     vdW  Elec       q    Type
REMARK                         _______ _______ _______ _____ _____    ______ ____
ROOT
ATOM      1  N   UNL     1       1.370   9.382  21.066  0.00  0.00    +0.000 N 
ATOM      2  C   UNL     1       0.851  10.570  20.553  0.00  0.00    +0.000 A 
ATOM      3  N   UNL     1       1.181  11.678  21.211  0.00  0.00    +0.000 NA
ATOM      4  C   UNL     1       0.797  12.852  20.668  0.00  0.00    +0.000 A 
ATOM      5  C   UNL     1       0.055  12.939  19.492  0.00  0.00    +0.000 A 
ATOM      6  C   UNL     1      -0.257  11.740  18.888  0.00  0.00    +0.000 A 
ATOM      7  N   UNL     1       0.126  10.578  19.436  0.00  0.00    +0.000 NA
ATOM      8  C   UNL     1      -0.339  14.276  18.942  0.00  0.00    +0.000 C 
ATOM      9  C   UNL     1      -0.296  15.367  20.017  0.00  0.00    +0.000 C 
ATOM     10  N   UNL     1       0.992  15.360  20.713  0.00  0.00    +0.000 NA
ATOM     11  C   UNL     1       1.169  14.096  21.443  0.00  0.00    +0.000 C 
ATOM     12  H   UNL     1       1.997   9.622  21.819  0.00  0.00    +0.000 HD
ATOM     13  H   UNL     1       1.027  16.125  21.385  0.00  0.00    +0.000 HD
ENDROOT
BRANCH   6  14
ATOM     14  N   UNL     1      -0.979  11.698  17.669  0.00  0.00    +0.000 N 
ATOM     15  C   UNL     1      -2.309  11.436  17.599  0.00  0.00    +0.000 A 
ATOM     16  C   UNL     1      -3.261  11.981  18.490  0.00  0.00    +0.000 A 
ATOM     17  C   UNL     1      -4.437  11.339  18.201  0.00  0.00    +0.000 A 
ATOM     18  N   UNL     1      -4.175  10.573  17.103  0.00  0.00    +0.000 N 
ATOM     19  N   UNL     1      -2.888  10.638  16.696  0.00  0.00    +0.000 NA
ATOM     20  H   UNL     1      -0.436  11.192  16.979  0.00  0.00    +0.000 HD
ATOM     21  H   UNL     1      -4.808   9.964  16.600  0.00  0.00    +0.000 HD
BRANCH  17  22
ATOM     22  C   UNL     1      -5.740  11.416  18.970  0.00  0.00    +0.000 C 
ATOM     23  C   UNL     1      -6.979  11.865  18.210  0.00  0.00    +0.000 C 
ATOM     24  C   UNL     1      -6.852  10.443  18.637  0.00  0.00    +0.000 C 
ENDBRANCH  17  22
ENDBRANCH   6  14
BRANCH   1  30
ATOM     25  C   UNL     1       2.119   8.100  19.099  0.00  0.00    +0.000 A 
ATOM     26  C   UNL     1       2.364   6.869  18.478  0.00  0.00    +0.000 A 
ATOM     27  C   UNL     1       2.130   5.649  19.121  0.00  0.00    +0.000 A 
ATOM     28  C   UNL     1       1.643   5.741  20.433  0.00  0.00    +0.000 A 
ATOM     29  C   UNL     1       1.383   6.972  21.055  0.00  0.00    +0.000 A 
ATOM     30  C   UNL     1       1.636   8.178  20.403  0.00  0.00    +0.000 A 
BRANCH  27  31
ATOM     31  N   UNL     1       2.319   4.442  18.482  0.00  0.00    +0.000 N 
ATOM     32  C   UNL     1       1.377   3.312  18.591  0.00  0.00    +0.000 C 
ATOM     33  C   UNL     1       2.170   2.023  18.842  0.00  0.00    +0.000 C 
ATOM     34  O   UNL     1       3.123   1.787  17.793  0.00  0.00    +0.000 OA
ATOM     35  C   UNL     1       4.052   2.880  17.711  0.00  0.00    +0.000 C 
ATOM     36  C   UNL     1       3.351   4.227  17.457  0.00  0.00    +0.000 C 
ENDBRANCH  27  31
ENDBRANCH   1  30
TORSDOF 4
ENDMDL
MODEL 2
REMARK VINA RESULT:      -8.3      1.783      2.016
REMARK  Name = 
REMARK  4 active torsions:
REMARK  status: ('A' for Active; 'I' for Inactive)
REMARK    1  A    between atoms: C_3  and  N_4
REMARK    2  A    between atoms: C_12  and  N_13
REMARK    3  A    between atoms: C_18  and  N_19
REMARK    4  A    between atoms: C_22  and  C_23
REMARK                            x       y       z     vdW  Elec       q    Type
REMARK                         _______ _______ _______ _____ _____    ______ ____
ROOT
ATOM      1  N   UNL     1       0.340   9.520  21.630  0.00  0.00    +0.000 N 
ATOM      2  C   UNL     1      -0.411  10.669  21.388  0.00  0.00    +0.000 A 
ATOM      3  N   UNL     1      -0.526  11.513  22.410  0.00  0.00    +0.000 NA
ATOM      4  C   UNL     1      -1.141  12.690  22.169  0.00  0.00    +0.000 A 
ATOM      5  C   UNL     1      -1.678  13.026  20.928  0.00  0.00    +0.000 A 
ATOM      6  C   UNL     1      -1.528  12.084  19.933  0.00  0.00    +0.000 A 
ATOM      7  N   UNL     1      -0.918  10.917  20.181  0.00  0.00    +0.000 NA
ATOM      8  C   UNL     1      -2.348  14.351  20.727  0.00  0.00    +0.000 C 
ATOM      9  C   UNL     1      -2.796  14.968  22.056  0.00  0.00    +0.000 C 
ATOM     10  N   UNL     1      -1.690  14.995  23.015  0.00  0.00    +0.000 NA
ATOM     11  C   UNL     1      -1.273  13.625  23.350  0.00  0.00    +0.000 C 
ATOM     12  H   UNL     1       0.742   9.607  22.552  0.00  0.00    +0.000 HD
ATOM     13  H   UNL     1      -1.986  15.457  23.873  0.00  0.00    +0.000 HD
ENDROOT
BRANCH   6  14
ATOM     14  N   UNL     1      -2.003  12.324  18.618  0.00  0.00    +0.000 N 
ATOM     15  C   UNL     1      -3.200  11.874  18.164  0.00  0.00    +0.000 A 
ATOM     16  C   UNL     1      -4.392  11.922  18.924  0.00  0.00    +0.000 A 
ATOM     17  C   UNL     1      -5.314  11.219  18.195  0.00  0.00    +0.000 A 
ATOM     18  N   UNL     1      -4.696  10.916  17.017  0.00  0.00    +0.000 N 
ATOM     19  N   UNL     1      -3.411  11.332  16.961  0.00  0.00    +0.000 NA
ATOM     20  H   UNL     1      -1.246  12.175  17.960  0.00  0.00    +0.000 HD
ATOM     21  H   UNL     1      -5.071  10.407  16.226  0.00  0.00    +0.000 HD
BRANCH  17  22
ATOM     22  C   UNL     1      -6.709  10.812  18.623  0.00  0.00    +0.000 C 
ATOM     23  C   UNL     1      -6.863   9.480  19.343  0.00  0.00    +0.000 C 
ATOM     24  C   UNL     1      -7.039  10.751  20.101  0.00  0.00    +0.000 C 
ENDBRANCH  17  22
ENDBRANCH   6  14
BRANCH   1  30
ATOM     25  C   UNL     1       1.410   9.134  19.444  0.00  0.00    +0.000 A 
ATOM     26  C   UNL     1       2.112   8.293  18.572  0.00  0.00    +0.000 A 
ATOM     27  C   UNL     1       2.479   6.990  18.925  0.00  0.00    +0.000 A 
ATOM     28  C   UNL     1       2.106   6.586  20.215  0.00  0.00    +0.000 A 
ATOM     29  C   UNL     1       1.391   7.421  21.088  0.00  0.00    +0.000 A 
ATOM     30  C   UNL     1       1.047   8.721  20.724  0.00  0.00    +0.000 A 
BRANCH  27  31
ATOM     31  N   UNL     1       3.118   6.149  18.039  0.00  0.00    +0.000 N 
ATOM     32  C   UNL     1       2.632   4.796  17.713  0.00  0.00    +0.000 C 
ATOM     33  C   UNL     1       3.813   3.818  17.749  0.00  0.00    +0.000 C 
ATOM     34  O   UNL     1       4.846   4.217  16.835  0.00  0.00    +0.000 OA
ATOM     35  C   UNL     1       5.333   5.525  17.175  0.00  0.00    +0.000 C 
ATOM     36  C   UNL     1       4.217   6.586  17.164  0.00  0.00    +0.000 C 
ENDBRANCH  27  31
ENDBRANCH   1  30
TORSDOF 4
ENDMDL
MODEL 3
REMARK VINA RESULT:      -8.3      4.084     10.282
REMARK  Name = 
REMARK  4 active torsions:
REMARK  status: ('A' for Active; 'I' for Inactive)
REMARK    1  A    between atoms: C_3  and  N_4
REMARK    2  A    between atoms: C_12  and  N_13
REMARK    3  A    between atoms: C_18  and  N_19
REMARK    4  A    between atoms: C_22  and  C_23
REMARK                            x       y       z     vdW  Elec       q    Type
REMARK                         _______ _______ _______ _____ _____    ______ ____
ROOT
ATOM      1  N   UNL     1       1.155   7.060  20.274  0.00  0.00    +0.000 N 
ATOM      2  C   UNL     1       2.059   6.027  20.027  0.00  0.00    +0.000 A 
ATOM      3  N   UNL     1       1.539   4.804  19.965  0.00  0.00    +0.000 NA
ATOM      4  C   UNL     1       2.367   3.802  19.605  0.00  0.00    +0.000 A 
ATOM      5  C   UNL     1       3.721   3.994  19.339  0.00  0.00    +0.000 A 
ATOM      6  C   UNL     1       4.177   5.290  19.445  0.00  0.00    +0.000 A 
ATOM      7  N   UNL     1       3.348   6.280  19.806  0.00  0.00    +0.000 NA
ATOM      8  C   UNL     1       4.586   2.837  18.943  0.00  0.00    +0.000 C 
ATOM      9  C   UNL     1       3.972   1.497  19.365  0.00  0.00    +0.000 C 
ATOM     10  N   UNL     1       2.586   1.395  18.906  0.00  0.00    +0.000 NA
ATOM     11  C   UNL     1       1.756   2.419  19.558  0.00  0.00    +0.000 C 
ATOM     12  H   UNL     1       0.228   6.662  20.267  0.00  0.00    +0.000 HD
ATOM     13  H   UNL     1       2.208   0.479  19.145  0.00  0.00    +0.000 HD
ENDROOT
BRANCH   6  14
ATOM     14  N   UNL     1       5.528   5.618  19.166  0.00  0.00    +0.000 N 
ATOM     15  C   UNL     1       6.108   5.423  17.954  0.00  0.00    +0.000 A 
ATOM     16  C   UNL     1       5.470   5.718  16.727  0.00  0.00    +0.000 A 
ATOM     17  C   UNL     1       6.301   5.218  15.759  0.00  0.00    +0.000 A 
ATOM     18  N   UNL     1       7.416   4.790  16.418  0.00  0.00    +0.000 N 
ATOM     19  N   UNL     1       7.335   4.933  17.760  0.00  0.00    +0.000 NA
ATOM     20  H   UNL     1       6.109   5.315  19.939  0.00  0.00    +0.000 HD
ATOM     21  H   UNL     1       8.250   4.368  16.029  0.00  0.00    +0.000 HD
BRANCH  17  22
ATOM     22  C   UNL     1       6.022   5.109  14.274  0.00  0.00    +0.000 C 
ATOM     23  C   UNL     1       7.161   4.648  13.377  0.00  0.00    +0.000 C 
ATOM     24  C   UNL     1       6.006   3.739  13.625  0.00  0.00    +0.000 C 
ENDBRANCH  17  22
ENDBRANCH   6  14
BRANCH   1  30
ATOM     25  C   UNL     1       0.929   9.458  20.794  0.00  0.00    +0.000 A 
ATOM     26  C   UNL     1       1.033  10.797  20.399  0.00  0.00    +0.000 A 
ATOM     27  C   UNL     1       1.450  11.166  19.116  0.00  0.00    +0.000 A 
ATOM     28  C   UNL     1       1.766  10.105  18.255  0.00  0.00    +0.000 A 
ATOM     29  C   UNL     1       1.651   8.761  18.642  0.00  0.00    +0.000 A 
ATOM     30  C   UNL     1       1.248   8.413  19.930  0.00  0.00    +0.000 A 
BRANCH  27  31
ATOM     31  N   UNL     1       1.493  12.485  18.716  0.00  0.00    +0.000 N 
ATOM     32  C   UNL     1       2.718  13.143  18.227  0.00  0.00    +0.000 C 
ATOM     33  C   UNL     1       2.854  14.515  18.901  0.00  0.00    +0.000 C 
ATOM     34  O   UNL     1       1.702  15.335  18.644  0.00  0.00    +0.000 OA
ATOM     35  C   UNL     1       0.517  14.699  19.148  0.00  0.00    +0.000 C 
ATOM     36  C   UNL     1       0.289  13.309  18.527  0.00  0.00    +0.000 C 
ENDBRANCH  27  31
ENDBRANCH   1  30
TORSDOF 4
ENDMDL
MODEL 4
REMARK VINA RESULT:      -8.1      4.002     10.196
REMARK  Name = 
REMARK  4 active torsions:
REMARK  status: ('A' for Active; 'I' for Inactive)
REMARK    1  A    between atoms: C_3  and  N_4
REMARK    2  A    between atoms: C_12  and  N_13
REMARK    3  A    between atoms: C_18  and  N_19
REMARK    4  A    between atoms: C_22  and  C_23
REMARK                            x       y       z     vdW  Elec       q    Type
REMARK                         _______ _______ _______ _____ _____    ______ ____
ROOT
ATOM      1  N   UNL     1       0.958   6.770  20.746  0.00  0.00    +0.000 N 
ATOM      2  C   UNL     1       1.873   5.803  20.331  0.00  0.00    +0.000 A 
ATOM      3  N   UNL     1       1.372   4.591  20.104  0.00  0.00    +0.000 NA
ATOM      4  C   UNL     1       2.207   3.669  19.583  0.00  0.00    +0.000 A 
ATOM      5  C   UNL     1       3.551   3.925  19.317  0.00  0.00    +0.000 A 
ATOM      6  C   UNL     1       3.987   5.201  19.599  0.00  0.00    +0.000 A 
ATOM      7  N   UNL     1       3.151   6.111  20.119  0.00  0.00    +0.000 NA
ATOM      8  C   UNL     1       4.425   2.856  18.737  0.00  0.00    +0.000 C 
ATOM      9  C   UNL     1       3.845   1.457  18.974  0.00  0.00    +0.000 C 
ATOM     10  N   UNL     1       2.449   1.393  18.537  0.00  0.00    +0.000 NA
ATOM     11  C   UNL     1       1.620   2.295  19.350  0.00  0.00    +0.000 C 
ATOM     12  H   UNL     1       0.038   6.359  20.702  0.00  0.00    +0.000 HD
ATOM     13  H   UNL     1       2.094   0.445  18.649  0.00  0.00    +0.000 HD
ENDROOT
BRANCH   6  14
ATOM     14  N   UNL     1       5.324   5.594  19.340  0.00  0.00    +0.000 N 
ATOM     15  C   UNL     1       5.929   5.433  18.135  0.00  0.00    +0.000 A 
ATOM     16  C   UNL     1       5.295   5.703  16.901  0.00  0.00    +0.000 A 
ATOM     17  C   UNL     1       6.161   5.247  15.942  0.00  0.00    +0.000 A 
ATOM     18  N   UNL     1       7.286   4.870  16.615  0.00  0.00    +0.000 N 
ATOM     19  N   UNL     1       7.181   5.002  17.956  0.00  0.00    +0.000 NA
ATOM     20  H   UNL     1       5.909   5.315  20.120  0.00  0.00    +0.000 HD
ATOM     21  H   UNL     1       8.144   4.489  16.235  0.00  0.00    +0.000 HD
BRANCH  17  22
ATOM     22  C   UNL     1       5.907   5.132  14.453  0.00  0.00    +0.000 C 
ATOM     23  C   UNL     1       7.100   4.831  13.558  0.00  0.00    +0.000 C 
ATOM     24  C   UNL     1       6.064   3.783  13.780  0.00  0.00    +0.000 C 
ENDBRANCH  17  22
ENDBRANCH   6  14
BRANCH   1  30
ATOM     25  C   UNL     1       0.822   9.060  21.645  0.00  0.00    +0.000 A 
ATOM     26  C   UNL     1       0.888  10.445  21.445  0.00  0.00    +0.000 A 
ATOM     27  C   UNL     1       1.141  11.007  20.189  0.00  0.00    +0.000 A 
ATOM     28  C   UNL     1       1.335  10.090  19.146  0.00  0.00    +0.000 A 
ATOM     29  C   UNL     1       1.257   8.702  19.338  0.00  0.00    +0.000 A 
ATOM     30  C   UNL     1       1.019   8.161  20.600  0.00  0.00    +0.000 A 
BRANCH  27  31
ATOM     31  N   UNL     1       1.145  12.371  19.990  0.00  0.00    +0.000 N 
ATOM     32  C   UNL     1      -0.082  13.189  19.966  0.00  0.00    +0.000 C 
ATOM     33  C   UNL     1      -0.021  14.147  18.770  0.00  0.00    +0.000 C 
ATOM     34  O   UNL     1       1.145  14.985  18.834  0.00  0.00    +0.000 OA
ATOM     35  C   UNL     1       2.335  14.181  18.830  0.00  0.00    +0.000 C 
ATOM     36  C   UNL     1       2.371  13.182  20.002  0.00  0.00    +0.000 C 
ENDBRANCH  27  31
ENDBRANCH   1  30
TORSDOF 4
ENDMDL
MODEL 5
REMARK VINA RESULT:      -8.1      4.355     10.244
REMARK  Name = 
REMARK  4 active torsions:
REMARK  status: ('A' for Active; 'I' for Inactive)
REMARK    1  A    between atoms: C_3  and  N_4
REMARK    2  A    between atoms: C_12  and  N_13
REMARK    3  A    between atoms: C_18  and  N_19
REMARK    4  A    between atoms: C_22  and  C_23
REMARK                            x       y       z     vdW  Elec       q    Type
REMARK                         _______ _______ _______ _____ _____    ______ ____
ROOT
ATOM      1  N   UNL     1       0.987   6.805  20.689  0.00  0.00    +0.000 N 
ATOM      2  C   UNL     1       1.887   5.815  20.296  0.00  0.00    +0.000 A 
ATOM      3  N   UNL     1       1.366   4.609  20.084  0.00  0.00    +0.000 NA
ATOM      4  C   UNL     1       2.188   3.663  19.584  0.00  0.00    +0.000 A 
ATOM      5  C   UNL     1       3.537   3.891  19.322  0.00  0.00    +0.000 A 
ATOM      6  C   UNL     1       3.995   5.164  19.588  0.00  0.00    +0.000 A 
ATOM      7  N   UNL     1       3.172   6.097  20.088  0.00  0.00    +0.000 NA
ATOM      8  C   UNL     1       4.396   2.798  18.766  0.00  0.00    +0.000 C 
ATOM      9  C   UNL     1       3.790   1.414  19.021  0.00  0.00    +0.000 C 
ATOM     10  N   UNL     1       2.396   1.368  18.575  0.00  0.00    +0.000 NA
ATOM     11  C   UNL     1       1.577   2.297  19.368  0.00  0.00    +0.000 C 
ATOM     12  H   UNL     1       0.060   6.409  20.645  0.00  0.00    +0.000 HD
ATOM     13  H   UNL     1       2.023   0.428  18.699  0.00  0.00    +0.000 HD
ENDROOT
BRANCH   6  14
ATOM     14  N   UNL     1       5.341   5.529  19.332  0.00  0.00    +0.000 N 
ATOM     15  C   UNL     1       5.942   5.363  18.127  0.00  0.00    +0.000 A 
ATOM     16  C   UNL     1       5.315   5.656  16.894  0.00  0.00    +0.000 A 
ATOM     17  C   UNL     1       6.171   5.188  15.932  0.00  0.00    +0.000 A 
ATOM     18  N   UNL     1       7.287   4.780  16.602  0.00  0.00    +0.000 N 
ATOM     19  N   UNL     1       7.184   4.905  17.944  0.00  0.00    +0.000 NA
ATOM     20  H   UNL     1       5.919   5.231  20.110  0.00  0.00    +0.000 HD
ATOM     21  H   UNL     1       8.137   4.383  16.220  0.00  0.00    +0.000 HD
BRANCH  17  22
ATOM     22  C   UNL     1       5.915   5.089  14.442  0.00  0.00    +0.000 C 
ATOM     23  C   UNL     1       7.118   4.875  13.535  0.00  0.00    +0.000 C 
ATOM     24  C   UNL     1       6.144   3.766  13.740  0.00  0.00    +0.000 C 
ENDBRANCH  17  22
ENDBRANCH   6  14
BRANCH   1  30
ATOM     25  C   UNL     1       1.335   8.811  19.302  0.00  0.00    +0.000 A 
ATOM     26  C   UNL     1       1.417  10.205  19.188  0.00  0.00    +0.000 A 
ATOM     27  C   UNL     1       1.256  11.054  20.287  0.00  0.00    +0.000 A 
ATOM     28  C   UNL     1       0.995  10.418  21.509  0.00  0.00    +0.000 A 
ATOM     29  C   UNL     1       0.924   9.021  21.631  0.00  0.00    +0.000 A 
ATOM     30  C   UNL     1       1.074   8.192  20.522  0.00  0.00    +0.000 A 
BRANCH  27  31
ATOM     31  N   UNL     1       1.397  12.421  20.177  0.00  0.00    +0.000 N 
ATOM     32  C   UNL     1       2.067  13.076  19.038  0.00  0.00    +0.000 C 
ATOM     33  C   UNL     1       3.023  14.151  19.571  0.00  0.00    +0.000 C 
ATOM     34  O   UNL     1       2.323  15.118  20.371  0.00  0.00    +0.000 OA
ATOM     35  C   UNL     1       1.696  14.475  21.492  0.00  0.00    +0.000 C 
ATOM     36  C   UNL     1       0.709  13.375  21.060  0.00  0.00    +0.000 C 
ENDBRANCH  27  31
ENDBRANCH   1  30
TORSDOF 4
ENDMDL
MODEL 6
REMARK VINA RESULT:      -8.0      1.834      2.114
REMARK  Name = 
REMARK  4 active torsions:
REMARK  status: ('A' for Active; 'I' for Inactive)
REMARK    1  A    between atoms: C_3  and  N_4
REMARK    2  A    between atoms: C_12  and  N_13
REMARK    3  A    between atoms: C_18  and  N_19
REMARK    4  A    between atoms: C_22  and  C_23
REMARK                            x       y       z     vdW  Elec       q    Type
REMARK                         _______ _______ _______ _____ _____    ______ ____
ROOT
ATOM      1  N   UNL     1       0.904   8.672  20.882  0.00  0.00    +0.000 N 
ATOM      2  C   UNL     1       0.125   9.815  20.702  0.00  0.00    +0.000 A 
ATOM      3  N   UNL     1      -0.098  10.541  21.794  0.00  0.00    +0.000 NA
ATOM      4  C   UNL     1      -0.742  11.716  21.629  0.00  0.00    +0.000 A 
ATOM      5  C   UNL     1      -1.202  12.163  20.392  0.00  0.00    +0.000 A 
ATOM      6  C   UNL     1      -0.942  11.337  19.320  0.00  0.00    +0.000 A 
ATOM      7  N   UNL     1      -0.304  10.171  19.492  0.00  0.00    +0.000 NA
ATOM      8  C   UNL     1      -1.910  13.478  20.278  0.00  0.00    +0.000 C 
ATOM      9  C   UNL     1      -2.478  13.937  21.625  0.00  0.00    +0.000 C 
ATOM     10  N   UNL     1      -1.446  13.899  22.663  0.00  0.00    +0.000 NA
ATOM     11  C   UNL     1      -0.999  12.516  22.886  0.00  0.00    +0.000 C 
ATOM     12  H   UNL     1       1.234   8.674  21.835  0.00  0.00    +0.000 HD
ATOM     13  H   UNL     1      -1.822  14.258  23.540  0.00  0.00    +0.000 HD
ENDROOT
BRANCH   6  14
ATOM     14  N   UNL     1      -1.329  11.699  18.004  0.00  0.00    +0.000 N 
ATOM     15  C   UNL     1      -2.584  11.516  17.520  0.00  0.00    +0.000 A 
ATOM     16  C   UNL     1      -3.756  11.793  18.262  0.00  0.00    +0.000 A 
ATOM     17  C   UNL     1      -4.788  11.312  17.501  0.00  0.00    +0.000 A 
ATOM     18  N   UNL     1      -4.222  10.913  16.326  0.00  0.00    +0.000 N 
ATOM     19  N   UNL     1      -2.878  11.056  16.301  0.00  0.00    +0.000 NA
ATOM     20  H   UNL     1      -0.606  11.411  17.355  0.00  0.00    +0.000 HD
ATOM     21  H   UNL     1      -4.677  10.511  15.516  0.00  0.00    +0.000 HD
BRANCH  17  22
ATOM     22  C   UNL     1      -6.245  11.193  17.897  0.00  0.00    +0.000 C 
ATOM     23  C   UNL     1      -6.624  10.075  18.856  0.00  0.00    +0.000 C 
ATOM     24  C   UNL     1      -6.648  11.489  19.328  0.00  0.00    +0.000 C 
ENDBRANCH  17  22
ENDBRANCH   6  14
BRANCH   1  30
ATOM     25  C   UNL     1       2.121   8.545  18.743  0.00  0.00    +0.000 A 
ATOM     26  C   UNL     1       2.920   7.826  17.846  0.00  0.00    +0.000 A 
ATOM     27  C   UNL     1       3.338   6.516  18.103  0.00  0.00    +0.000 A 
ATOM     28  C   UNL     1       2.911   5.976  19.325  0.00  0.00    +0.000 A 
ATOM     29  C   UNL     1       2.100   6.688  20.222  0.00  0.00    +0.000 A 
ATOM     30  C   UNL     1       1.706   7.997  19.954  0.00  0.00    +0.000 A 
BRANCH  27  31
ATOM     31  N   UNL     1       4.074   5.795  17.188  0.00  0.00    +0.000 N 
ATOM     32  C   UNL     1       3.877   4.353  16.946  0.00  0.00    +0.000 C 
ATOM     33  C   UNL     1       5.246   3.661  16.905  0.00  0.00    +0.000 C 
ATOM     34  O   UNL     1       6.086   4.234  15.890  0.00  0.00    +0.000 OA
ATOM     35  C   UNL     1       6.295   5.631  16.148  0.00  0.00    +0.000 C 
ATOM     36  C   UNL     1       4.973   6.420  16.207  0.00  0.00    +0.000 C 
ENDBRANCH  27  31
ENDBRANCH   1  30
TORSDOF 4
ENDMDL
MODEL 7
REMARK VINA RESULT:      -8.0      1.047      1.470
REMARK  Name = 
REMARK  4 active torsions:
REMARK  status: ('A' for Active; 'I' for Inactive)
REMARK    1  A    between atoms: C_3  and  N_4
REMARK    2  A    between atoms: C_12  and  N_13
REMARK    3  A    between atoms: C_18  and  N_19
REMARK    4  A    between atoms: C_22  and  C_23
REMARK                            x       y       z     vdW  Elec       q    Type
REMARK                         _______ _______ _______ _____ _____    ______ ____
ROOT
ATOM      1  N   UNL     1       0.917   9.378  21.142  0.00  0.00    +0.000 N 
ATOM      2  C   UNL     1       0.323  10.579  20.756  0.00  0.00    +0.000 A 
ATOM      3  N   UNL     1       0.367  11.561  21.653  0.00  0.00    +0.000 NA
ATOM      4  C   UNL     1      -0.087  12.770  21.262  0.00  0.00    +0.000 A 
ATOM      5  C   UNL     1      -0.620  13.009  19.997  0.00  0.00    +0.000 A 
ATOM      6  C   UNL     1      -0.642  11.930  19.140  0.00  0.00    +0.000 A 
ATOM      7  N   UNL     1      -0.191  10.731  19.537  0.00  0.00    +0.000 NA
ATOM      8  C   UNL     1      -1.106  14.377  19.626  0.00  0.00    +0.000 C 
ATOM      9  C   UNL     1      -1.412  15.226  20.865  0.00  0.00    +0.000 C 
ATOM     10  N   UNL     1      -0.276  15.223  21.789  0.00  0.00    +0.000 NA
ATOM     11  C   UNL     1      -0.042  13.866  22.303  0.00  0.00    +0.000 C 
ATOM     12  H   UNL     1       1.362   9.530  22.035  0.00  0.00    +0.000 HD
ATOM     13  H   UNL     1      -0.471  15.835  22.580  0.00  0.00    +0.000 HD
ENDROOT
BRANCH   6  14
ATOM     14  N   UNL     1      -1.129  12.055  17.815  0.00  0.00    +0.000 N 
ATOM     15  C   UNL     1      -2.356  11.622  17.427  0.00  0.00    +0.000 A 
ATOM     16  C   UNL     1      -3.528  11.810  18.195  0.00  0.00    +0.000 A 
ATOM     17  C   UNL     1      -4.499  11.083  17.556  0.00  0.00    +0.000 A 
ATOM     18  N   UNL     1      -3.919  10.627  16.408  0.00  0.00    +0.000 N 
ATOM     19  N   UNL     1      -2.616  10.969  16.291  0.00  0.00    +0.000 NA
ATOM     20  H   UNL     1      -0.393  11.800  17.165  0.00  0.00    +0.000 HD
ATOM     21  H   UNL     1      -4.334  10.059  15.680  0.00  0.00    +0.000 HD
BRANCH  17  22
ATOM     22  C   UNL     1      -5.903  10.795  18.045  0.00  0.00    +0.000 C 
ATOM     23  C   UNL     1      -6.335  11.431  19.358  0.00  0.00    +0.000 C 
ATOM     24  C   UNL     1      -6.919  11.920  18.077  0.00  0.00    +0.000 C 
ENDBRANCH  17  22
ENDBRANCH   6  14
BRANCH   1  30
ATOM     25  C   UNL     1       1.670   7.061  20.772  0.00  0.00    +0.000 A 
ATOM     26  C   UNL     1       2.232   6.090  19.933  0.00  0.00    +0.000 A 
ATOM     27  C   UNL     1       2.635   6.377  18.625  0.00  0.00    +0.000 A 
ATOM     28  C   UNL     1       2.429   7.699  18.206  0.00  0.00    +0.000 A 
ATOM     29  C   UNL     1       1.878   8.679  19.046  0.00  0.00    +0.000 A 
ATOM     30  C   UNL     1       1.469   8.370  20.342  0.00  0.00    +0.000 A 
BRANCH  27  31
ATOM     31  N   UNL     1       3.242   5.430  17.827  0.00  0.00    +0.000 N 
ATOM     32  C   UNL     1       2.669   4.094  17.579  0.00  0.00    +0.000 C 
ATOM     33  C   UNL     1       3.774   3.040  17.732  0.00  0.00    +0.000 C 
ATOM     34  O   UNL     1       4.865   3.298  16.833  0.00  0.00    +0.000 OA
ATOM     35  C   UNL     1       5.434   4.590  17.100  0.00  0.00    +0.000 C 
ATOM     36  C   UNL     1       4.400   5.723  16.969  0.00  0.00    +0.000 C 
ENDBRANCH  27  31
ENDBRANCH   1  30
TORSDOF 4
ENDMDL
MODEL 8
REMARK VINA RESULT:      -7.8      0.603      1.089
REMARK  Name = 
REMARK  4 active torsions:
REMARK  status: ('A' for Active; 'I' for Inactive)
REMARK    1  A    between atoms: C_3  and  N_4
REMARK    2  A    between atoms: C_12  and  N_13
REMARK    3  A    between atoms: C_18  and  N_19
REMARK    4  A    between atoms: C_22  and  C_23
REMARK                            x       y       z     vdW  Elec       q    Type
REMARK                         _______ _______ _______ _____ _____    ______ ____
ROOT
ATOM      1  N   UNL     1       1.056   9.380  21.322  0.00  0.00    +0.000 N 
ATOM      2  C   UNL     1       0.564  10.528  20.701  0.00  0.00    +0.000 A 
ATOM      3  N   UNL     1       0.755  11.668  21.358  0.00  0.00    +0.000 NA
ATOM      4  C   UNL     1       0.402  12.808  20.727  0.00  0.00    +0.000 A 
ATOM      5  C   UNL     1      -0.174  12.826  19.458  0.00  0.00    +0.000 A 
ATOM      6  C   UNL     1      -0.350  11.596  18.860  0.00  0.00    +0.000 A 
ATOM      7  N   UNL     1       0.001  10.469  19.496  0.00  0.00    +0.000 NA
ATOM      8  C   UNL     1      -0.542  14.126  18.812  0.00  0.00    +0.000 C 
ATOM      9  C   UNL     1      -0.693  15.250  19.843  0.00  0.00    +0.000 C 
ATOM     10  N   UNL     1       0.487  15.322  20.708  0.00  0.00    +0.000 NA
ATOM     11  C   UNL     1       0.613  14.089  21.500  0.00  0.00    +0.000 C 
ATOM     12  H   UNL     1       1.563   9.671  22.144  0.00  0.00    +0.000 HD
ATOM     13  H   UNL     1       0.397  16.107  21.351  0.00  0.00    +0.000 HD
ENDROOT
BRANCH   6  14
ATOM     14  N   UNL     1      -0.896  11.486  17.556  0.00  0.00    +0.000 N 
ATOM     15  C   UNL     1      -2.213  11.265  17.315  0.00  0.00    +0.000 A 
ATOM     16  C   UNL     1      -3.255  11.911  18.020  0.00  0.00    +0.000 A 
ATOM     17  C   UNL     1      -4.407  11.290  17.612  0.00  0.00    +0.000 A 
ATOM     18  N   UNL     1      -4.029  10.433  16.621  0.00  0.00    +0.000 N 
ATOM     19  N   UNL     1      -2.696  10.421  16.399  0.00  0.00    +0.000 NA
ATOM     20  H   UNL     1      -0.285  10.908  16.989  0.00  0.00    +0.000 HD
ATOM     21  H   UNL     1      -4.612   9.809  16.077  0.00  0.00    +0.000 HD
BRANCH  17  22
ATOM     22  C   UNL     1      -5.799  11.472  18.179  0.00  0.00    +0.000 C 
ATOM     23  C   UNL     1      -6.409  10.301  18.934  0.00  0.00    +0.000 C 
ATOM     24  C   UNL     1      -5.985  11.518  19.682  0.00  0.00    +0.000 C 
ENDBRANCH  17  22
ENDBRANCH   6  14
BRANCH   1  30
ATOM     25  C   UNL     1       2.154   8.078  19.541  0.00  0.00    +0.000 A 
ATOM     26  C   UNL     1       2.532   6.841  19.003  0.00  0.00    +0.000 A 
ATOM     27  C   UNL     1       2.226   5.630  19.630  0.00  0.00    +0.000 A 
ATOM     28  C   UNL     1       1.526   5.736  20.841  0.00  0.00    +0.000 A 
ATOM     29  C   UNL     1       1.134   6.972  21.378  0.00  0.00    +0.000 A 
ATOM     30  C   UNL     1       1.460   8.170  20.745  0.00  0.00    +0.000 A 
BRANCH  27  31
ATOM     31  N   UNL     1       2.550   4.415  19.064  0.00  0.00    +0.000 N 
ATOM     32  C   UNL     1       3.459   4.276  17.911  0.00  0.00    +0.000 C 
ATOM     33  C   UNL     1       2.835   3.311  16.895  0.00  0.00    +0.000 C 
ATOM     34  O   UNL     1       2.572   2.030  17.489  0.00  0.00    +0.000 OA
ATOM     35  C   UNL     1       1.664   2.171  18.594  0.00  0.00    +0.000 C 
ATOM     36  C   UNL     1       2.204   3.124  19.677  0.00  0.00    +0.000 C 
ENDBRANCH  27  31
ENDBRANCH   1  30
TORSDOF 4
ENDMDL
MODEL 9
REMARK VINA RESULT:      -7.7      4.290     10.227
REMARK  Name = 
REMARK  4 active torsions:
REMARK  status: ('A' for Active; 'I' for Inactive)
REMARK    1  A    between atoms: C_3  and  N_4
REMARK    2  A    between atoms: C_12  and  N_13
REMARK    3  A    between atoms: C_18  and  N_19
REMARK    4  A    between atoms: C_22  and  C_23
REMARK                            x       y       z     vdW  Elec       q    Type
REMARK                         _______ _______ _______ _____ _____    ______ ____
ROOT
ATOM      1  N   UNL     1       0.965   6.950  20.328  0.00  0.00    +0.000 N 
ATOM      2  C   UNL     1       1.884   5.944  20.031  0.00  0.00    +0.000 A 
ATOM      3  N   UNL     1       1.367   4.751  19.753  0.00  0.00    +0.000 NA
ATOM      4  C   UNL     1       2.222   3.791  19.340  0.00  0.00    +0.000 A 
ATOM      5  C   UNL     1       3.596   3.994  19.234  0.00  0.00    +0.000 A 
ATOM      6  C   UNL     1       4.045   5.256  19.559  0.00  0.00    +0.000 A 
ATOM      7  N   UNL     1       3.189   6.202  19.971  0.00  0.00    +0.000 NA
ATOM      8  C   UNL     1       4.491   2.886  18.769  0.00  0.00    +0.000 C 
ATOM      9  C   UNL     1       3.833   1.513  18.943  0.00  0.00    +0.000 C 
ATOM     10  N   UNL     1       2.497   1.498  18.343  0.00  0.00    +0.000 NA
ATOM     11  C   UNL     1       1.613   2.439  19.046  0.00  0.00    +0.000 C 
ATOM     12  H   UNL     1       0.041   6.574  20.178  0.00  0.00    +0.000 HD
ATOM     13  H   UNL     1       2.094   0.565  18.418  0.00  0.00    +0.000 HD
ENDROOT
BRANCH   6  14
ATOM     14  N   UNL     1       5.418   5.595  19.459  0.00  0.00    +0.000 N 
ATOM     15  C   UNL     1       6.161   5.375  18.345  0.00  0.00    +0.000 A 
ATOM     16  C   UNL     1       5.696   5.627  17.033  0.00  0.00    +0.000 A 
ATOM     17  C   UNL     1       6.657   5.112  16.203  0.00  0.00    +0.000 A 
ATOM     18  N   UNL     1       7.675   4.718  17.022  0.00  0.00    +0.000 N 
ATOM     19  N   UNL     1       7.409   4.896  18.335  0.00  0.00    +0.000 NA
ATOM     20  H   UNL     1       5.891   5.320  20.313  0.00  0.00    +0.000 HD
ATOM     21  H   UNL     1       8.558   4.297  16.763  0.00  0.00    +0.000 HD
BRANCH  17  22
ATOM     22  C   UNL     1       6.585   4.958  14.698  0.00  0.00    +0.000 C 
ATOM     23  C   UNL     1       6.260   3.578  14.148  0.00  0.00    +0.000 C 
ATOM     24  C   UNL     1       5.248   4.667  14.049  0.00  0.00    +0.000 C 
ENDBRANCH  17  22
ENDBRANCH   6  14
BRANCH   1  30
ATOM     25  C   UNL     1       1.383   8.965  18.974  0.00  0.00    +0.000 A 
ATOM     26  C   UNL     1       1.511  10.357  18.881  0.00  0.00    +0.000 A 
ATOM     27  C   UNL     1       1.371  11.194  19.993  0.00  0.00    +0.000 A 
ATOM     28  C   UNL     1       1.084  10.548  21.204  0.00  0.00    +0.000 A 
ATOM     29  C   UNL     1       0.968   9.153  21.304  0.00  0.00    +0.000 A 
ATOM     30  C   UNL     1       1.097   8.336  20.183  0.00  0.00    +0.000 A 
BRANCH  27  31
ATOM     31  N   UNL     1       1.556  12.558  19.904  0.00  0.00    +0.000 N 
ATOM     32  C   UNL     1       0.839  13.529  20.751  0.00  0.00    +0.000 C 
ATOM     33  C   UNL     1       0.324  14.675  19.871  0.00  0.00    +0.000 C 
ATOM     34  O   UNL     1       1.402  15.315  19.169  0.00  0.00    +0.000 OA
ATOM     35  C   UNL     1       2.078  14.368  18.326  0.00  0.00    +0.000 C 
ATOM     36  C   UNL     1       2.638  13.173  19.120  0.00  0.00    +0.000 C 
ENDBRANCH  27  31
ENDBRANCH   1  30
TORSDOF 4
ENDMDL
