MODEL 1
REMARK VINA RESULT:      -8.7      0.000      0.000
REMARK  Name = 
REMARK  8 active torsions:
REMARK  status: ('A' for Active; 'I' for Inactive)
REMARK    1  A    between atoms: C_1  and  O_2
REMARK    2  A    between atoms: O_2  and  C_3
REMARK    3  A    between atoms: C_8  and  C_9
REMARK    4  A    between atoms: C_9  and  C_10
REMARK    5  A    between atoms: C_9  and  C_11
REMARK    6  A    between atoms: N_13  and  N_14
REMARK    7  A    between atoms: C_15  and  C_16
REMARK    8  A    between atoms: C_20  and  C_21
REMARK                            x       y       z     vdW  Elec       q    Type
REMARK                         _______ _______ _______ _____ _____    ______ ____
ROOT
ATOM      1  C   UNL     1       1.872   4.542  20.297  0.00  0.00    +0.000 C 
ATOM      2  O   UNL     1       0.677   4.243  20.259  0.00  0.00    +0.000 OA
ATOM      3  N   UNL     1       2.346   5.811  20.600  0.00  0.00    +0.000 N 
ATOM      4  H   UNL     1       3.335   6.028  20.584  0.00  0.00    +0.000 HD
ENDROOT
BRANCH   1   5
ATOM      5  C   UNL     1       2.973   3.522  19.996  0.00  0.00    +0.000 C 
ATOM      6  C   UNL     1       2.336   2.226  19.484  0.00  0.00    +0.000 C 
BRANCH   5  12
ATOM      7  C   UNL     1       6.951   5.082  14.972  0.00  0.00    +0.000 A 
ATOM      8  C   UNL     1       5.855   4.372  14.486  0.00  0.00    +0.000 A 
ATOM      9  C   UNL     1       4.865   3.923  15.368  0.00  0.00    +0.000 A 
ATOM     10  C   UNL     1       4.949   4.184  16.744  0.00  0.00    +0.000 A 
ATOM     11  C   UNL     1       3.955   3.741  17.636  0.00  0.00    +0.000 A 
ATOM     12  C   UNL     1       4.025   4.020  19.012  0.00  0.00    +0.000 A 
ATOM     13  C   UNL     1       5.137   4.730  19.489  0.00  0.00    +0.000 A 
ATOM     14  C   UNL     1       6.141   5.162  18.615  0.00  0.00    +0.000 A 
ATOM     15  C   UNL     1       6.059   4.899  17.240  0.00  0.00    +0.000 A 
ATOM     16  C   UNL     1       7.056   5.327  16.343  0.00  0.00    +0.000 A 
BRANCH   7  18
ATOM     17  C   UNL     1       7.919   5.269  12.820  0.00  0.00    +0.000 C 
ATOM     18  O   UNL     1       7.990   5.548  14.214  0.00  0.00    +0.000 OA
ENDBRANCH   7  18
ENDBRANCH   5  12
ENDBRANCH   1   5
BRANCH   3  19
ATOM     19  N   UNL     1       1.442   6.766  20.957  0.00  0.00    +0.000 NA
ATOM     20  C   UNL     1       1.716   7.994  20.663  0.00  0.00    +0.000 C 
BRANCH  20  21
ATOM     21  C   UNL     1       0.779   9.074  21.045  0.00  0.00    +0.000 A 
ATOM     22  C   UNL     1       0.500   9.302  22.395  0.00  0.00    +0.000 A 
ATOM     23  C   UNL     1      -0.393  10.315  22.752  0.00  0.00    +0.000 A 
ATOM     24  C   UNL     1      -1.009  11.093  21.766  0.00  0.00    +0.000 A 
ATOM     25  C   UNL     1      -0.738  10.870  20.408  0.00  0.00    +0.000 A 
ATOM     26  C   UNL     1       0.166   9.856  20.058  0.00  0.00    +0.000 A 
BRANCH  25  27
ATOM     27  C   UNL     1      -1.402  11.689  19.328  0.00  0.00    +0.000 C 
ATOM     28  F   UNL     1      -2.186  12.691  19.814  0.00  0.00    +0.000 F 
ATOM     29  F   UNL     1      -0.504  12.289  18.500  0.00  0.00    +0.000 F 
ATOM     30  F   UNL     1      -2.212  10.940  18.529  0.00  0.00    +0.000 F 
ENDBRANCH  25  27
ENDBRANCH  20  21
ENDBRANCH   3  19
TORSDOF 6
ENDMDL
MODEL 2
REMARK VINA RESULT:      -8.7      0.813      1.508
REMARK  Name = 
REMARK  8 active torsions:
REMARK  status: ('A' for Active; 'I' for Inactive)
REMARK    1  A    between atoms: C_1  and  O_2
REMARK    2  A    between atoms: O_2  and  C_3
REMARK    3  A    between atoms: C_8  and  C_9
REMARK    4  A    between atoms: C_9  and  C_10
REMARK    5  A    between atoms: C_9  and  C_11
REMARK    6  A    between atoms: N_13  and  N_14
REMARK    7  A    between atoms: C_15  and  C_16
REMARK    8  A    between atoms: C_20  and  C_21
REMARK                            x       y       z     vdW  Elec       q    Type
REMARK                         _______ _______ _______ _____ _____    ______ ____
ROOT
ATOM      1  C   UNL     1       1.597   4.997  20.715  0.00  0.00    +0.000 C 
ATOM      2  O   UNL     1       0.436   4.698  20.426  0.00  0.00    +0.000 OA
ATOM      3  N   UNL     1       1.998   6.269  21.102  0.00  0.00    +0.000 N 
ATOM      4  H   UNL     1       2.968   6.485  21.295  0.00  0.00    +0.000 HD
ENDROOT
BRANCH   1   5
ATOM      5  C   UNL     1       2.734   3.975  20.663  0.00  0.00    +0.000 C 
ATOM      6  C   UNL     1       2.155   2.564  20.808  0.00  0.00    +0.000 C 
BRANCH   5  12
ATOM      7  C   UNL     1       6.945   5.242  15.748  0.00  0.00    +0.000 A 
ATOM      8  C   UNL     1       7.258   6.049  16.839  0.00  0.00    +0.000 A 
ATOM      9  C   UNL     1       6.498   5.966  18.012  0.00  0.00    +0.000 A 
ATOM     10  C   UNL     1       5.422   5.071  18.115  0.00  0.00    +0.000 A 
ATOM     11  C   UNL     1       4.656   4.978  19.292  0.00  0.00    +0.000 A 
ATOM     12  C   UNL     1       3.592   4.067  19.407  0.00  0.00    +0.000 A 
ATOM     13  C   UNL     1       3.284   3.265  18.298  0.00  0.00    +0.000 A 
ATOM     14  C   UNL     1       4.026   3.360  17.116  0.00  0.00    +0.000 A 
ATOM     15  C   UNL     1       5.100   4.255  17.011  0.00  0.00    +0.000 A 
ATOM     16  C   UNL     1       5.862   4.364  15.832  0.00  0.00    +0.000 A 
BRANCH   7  18
ATOM     17  C   UNL     1       6.947   4.569  13.479  0.00  0.00    +0.000 C 
ATOM     18  O   UNL     1       7.597   5.251  14.546  0.00  0.00    +0.000 OA
ENDBRANCH   7  18
ENDBRANCH   5  12
ENDBRANCH   1   5
BRANCH   3  19
ATOM     19  N   UNL     1       1.040   7.227  21.252  0.00  0.00    +0.000 NA
ATOM     20  C   UNL     1       1.431   8.446  21.429  0.00  0.00    +0.000 C 
BRANCH  20  21
ATOM     21  C   UNL     1       0.434   9.523  21.617  0.00  0.00    +0.000 A 
ATOM     22  C   UNL     1      -0.100   9.757  22.886  0.00  0.00    +0.000 A 
ATOM     23  C   UNL     1      -1.049  10.767  23.058  0.00  0.00    +0.000 A 
ATOM     24  C   UNL     1      -1.467  11.537  21.967  0.00  0.00    +0.000 A 
ATOM     25  C   UNL     1      -0.939  11.308  20.688  0.00  0.00    +0.000 A 
ATOM     26  C   UNL     1       0.019  10.296  20.525  0.00  0.00    +0.000 A 
BRANCH  25  27
ATOM     27  C   UNL     1      -1.386  12.117  19.495  0.00  0.00    +0.000 C 
ATOM     28  F   UNL     1      -2.437  12.941  19.763  0.00  0.00    +0.000 F 
ATOM     29  F   UNL     1      -0.400  12.919  19.008  0.00  0.00    +0.000 F 
ATOM     30  F   UNL     1      -1.786  11.335  18.455  0.00  0.00    +0.000 F 
ENDBRANCH  25  27
ENDBRANCH  20  21
ENDBRANCH   3  19
TORSDOF 6
ENDMDL
MODEL 3
REMARK VINA RESULT:      -8.5      1.305      2.002
REMARK  Name = 
REMARK  8 active torsions:
REMARK  status: ('A' for Active; 'I' for Inactive)
REMARK    1  A    between atoms: C_1  and  O_2
REMARK    2  A    between atoms: O_2  and  C_3
REMARK    3  A    between atoms: C_8  and  C_9
REMARK    4  A    between atoms: C_9  and  C_10
REMARK    5  A    between atoms: C_9  and  C_11
REMARK    6  A    between atoms: N_13  and  N_14
REMARK    7  A    between atoms: C_15  and  C_16
REMARK    8  A    between atoms: C_20  and  C_21
REMARK                            x       y       z     vdW  Elec       q    Type
REMARK                         _______ _______ _______ _____ _____    ______ ____
ROOT
ATOM      1  C   UNL     1       1.821   5.597  20.612  0.00  0.00    +0.000 C 
ATOM      2  O   UNL     1       0.641   5.245  20.548  0.00  0.00    +0.000 OA
ATOM      3  N   UNL     1       2.232   6.921  20.699  0.00  0.00    +0.000 N 
ATOM      4  H   UNL     1       3.213   7.173  20.710  0.00  0.00    +0.000 HD
ENDROOT
BRANCH   1   5
ATOM      5  C   UNL     1       2.971   4.589  20.588  0.00  0.00    +0.000 C 
ATOM      6  C   UNL     1       2.463   3.230  21.079  0.00  0.00    +0.000 C 
BRANCH   5  12
ATOM      7  C   UNL     1       6.586   4.732  15.074  0.00  0.00    +0.000 A 
ATOM      8  C   UNL     1       7.203   5.514  16.047  0.00  0.00    +0.000 A 
ATOM      9  C   UNL     1       6.620   5.645  17.313  0.00  0.00    +0.000 A 
ATOM     10  C   UNL     1       5.419   4.992  17.628  0.00  0.00    +0.000 A 
ATOM     11  C   UNL     1       4.829   5.115  18.900  0.00  0.00    +0.000 A 
ATOM     12  C   UNL     1       3.639   4.443  19.226  0.00  0.00    +0.000 A 
ATOM     13  C   UNL     1       3.024   3.663  18.235  0.00  0.00    +0.000 A 
ATOM     14  C   UNL     1       3.591   3.546  16.960  0.00  0.00    +0.000 A 
ATOM     15  C   UNL     1       4.790   4.201  16.643  0.00  0.00    +0.000 A 
ATOM     16  C   UNL     1       5.378   4.094  15.370  0.00  0.00    +0.000 A 
BRANCH   7  18
ATOM     17  C   UNL     1       6.251   3.712  12.964  0.00  0.00    +0.000 C 
ATOM     18  O   UNL     1       7.045   4.549  13.798  0.00  0.00    +0.000 OA
ENDBRANCH   7  18
ENDBRANCH   5  12
ENDBRANCH   1   5
BRANCH   3  19
ATOM     19  N   UNL     1       1.276   7.886  20.803  0.00  0.00    +0.000 NA
ATOM     20  C   UNL     1       1.314   8.866  19.962  0.00  0.00    +0.000 C 
BRANCH  20  21
ATOM     21  C   UNL     1       0.312   9.951  20.043  0.00  0.00    +0.000 A 
ATOM     22  C   UNL     1       0.357  10.857  21.106  0.00  0.00    +0.000 A 
ATOM     23  C   UNL     1      -0.597  11.873  21.185  0.00  0.00    +0.000 A 
ATOM     24  C   UNL     1      -1.595  11.983  20.211  0.00  0.00    +0.000 A 
ATOM     25  C   UNL     1      -1.650  11.078  19.141  0.00  0.00    +0.000 A 
ATOM     26  C   UNL     1      -0.684  10.063  19.064  0.00  0.00    +0.000 A 
BRANCH  25  27
ATOM     27  C   UNL     1      -2.726  11.170  18.086  0.00  0.00    +0.000 C 
ATOM     28  F   UNL     1      -3.292   9.967  17.785  0.00  0.00    +0.000 F 
ATOM     29  F   UNL     1      -3.754  11.981  18.457  0.00  0.00    +0.000 F 
ATOM     30  F   UNL     1      -2.259  11.664  16.907  0.00  0.00    +0.000 F 
ENDBRANCH  25  27
ENDBRANCH  20  21
ENDBRANCH   3  19
TORSDOF 6
ENDMDL
MODEL 4
REMARK VINA RESULT:      -8.5      1.635      2.491
REMARK  Name = 
REMARK  8 active torsions:
REMARK  status: ('A' for Active; 'I' for Inactive)
REMARK    1  A    between atoms: C_1  and  O_2
REMARK    2  A    between atoms: O_2  and  C_3
REMARK    3  A    between atoms: C_8  and  C_9
REMARK    4  A    between atoms: C_9  and  C_10
REMARK    5  A    between atoms: C_9  and  C_11
REMARK    6  A    between atoms: N_13  and  N_14
REMARK    7  A    between atoms: C_15  and  C_16
REMARK    8  A    between atoms: C_20  and  C_21
REMARK                            x       y       z     vdW  Elec       q    Type
REMARK                         _______ _______ _______ _____ _____    ______ ____
ROOT
ATOM      1  C   UNL     1       1.573   5.526  20.652  0.00  0.00    +0.000 C 
ATOM      2  O   UNL     1       0.356   5.338  20.611  0.00  0.00    +0.000 OA
ATOM      3  N   UNL     1       2.162   6.779  20.765  0.00  0.00    +0.000 N 
ATOM      4  H   UNL     1       3.168   6.896  20.757  0.00  0.00    +0.000 HD
ENDROOT
BRANCH   1   5
ATOM      5  C   UNL     1       2.575   4.373  20.571  0.00  0.00    +0.000 C 
ATOM      6  C   UNL     1       1.827   3.042  20.693  0.00  0.00    +0.000 C 
BRANCH   5  12
ATOM      7  C   UNL     1       6.900   5.189  15.659  0.00  0.00    +0.000 A 
ATOM      8  C   UNL     1       7.332   5.903  16.774  0.00  0.00    +0.000 A 
ATOM      9  C   UNL     1       6.574   5.890  17.951  0.00  0.00    +0.000 A 
ATOM     10  C   UNL     1       5.380   5.158  18.035  0.00  0.00    +0.000 A 
ATOM     11  C   UNL     1       4.615   5.135  19.215  0.00  0.00    +0.000 A 
ATOM     12  C   UNL     1       3.431   4.384  19.310  0.00  0.00    +0.000 A 
ATOM     13  C   UNL     1       3.004   3.675  18.178  0.00  0.00    +0.000 A 
ATOM     14  C   UNL     1       3.746   3.703  16.991  0.00  0.00    +0.000 A 
ATOM     15  C   UNL     1       4.938   4.436  16.906  0.00  0.00    +0.000 A 
ATOM     16  C   UNL     1       5.701   4.475  15.724  0.00  0.00    +0.000 A 
BRANCH   7  18
ATOM     17  C   UNL     1       6.922   4.350  13.446  0.00  0.00    +0.000 C 
ATOM     18  O   UNL     1       7.540   5.147  14.451  0.00  0.00    +0.000 OA
ENDBRANCH   7  18
ENDBRANCH   5  12
ENDBRANCH   1   5
BRANCH   3  19
ATOM     19  N   UNL     1       1.348   7.860  20.921  0.00  0.00    +0.000 NA
ATOM     20  C   UNL     1       1.264   8.697  19.941  0.00  0.00    +0.000 C 
BRANCH  20  21
ATOM     21  C   UNL     1       0.410   9.900  20.065  0.00  0.00    +0.000 A 
ATOM     22  C   UNL     1       0.234  10.740  18.963  0.00  0.00    +0.000 A 
ATOM     23  C   UNL     1      -0.563  11.880  19.087  0.00  0.00    +0.000 A 
ATOM     24  C   UNL     1      -1.179  12.182  20.307  0.00  0.00    +0.000 A 
ATOM     25  C   UNL     1      -1.007  11.346  21.419  0.00  0.00    +0.000 A 
ATOM     26  C   UNL     1      -0.210  10.199  21.285  0.00  0.00    +0.000 A 
BRANCH  25  27
ATOM     27  C   UNL     1      -1.650  11.661  22.748  0.00  0.00    +0.000 C 
ATOM     28  F   UNL     1      -1.027  12.665  23.426  0.00  0.00    +0.000 F 
ATOM     29  F   UNL     1      -2.949  12.048  22.621  0.00  0.00    +0.000 F 
ATOM     30  F   UNL     1      -1.654  10.592  23.591  0.00  0.00    +0.000 F 
ENDBRANCH  25  27
ENDBRANCH  20  21
ENDBRANCH   3  19
TORSDOF 6
ENDMDL
MODEL 5
REMARK VINA RESULT:      -8.3      4.592     10.179
REMARK  Name = 
REMARK  8 active torsions:
REMARK  status: ('A' for Active; 'I' for Inactive)
REMARK    1  A    between atoms: C_1  and  O_2
REMARK    2  A    between atoms: O_2  and  C_3
REMARK    3  A    between atoms: C_8  and  C_9
REMARK    4  A    between atoms: C_9  and  C_10
REMARK    5  A    between atoms: C_9  and  C_11
REMARK    6  A    between atoms: N_13  and  N_14
REMARK    7  A    between atoms: C_15  and  C_16
REMARK    8  A    between atoms: C_20  and  C_21
REMARK                            x       y       z     vdW  Elec       q    Type
REMARK                         _______ _______ _______ _____ _____    ______ ____
ROOT
ATOM      1  C   UNL     1       1.158   9.668  19.364  0.00  0.00    +0.000 C 
ATOM      2  O   UNL     1       1.049   8.814  20.247  0.00  0.00    +0.000 OA
ATOM      3  N   UNL     1       1.664   9.415  18.097  0.00  0.00    +0.000 N 
ATOM      4  H   UNL     1       1.774  10.151  17.410  0.00  0.00    +0.000 HD
ENDROOT
BRANCH   1   5
ATOM      5  C   UNL     1       0.746  11.124  19.590  0.00  0.00    +0.000 C 
ATOM      6  C   UNL     1       1.579  12.033  18.681  0.00  0.00    +0.000 C 
BRANCH   5  12
ATOM      7  C   UNL     1      -5.516  11.841  17.646  0.00  0.00    +0.000 A 
ATOM      8  C   UNL     1      -4.805  11.162  16.661  0.00  0.00    +0.000 A 
ATOM      9  C   UNL     1      -3.443  10.890  16.841  0.00  0.00    +0.000 A 
ATOM     10  C   UNL     1      -2.775  11.285  18.010  0.00  0.00    +0.000 A 
ATOM     11  C   UNL     1      -1.408  11.012  18.200  0.00  0.00    +0.000 A 
ATOM     12  C   UNL     1      -0.741  11.386  19.380  0.00  0.00    +0.000 A 
ATOM     13  C   UNL     1      -1.467  12.076  20.362  0.00  0.00    +0.000 A 
ATOM     14  C   UNL     1      -2.823  12.369  20.177  0.00  0.00    +0.000 A 
ATOM     15  C   UNL     1      -3.492  11.977  19.008  0.00  0.00    +0.000 A 
ATOM     16  C   UNL     1      -4.855  12.259  18.804  0.00  0.00    +0.000 A 
BRANCH   7  18
ATOM     17  C   UNL     1      -7.173  13.483  18.051  0.00  0.00    +0.000 C 
ATOM     18  O   UNL     1      -6.838  12.184  17.573  0.00  0.00    +0.000 OA
ENDBRANCH   7  18
ENDBRANCH   5  12
ENDBRANCH   1   5
BRANCH   3  19
ATOM     19  N   UNL     1       1.986   8.129  17.778  0.00  0.00    +0.000 NA
ATOM     20  C   UNL     1       3.226   7.777  17.872  0.00  0.00    +0.000 C 
BRANCH  20  21
ATOM     21  C   UNL     1       3.633   6.399  17.519  0.00  0.00    +0.000 A 
ATOM     22  C   UNL     1       4.746   6.196  16.699  0.00  0.00    +0.000 A 
ATOM     23  C   UNL     1       5.121   4.895  16.359  0.00  0.00    +0.000 A 
ATOM     24  C   UNL     1       4.386   3.801  16.830  0.00  0.00    +0.000 A 
ATOM     25  C   UNL     1       3.266   3.995  17.652  0.00  0.00    +0.000 A 
ATOM     26  C   UNL     1       2.899   5.305  17.995  0.00  0.00    +0.000 A 
BRANCH  25  27
ATOM     27  C   UNL     1       2.451   2.831  18.160  0.00  0.00    +0.000 C 
ATOM     28  F   UNL     1       2.646   2.571  19.483  0.00  0.00    +0.000 F 
ATOM     29  F   UNL     1       1.112   3.026  18.013  0.00  0.00    +0.000 F 
ATOM     30  F   UNL     1       2.738   1.670  17.509  0.00  0.00    +0.000 F 
ENDBRANCH  25  27
ENDBRANCH  20  21
ENDBRANCH   3  19
TORSDOF 6
ENDMDL
MODEL 6
REMARK VINA RESULT:      -8.2      2.037      2.577
REMARK  Name = 
REMARK  8 active torsions:
REMARK  status: ('A' for Active; 'I' for Inactive)
REMARK    1  A    between atoms: C_1  and  O_2
REMARK    2  A    between atoms: O_2  and  C_3
REMARK    3  A    between atoms: C_8  and  C_9
REMARK    4  A    between atoms: C_9  and  C_10
REMARK    5  A    between atoms: C_9  and  C_11
REMARK    6  A    between atoms: N_13  and  N_14
REMARK    7  A    between atoms: C_15  and  C_16
REMARK    8  A    between atoms: C_20  and  C_21
REMARK                            x       y       z     vdW  Elec       q    Type
REMARK                         _______ _______ _______ _____ _____    ______ ____
ROOT
ATOM      1  C   UNL     1       2.148   5.982  20.213  0.00  0.00    +0.000 C 
ATOM      2  O   UNL     1       1.085   5.849  20.822  0.00  0.00    +0.000 OA
ATOM      3  N   UNL     1       2.490   7.114  19.485  0.00  0.00    +0.000 N 
ATOM      4  H   UNL     1       3.358   7.171  18.966  0.00  0.00    +0.000 HD
ENDROOT
BRANCH   1   5
ATOM      5  C   UNL     1       3.213   4.883  20.191  0.00  0.00    +0.000 C 
ATOM      6  C   UNL     1       2.624   3.596  20.777  0.00  0.00    +0.000 C 
BRANCH   5  12
ATOM      7  C   UNL     1       6.586   4.410  14.544  0.00  0.00    +0.000 A 
ATOM      8  C   UNL     1       7.340   5.128  15.469  0.00  0.00    +0.000 A 
ATOM      9  C   UNL     1       6.831   5.366  16.752  0.00  0.00    +0.000 A 
ATOM     10  C   UNL     1       5.569   4.885  17.131  0.00  0.00    +0.000 A 
ATOM     11  C   UNL     1       5.053   5.117  18.420  0.00  0.00    +0.000 A 
ATOM     12  C   UNL     1       3.799   4.617  18.810  0.00  0.00    +0.000 A 
ATOM     13  C   UNL     1       3.048   3.902  17.866  0.00  0.00    +0.000 A 
ATOM     14  C   UNL     1       3.542   3.679  16.576  0.00  0.00    +0.000 A 
ATOM     15  C   UNL     1       4.802   4.161  16.195  0.00  0.00    +0.000 A 
ATOM     16  C   UNL     1       5.318   3.946  14.904  0.00  0.00    +0.000 A 
BRANCH   7  18
ATOM     17  C   UNL     1       6.020   3.422  12.469  0.00  0.00    +0.000 C 
ATOM     18  O   UNL     1       6.965   4.137  13.258  0.00  0.00    +0.000 OA
ENDBRANCH   7  18
ENDBRANCH   5  12
ENDBRANCH   1   5
BRANCH   3  19
ATOM     19  N   UNL     1       1.637   8.176  19.509  0.00  0.00    +0.000 NA
ATOM     20  C   UNL     1       1.601   8.944  18.471  0.00  0.00    +0.000 C 
BRANCH  20  21
ATOM     21  C   UNL     1       0.708  10.124  18.453  0.00  0.00    +0.000 A 
ATOM     22  C   UNL     1       1.196  11.368  18.857  0.00  0.00    +0.000 A 
ATOM     23  C   UNL     1       0.347  12.476  18.848  0.00  0.00    +0.000 A 
ATOM     24  C   UNL     1      -0.986  12.343  18.443  0.00  0.00    +0.000 A 
ATOM     25  C   UNL     1      -1.487  11.097  18.038  0.00  0.00    +0.000 A 
ATOM     26  C   UNL     1      -0.625   9.989  18.043  0.00  0.00    +0.000 A 
BRANCH  25  27
ATOM     27  C   UNL     1      -2.924  10.927  17.610  0.00  0.00    +0.000 C 
ATOM     28  F   UNL     1      -3.132  11.201  16.291  0.00  0.00    +0.000 F 
ATOM     29  F   UNL     1      -3.381   9.659  17.802  0.00  0.00    +0.000 F 
ATOM     30  F   UNL     1      -3.772  11.743  18.295  0.00  0.00    +0.000 F 
ENDBRANCH  25  27
ENDBRANCH  20  21
ENDBRANCH   3  19
TORSDOF 6
ENDMDL
MODEL 7
REMARK VINA RESULT:      -8.2      7.147     10.289
REMARK  Name = 
REMARK  8 active torsions:
REMARK  status: ('A' for Active; 'I' for Inactive)
REMARK    1  A    between atoms: C_1  and  O_2
REMARK    2  A    between atoms: O_2  and  C_3
REMARK    3  A    between atoms: C_8  and  C_9
REMARK    4  A    between atoms: C_9  and  C_10
REMARK    5  A    between atoms: C_9  and  C_11
REMARK    6  A    between atoms: N_13  and  N_14
REMARK    7  A    between atoms: C_15  and  C_16
REMARK    8  A    between atoms: C_20  and  C_21
REMARK                            x       y       z     vdW  Elec       q    Type
REMARK                         _______ _______ _______ _____ _____    ______ ____
ROOT
ATOM      1  C   UNL     1       8.929  10.062  18.522  0.00  0.00    +0.000 C 
ATOM      2  O   UNL     1       8.101  10.688  17.856  0.00  0.00    +0.000 OA
ATOM      3  N   UNL     1       8.879   8.691  18.733  0.00  0.00    +0.000 N 
ATOM      4  H   UNL     1       9.556   8.218  19.319  0.00  0.00    +0.000 HD
ENDROOT
BRANCH   1   5
ATOM      5  C   UNL     1      10.110  10.754  19.205  0.00  0.00    +0.000 C 
ATOM      6  C   UNL     1      10.924  11.519  18.156  0.00  0.00    +0.000 C 
BRANCH   5  12
ATOM      7  C   UNL     1       7.901  13.859  24.588  0.00  0.00    +0.000 A 
ATOM      8  C   UNL     1       7.670  12.493  24.720  0.00  0.00    +0.000 A 
ATOM      9  C   UNL     1       8.050  11.616  23.696  0.00  0.00    +0.000 A 
ATOM     10  C   UNL     1       8.673  12.090  22.532  0.00  0.00    +0.000 A 
ATOM     11  C   UNL     1       9.063  11.215  21.501  0.00  0.00    +0.000 A 
ATOM     12  C   UNL     1       9.708  11.684  20.344  0.00  0.00    +0.000 A 
ATOM     13  C   UNL     1       9.929  13.064  20.220  0.00  0.00    +0.000 A 
ATOM     14  C   UNL     1       9.531  13.947  21.231  0.00  0.00    +0.000 A 
ATOM     15  C   UNL     1       8.906  13.475  22.394  0.00  0.00    +0.000 A 
ATOM     16  C   UNL     1       8.501  14.345  23.423  0.00  0.00    +0.000 A 
BRANCH   7  18
ATOM     17  C   UNL     1       7.762  14.469  26.871  0.00  0.00    +0.000 C 
ATOM     18  O   UNL     1       7.553  14.812  25.505  0.00  0.00    +0.000 OA
ENDBRANCH   7  18
ENDBRANCH   5  12
ENDBRANCH   1   5
BRANCH   3  19
ATOM     19  N   UNL     1       7.905   7.978  18.100  0.00  0.00    +0.000 NA
ATOM     20  C   UNL     1       7.794   6.723  18.388  0.00  0.00    +0.000 C 
BRANCH  20  21
ATOM     21  C   UNL     1       6.767   5.897  17.715  0.00  0.00    +0.000 A 
ATOM     22  C   UNL     1       7.127   5.092  16.631  0.00  0.00    +0.000 A 
ATOM     23  C   UNL     1       6.152   4.323  15.993  0.00  0.00    +0.000 A 
ATOM     24  C   UNL     1       4.823   4.360  16.429  0.00  0.00    +0.000 A 
ATOM     25  C   UNL     1       4.452   5.167  17.515  0.00  0.00    +0.000 A 
ATOM     26  C   UNL     1       5.438   5.932  18.156  0.00  0.00    +0.000 A 
BRANCH  25  27
ATOM     27  C   UNL     1       3.022   5.232  17.994  0.00  0.00    +0.000 C 
ATOM     28  F   UNL     1       2.470   6.473  17.881  0.00  0.00    +0.000 F 
ATOM     29  F   UNL     1       2.199   4.396  17.302  0.00  0.00    +0.000 F 
ATOM     30  F   UNL     1       2.895   4.889  19.305  0.00  0.00    +0.000 F 
ENDBRANCH  25  27
ENDBRANCH  20  21
ENDBRANCH   3  19
TORSDOF 6
ENDMDL
MODEL 8
REMARK VINA RESULT:      -8.2      7.699     10.803
REMARK  Name = 
REMARK  8 active torsions:
REMARK  status: ('A' for Active; 'I' for Inactive)
REMARK    1  A    between atoms: C_1  and  O_2
REMARK    2  A    between atoms: O_2  and  C_3
REMARK    3  A    between atoms: C_8  and  C_9
REMARK    4  A    between atoms: C_9  and  C_10
REMARK    5  A    between atoms: C_9  and  C_11
REMARK    6  A    between atoms: N_13  and  N_14
REMARK    7  A    between atoms: C_15  and  C_16
REMARK    8  A    between atoms: C_20  and  C_21
REMARK                            x       y       z     vdW  Elec       q    Type
REMARK                         _______ _______ _______ _____ _____    ______ ____
ROOT
ATOM      1  C   UNL     1       9.020  10.176  18.499  0.00  0.00    +0.000 C 
ATOM      2  O   UNL     1       8.174  10.765  17.823  0.00  0.00    +0.000 OA
ATOM      3  N   UNL     1       8.989   8.814  18.766  0.00  0.00    +0.000 N 
ATOM      4  H   UNL     1       9.682   8.372  19.358  0.00  0.00    +0.000 HD
ENDROOT
BRANCH   1   5
ATOM      5  C   UNL     1      10.205  10.908  19.133  0.00  0.00    +0.000 C 
ATOM      6  C   UNL     1      10.926  11.728  18.059  0.00  0.00    +0.000 C 
BRANCH   5  12
ATOM      7  C   UNL     1       7.976  13.861  24.593  0.00  0.00    +0.000 A 
ATOM      8  C   UNL     1       7.609  12.518  24.616  0.00  0.00    +0.000 A 
ATOM      9  C   UNL     1       7.966  11.677  23.555  0.00  0.00    +0.000 A 
ATOM     10  C   UNL     1       8.701  12.161  22.463  0.00  0.00    +0.000 A 
ATOM     11  C   UNL     1       9.068  11.321  21.396  0.00  0.00    +0.000 A 
ATOM     12  C   UNL     1       9.824  11.798  20.311  0.00  0.00    +0.000 A 
ATOM     13  C   UNL     1      10.182  13.154  20.297  0.00  0.00    +0.000 A 
ATOM     14  C   UNL     1       9.809  14.004  21.344  0.00  0.00    +0.000 A 
ATOM     15  C   UNL     1       9.072  13.522  22.435  0.00  0.00    +0.000 A 
ATOM     16  C   UNL     1       8.689  14.359  23.499  0.00  0.00    +0.000 A 
BRANCH   7  18
ATOM     17  C   UNL     1       7.120  16.012  25.088  0.00  0.00    +0.000 C 
ATOM     18  O   UNL     1       7.665  14.782  25.555  0.00  0.00    +0.000 OA
ENDBRANCH   7  18
ENDBRANCH   5  12
ENDBRANCH   1   5
BRANCH   3  19
ATOM     19  N   UNL     1       8.013   8.066  18.180  0.00  0.00    +0.000 NA
ATOM     20  C   UNL     1       7.914   6.825  18.528  0.00  0.00    +0.000 C 
BRANCH  20  21
ATOM     21  C   UNL     1       6.885   5.962  17.908  0.00  0.00    +0.000 A 
ATOM     22  C   UNL     1       5.840   5.461  18.688  0.00  0.00    +0.000 A 
ATOM     23  C   UNL     1       4.877   4.638  18.102  0.00  0.00    +0.000 A 
ATOM     24  C   UNL     1       4.958   4.311  16.743  0.00  0.00    +0.000 A 
ATOM     25  C   UNL     1       6.005   4.807  15.952  0.00  0.00    +0.000 A 
ATOM     26  C   UNL     1       6.965   5.639  16.547  0.00  0.00    +0.000 A 
BRANCH  25  27
ATOM     27  C   UNL     1       6.120   4.456  14.489  0.00  0.00    +0.000 C 
ATOM     28  F   UNL     1       6.500   3.166  14.270  0.00  0.00    +0.000 F 
ATOM     29  F   UNL     1       4.945   4.615  13.819  0.00  0.00    +0.000 F 
ATOM     30  F   UNL     1       7.034   5.226  13.838  0.00  0.00    +0.000 F 
ENDBRANCH  25  27
ENDBRANCH  20  21
ENDBRANCH   3  19
TORSDOF 6
ENDMDL
MODEL 9
REMARK VINA RESULT:      -8.2      2.306      3.227
REMARK  Name = 
REMARK  8 active torsions:
REMARK  status: ('A' for Active; 'I' for Inactive)
REMARK    1  A    between atoms: C_1  and  O_2
REMARK    2  A    between atoms: O_2  and  C_3
REMARK    3  A    between atoms: C_8  and  C_9
REMARK    4  A    between atoms: C_9  and  C_10
REMARK    5  A    between atoms: C_9  and  C_11
REMARK    6  A    between atoms: N_13  and  N_14
REMARK    7  A    between atoms: C_15  and  C_16
REMARK    8  A    between atoms: C_20  and  C_21
REMARK                            x       y       z     vdW  Elec       q    Type
REMARK                         _______ _______ _______ _____ _____    ______ ____
ROOT
ATOM      1  C   UNL     1       1.933   7.361  20.301  0.00  0.00    +0.000 C 
ATOM      2  O   UNL     1       1.858   7.971  19.233  0.00  0.00    +0.000 OA
ATOM      3  N   UNL     1       1.693   7.936  21.542  0.00  0.00    +0.000 N 
ATOM      4  H   UNL     1       1.802   7.412  22.402  0.00  0.00    +0.000 HD
ENDROOT
BRANCH   1   5
ATOM      5  C   UNL     1       2.318   5.881  20.366  0.00  0.00    +0.000 C 
ATOM      6  C   UNL     1       1.053   5.037  20.555  0.00  0.00    +0.000 C 
BRANCH   5  12
ATOM      7  C   UNL     1       6.460   4.569  15.404  0.00  0.00    +0.000 A 
ATOM      8  C   UNL     1       7.037   5.517  16.245  0.00  0.00    +0.000 A 
ATOM      9  C   UNL     1       6.344   5.965  17.376  0.00  0.00    +0.000 A 
ATOM     10  C   UNL     1       5.070   5.466  17.688  0.00  0.00    +0.000 A 
ATOM     11  C   UNL     1       4.369   5.907  18.826  0.00  0.00    +0.000 A 
ATOM     12  C   UNL     1       3.103   5.393  19.154  0.00  0.00    +0.000 A 
ATOM     13  C   UNL     1       2.530   4.444  18.295  0.00  0.00    +0.000 A 
ATOM     14  C   UNL     1       3.210   4.009  17.151  0.00  0.00    +0.000 A 
ATOM     15  C   UNL     1       4.482   4.508  16.837  0.00  0.00    +0.000 A 
ATOM     16  C   UNL     1       5.183   4.083  15.694  0.00  0.00    +0.000 A 
BRANCH   7  18
ATOM     17  C   UNL     1       6.130   3.786  13.195  0.00  0.00    +0.000 C 
ATOM     18  O   UNL     1       7.027   4.076  14.262  0.00  0.00    +0.000 OA
ENDBRANCH   7  18
ENDBRANCH   5  12
ENDBRANCH   1   5
BRANCH   3  19
ATOM     19  N   UNL     1       1.269   9.231  21.579  0.00  0.00    +0.000 NA
ATOM     20  C   UNL     1       0.132   9.477  22.142  0.00  0.00    +0.000 C 
BRANCH  20  21
ATOM     21  C   UNL     1      -0.385  10.862  22.192  0.00  0.00    +0.000 A 
ATOM     22  C   UNL     1       0.309  11.884  21.540  0.00  0.00    +0.000 A 
ATOM     23  C   UNL     1      -0.176  13.192  21.598  0.00  0.00    +0.000 A 
ATOM     24  C   UNL     1      -1.347  13.480  22.310  0.00  0.00    +0.000 A 
ATOM     25  C   UNL     1      -2.049  12.462  22.970  0.00  0.00    +0.000 A 
ATOM     26  C   UNL     1      -1.559  11.149  22.900  0.00  0.00    +0.000 A 
BRANCH  25  27
ATOM     27  C   UNL     1      -3.306  12.753  23.754  0.00  0.00    +0.000 C 
ATOM     28  F   UNL     1      -3.158  13.761  24.658  0.00  0.00    +0.000 F 
ATOM     29  F   UNL     1      -4.347  13.120  22.957  0.00  0.00    +0.000 F 
ATOM     30  F   UNL     1      -3.736  11.676  24.468  0.00  0.00    +0.000 F 
ENDBRANCH  25  27
ENDBRANCH  20  21
ENDBRANCH   3  19
TORSDOF 6
ENDMDL
