MODEL 1
REMARK VINA RESULT:      -9.3      0.000      0.000
REMARK  Name = 
REMARK  8 active torsions:
REMARK  status: ('A' for Active; 'I' for Inactive)
REMARK    1  A    between atoms: C_1  and  C_2
REMARK    2  A    between atoms: C_2  and  C_3
REMARK    3  A    between atoms: C_3  and  C_4
REMARK    4  A    between atoms: C_6  and  C_7
REMARK    5  A    between atoms: N_15  and  C_16
REMARK    6  A    between atoms: C_16  and  C_17
REMARK    7  A    between atoms: C_20  and  C_21
REMARK    8  A    between atoms: C_26  and  C_27
REMARK                            x       y       z     vdW  Elec       q    Type
REMARK                         _______ _______ _______ _____ _____    ______ ____
ROOT
ATOM      1  C   UNL     1       2.642   7.214  19.424  0.00  0.00    +0.000 A 
ATOM      2  C   UNL     1       2.533   7.825  18.170  0.00  0.00    +0.000 A 
ATOM      3  C   UNL     1       1.589   8.842  17.942  0.00  0.00    +0.000 A 
ATOM      4  C   UNL     1       0.690   9.262  18.941  0.00  0.00    +0.000 A 
ATOM      5  C   UNL     1       0.804   8.616  20.186  0.00  0.00    +0.000 A 
ATOM      6  C   UNL     1       1.787   7.648  20.440  0.00  0.00    +0.000 A 
ENDROOT
BRANCH   4   7
ATOM      7  C   UNL     1      -0.342  10.318  18.672  0.00  0.00    +0.000 A 
ATOM      8  C   UNL     1      -1.554   9.927  18.044  0.00  0.00    +0.000 A 
ATOM      9  C   UNL     1      -2.589  10.830  17.773  0.00  0.00    +0.000 A 
ATOM     10  C   UNL     1      -2.464  12.157  18.140  0.00  0.00    +0.000 A 
ATOM     11  C   UNL     1      -1.295  12.582  18.765  0.00  0.00    +0.000 A 
ATOM     12  C   UNL     1      -0.226  11.688  19.023  0.00  0.00    +0.000 A 
BRANCH  12  13
ATOM     13  C   UNL     1       0.955  12.260  19.656  0.00  0.00    +0.000 A 
ATOM     14  N   UNL     1       1.166  12.269  21.017  0.00  0.00    +0.000 NA
ATOM     15  N   UNL     1       2.297  12.930  21.226  0.00  0.00    +0.000 NA
ATOM     16  N   UNL     1       2.726  13.253  20.002  0.00  0.00    +0.000 N 
ATOM     17  N   UNL     1       1.961  12.846  18.980  0.00  0.00    +0.000 NA
ATOM     18  H   UNL     1       3.581  13.786  19.862  0.00  0.00    +0.000 HD
ENDBRANCH  12  13
ENDBRANCH   4   7
BRANCH   1  19
ATOM     19  C   UNL     1       3.675   6.127  19.689  0.00  0.00    +0.000 C 
BRANCH  19  31
ATOM     20  C   UNL     1       6.378   4.873  15.868  0.00  0.00    +0.000 A 
ATOM     21  N   UNL     1       7.179   5.929  16.122  0.00  0.00    +0.000 NA
ATOM     22  C   UNL     1       6.892   6.684  17.189  0.00  0.00    +0.000 A 
ATOM     23  C   UNL     1       7.725   7.901  17.433  0.00  0.00    +0.000 C 
ATOM     24  N   UNL     1       5.867   6.459  18.023  0.00  0.00    +0.000 NA
ATOM     25  C   UNL     1       5.052   5.425  17.740  0.00  0.00    +0.000 A 
ATOM     26  C   UNL     1       5.275   4.575  16.667  0.00  0.00    +0.000 A 
ATOM     27  C   UNL     1       4.351   3.436  16.372  0.00  0.00    +0.000 C 
ATOM     28  C   UNL     1       3.366   3.151  17.483  0.00  0.00    +0.000 C 
ATOM     29  C   UNL     1       2.876   4.396  18.168  0.00  0.00    +0.000 C 
ATOM     30  O   UNL     1       1.697   4.513  18.503  0.00  0.00    +0.000 OA
ATOM     31  N   UNL     1       3.872   5.287  18.516  0.00  0.00    +0.000 N 
BRANCH  20  32
ATOM     32  C   UNL     1       6.751   4.076  14.640  0.00  0.00    +0.000 C 
BRANCH  32  34
ATOM     33  C   UNL     1       6.118   3.339  12.272  0.00  0.00    +0.000 C 
ATOM     34  C   UNL     1       5.703   4.102  13.523  0.00  0.00    +0.000 C 
ENDBRANCH  32  34
ENDBRANCH  20  32
ENDBRANCH  19  31
ENDBRANCH   1  19
TORSDOF 6
ENDMDL
MODEL 2
REMARK VINA RESULT:      -9.3      2.996      9.294
REMARK  Name = 
REMARK  8 active torsions:
REMARK  status: ('A' for Active; 'I' for Inactive)
REMARK    1  A    between atoms: C_1  and  C_2
REMARK    2  A    between atoms: C_2  and  C_3
REMARK    3  A    between atoms: C_3  and  C_4
REMARK    4  A    between atoms: C_6  and  C_7
REMARK    5  A    between atoms: N_15  and  C_16
REMARK    6  A    between atoms: C_16  and  C_17
REMARK    7  A    between atoms: C_20  and  C_21
REMARK    8  A    between atoms: C_26  and  C_27
REMARK                            x       y       z     vdW  Elec       q    Type
REMARK                         _______ _______ _______ _____ _____    ______ ____
ROOT
ATOM      1  C   UNL     1       1.697   9.183  18.678  0.00  0.00    +0.000 A 
ATOM      2  C   UNL     1       1.461   8.794  20.001  0.00  0.00    +0.000 A 
ATOM      3  C   UNL     1       1.697   7.472  20.418  0.00  0.00    +0.000 A 
ATOM      4  C   UNL     1       2.140   6.476  19.526  0.00  0.00    +0.000 A 
ATOM      5  C   UNL     1       2.347   6.887  18.196  0.00  0.00    +0.000 A 
ATOM      6  C   UNL     1       2.177   8.219  17.789  0.00  0.00    +0.000 A 
ENDROOT
BRANCH   4   7
ATOM      7  C   UNL     1       2.346   5.059  19.974  0.00  0.00    +0.000 A 
ATOM      8  C   UNL     1       1.303   4.426  20.699  0.00  0.00    +0.000 A 
ATOM      9  C   UNL     1       1.386   3.099  21.140  0.00  0.00    +0.000 A 
ATOM     10  C   UNL     1       2.508   2.343  20.851  0.00  0.00    +0.000 A 
ATOM     11  C   UNL     1       3.552   2.923  20.136  0.00  0.00    +0.000 A 
ATOM     12  C   UNL     1       3.497   4.272  19.705  0.00  0.00    +0.000 A 
BRANCH  12  13
ATOM     13  C   UNL     1       4.663   4.770  18.990  0.00  0.00    +0.000 A 
ATOM     14  N   UNL     1       4.880   4.570  17.644  0.00  0.00    +0.000 NA
ATOM     15  N   UNL     1       6.065   5.096  17.365  0.00  0.00    +0.000 NA
ATOM     16  N   UNL     1       6.486   5.609  18.524  0.00  0.00    +0.000 N 
ATOM     17  N   UNL     1       5.657   5.471  19.569  0.00  0.00    +0.000 NA
ATOM     18  H   UNL     1       7.389   6.070  18.606  0.00  0.00    +0.000 HD
ENDBRANCH  12  13
ENDBRANCH   4   7
BRANCH   1  19
ATOM     19  C   UNL     1       1.466  10.617  18.220  0.00  0.00    +0.000 C 
BRANCH  19  31
ATOM     20  C   UNL     1      -3.214  11.695  18.855  0.00  0.00    +0.000 A 
ATOM     21  N   UNL     1      -3.472  11.180  17.634  0.00  0.00    +0.000 NA
ATOM     22  C   UNL     1      -2.445  10.657  16.953  0.00  0.00    +0.000 A 
ATOM     23  C   UNL     1      -2.704  10.156  15.568  0.00  0.00    +0.000 C 
ATOM     24  N   UNL     1      -1.183  10.608  17.402  0.00  0.00    +0.000 NA
ATOM     25  C   UNL     1      -0.930  11.158  18.605  0.00  0.00    +0.000 A 
ATOM     26  C   UNL     1      -1.930  11.709  19.395  0.00  0.00    +0.000 A 
ATOM     27  C   UNL     1      -1.620  12.318  20.726  0.00  0.00    +0.000 C 
ATOM     28  C   UNL     1      -0.222  12.020  21.220  0.00  0.00    +0.000 C 
ATOM     29  C   UNL     1       0.798  11.998  20.116  0.00  0.00    +0.000 C 
ATOM     30  O   UNL     1       1.918  12.484  20.279  0.00  0.00    +0.000 OA
ATOM     31  N   UNL     1       0.426  11.262  19.008  0.00  0.00    +0.000 N 
BRANCH  20  32
ATOM     32  C   UNL     1      -4.415  12.282  19.560  0.00  0.00    +0.000 C 
BRANCH  32  34
ATOM     33  C   UNL     1      -6.810  11.391  19.704  0.00  0.00    +0.000 C 
ATOM     34  C   UNL     1      -5.748  12.056  18.839  0.00  0.00    +0.000 C 
ENDBRANCH  32  34
ENDBRANCH  20  32
ENDBRANCH  19  31
ENDBRANCH   1  19
TORSDOF 6
ENDMDL
MODEL 3
REMARK VINA RESULT:      -9.2      3.011      9.176
REMARK  Name = 
REMARK  8 active torsions:
REMARK  status: ('A' for Active; 'I' for Inactive)
REMARK    1  A    between atoms: C_1  and  C_2
REMARK    2  A    between atoms: C_2  and  C_3
REMARK    3  A    between atoms: C_3  and  C_4
REMARK    4  A    between atoms: C_6  and  C_7
REMARK    5  A    between atoms: N_15  and  C_16
REMARK    6  A    between atoms: C_16  and  C_17
REMARK    7  A    between atoms: C_20  and  C_21
REMARK    8  A    between atoms: C_26  and  C_27
REMARK                            x       y       z     vdW  Elec       q    Type
REMARK                         _______ _______ _______ _____ _____    ______ ____
ROOT
ATOM      1  C   UNL     1       1.691   9.099  18.657  0.00  0.00    +0.000 A 
ATOM      2  C   UNL     1       2.114   8.099  17.776  0.00  0.00    +0.000 A 
ATOM      3  C   UNL     1       2.299   6.777  18.219  0.00  0.00    +0.000 A 
ATOM      4  C   UNL     1       2.108   6.407  19.564  0.00  0.00    +0.000 A 
ATOM      5  C   UNL     1       1.706   7.436  20.435  0.00  0.00    +0.000 A 
ATOM      6  C   UNL     1       1.456   8.742  19.987  0.00  0.00    +0.000 A 
ENDROOT
BRANCH   4   7
ATOM      7  C   UNL     1       2.351   5.002  20.031  0.00  0.00    +0.000 A 
ATOM      8  C   UNL     1       1.341   4.366  20.799  0.00  0.00    +0.000 A 
ATOM      9  C   UNL     1       1.460   3.049  21.260  0.00  0.00    +0.000 A 
ATOM     10  C   UNL     1       2.584   2.306  20.951  0.00  0.00    +0.000 A 
ATOM     11  C   UNL     1       3.596   2.889  20.194  0.00  0.00    +0.000 A 
ATOM     12  C   UNL     1       3.506   4.229  19.742  0.00  0.00    +0.000 A 
BRANCH  12  13
ATOM     13  C   UNL     1       4.642   4.732  18.982  0.00  0.00    +0.000 A 
ATOM     14  N   UNL     1       5.659   5.483  19.530  0.00  0.00    +0.000 NA
ATOM     15  N   UNL     1       6.467   5.819  18.534  0.00  0.00    +0.000 NA
ATOM     16  N   UNL     1       5.931   5.238  17.456  0.00  0.00    +0.000 N 
ATOM     17  N   UNL     1       4.815   4.524  17.662  0.00  0.00    +0.000 NA
ATOM     18  H   UNL     1       6.345   5.342  16.534  0.00  0.00    +0.000 HD
ENDBRANCH  12  13
ENDBRANCH   4   7
BRANCH   1  19
ATOM     19  C   UNL     1       1.466  10.529  18.185  0.00  0.00    +0.000 C 
BRANCH  19  31
ATOM     20  C   UNL     1      -3.262  11.485  18.639  0.00  0.00    +0.000 A 
ATOM     21  N   UNL     1      -3.463  10.931  17.425  0.00  0.00    +0.000 NA
ATOM     22  C   UNL     1      -2.400  10.421  16.791  0.00  0.00    +0.000 A 
ATOM     23  C   UNL     1      -2.599   9.876  15.413  0.00  0.00    +0.000 C 
ATOM     24  N   UNL     1      -1.153  10.421  17.282  0.00  0.00    +0.000 NA
ATOM     25  C   UNL     1      -0.956  11.009  18.478  0.00  0.00    +0.000 A 
ATOM     26  C   UNL     1      -1.997  11.551  19.219  0.00  0.00    +0.000 A 
ATOM     27  C   UNL     1      -1.750  12.204  20.543  0.00  0.00    +0.000 C 
ATOM     28  C   UNL     1      -0.361  11.961  21.089  0.00  0.00    +0.000 C 
ATOM     29  C   UNL     1       0.696  11.940  20.021  0.00  0.00    +0.000 C 
ATOM     30  O   UNL     1       1.795  12.462  20.206  0.00  0.00    +0.000 OA
ATOM     31  N   UNL     1       0.382  11.164  18.921  0.00  0.00    +0.000 N 
BRANCH  20  32
ATOM     32  C   UNL     1      -4.502  12.055  19.288  0.00  0.00    +0.000 C 
BRANCH  32  34
ATOM     33  C   UNL     1      -6.860  11.429  18.514  0.00  0.00    +0.000 C 
ATOM     34  C   UNL     1      -5.654  12.338  18.318  0.00  0.00    +0.000 C 
ENDBRANCH  32  34
ENDBRANCH  20  32
ENDBRANCH  19  31
ENDBRANCH   1  19
TORSDOF 6
ENDMDL
MODEL 4
REMARK VINA RESULT:      -8.9      2.962      9.504
REMARK  Name = 
REMARK  8 active torsions:
REMARK  status: ('A' for Active; 'I' for Inactive)
REMARK    1  A    between atoms: C_1  and  C_2
REMARK    2  A    between atoms: C_2  and  C_3
REMARK    3  A    between atoms: C_3  and  C_4
REMARK    4  A    between atoms: C_6  and  C_7
REMARK    5  A    between atoms: N_15  and  C_16
REMARK    6  A    between atoms: C_16  and  C_17
REMARK    7  A    between atoms: C_20  and  C_21
REMARK    8  A    between atoms: C_26  and  C_27
REMARK                            x       y       z     vdW  Elec       q    Type
REMARK                         _______ _______ _______ _____ _____    ______ ____
ROOT
ATOM      1  C   UNL     1       1.548   9.458  19.038  0.00  0.00    +0.000 A 
ATOM      2  C   UNL     1       1.359   8.940  20.324  0.00  0.00    +0.000 A 
ATOM      3  C   UNL     1       1.612   7.585  20.601  0.00  0.00    +0.000 A 
ATOM      4  C   UNL     1       2.024   6.683  19.601  0.00  0.00    +0.000 A 
ATOM      5  C   UNL     1       2.183   7.223  18.312  0.00  0.00    +0.000 A 
ATOM      6  C   UNL     1       1.997   8.587  18.042  0.00  0.00    +0.000 A 
ENDROOT
BRANCH   4   7
ATOM      7  C   UNL     1       2.248   5.230  19.901  0.00  0.00    +0.000 A 
ATOM      8  C   UNL     1       1.214   4.514  20.559  0.00  0.00    +0.000 A 
ATOM      9  C   UNL     1       1.314   3.150  20.861  0.00  0.00    +0.000 A 
ATOM     10  C   UNL     1       2.443   2.441  20.495  0.00  0.00    +0.000 A 
ATOM     11  C   UNL     1       3.479   3.104  19.841  0.00  0.00    +0.000 A 
ATOM     12  C   UNL     1       3.407   4.489  19.552  0.00  0.00    +0.000 A 
BRANCH  12  13
ATOM     13  C   UNL     1       4.566   5.071  18.889  0.00  0.00    +0.000 A 
ATOM     14  N   UNL     1       4.669   5.231  17.525  0.00  0.00    +0.000 NA
ATOM     15  N   UNL     1       5.879   5.720  17.286  0.00  0.00    +0.000 NA
ATOM     16  N   UNL     1       6.427   5.862  18.497  0.00  0.00    +0.000 N 
ATOM     17  N   UNL     1       5.662   5.508  19.539  0.00  0.00    +0.000 NA
ATOM     18  H   UNL     1       7.375   6.211  18.614  0.00  0.00    +0.000 HD
ENDBRANCH  12  13
ENDBRANCH   4   7
BRANCH   1  19
ATOM     19  C   UNL     1       1.299  10.928  18.730  0.00  0.00    +0.000 C 
BRANCH  19  31
ATOM     20  C   UNL     1      -3.351  12.047  19.507  0.00  0.00    +0.000 A 
ATOM     21  N   UNL     1      -3.616  11.723  18.224  0.00  0.00    +0.000 NA
ATOM     22  C   UNL     1      -2.601  11.273  17.475  0.00  0.00    +0.000 A 
ATOM     23  C   UNL     1      -2.867  10.987  16.032  0.00  0.00    +0.000 C 
ATOM     24  N   UNL     1      -1.345  11.120  17.915  0.00  0.00    +0.000 NA
ATOM     25  C   UNL     1      -1.082  11.482  19.186  0.00  0.00    +0.000 A 
ATOM     26  C   UNL     1      -2.069  11.943  20.045  0.00  0.00    +0.000 A 
ATOM     27  C   UNL     1      -1.750  12.342  21.451  0.00  0.00    +0.000 C 
ATOM     28  C   UNL     1      -0.365  11.933  21.899  0.00  0.00    +0.000 C 
ATOM     29  C   UNL     1       0.661  12.040  20.806  0.00  0.00    +0.000 C 
ATOM     30  O   UNL     1       1.794  12.462  21.039  0.00  0.00    +0.000 OA
ATOM     31  N   UNL     1       0.273  11.485  19.602  0.00  0.00    +0.000 N 
BRANCH  20  32
ATOM     32  C   UNL     1      -4.538  12.562  20.287  0.00  0.00    +0.000 C 
BRANCH  32  34
ATOM     33  C   UNL     1      -4.688  14.654  21.755  0.00  0.00    +0.000 C 
ATOM     34  C   UNL     1      -4.648  14.090  20.341  0.00  0.00    +0.000 C 
ENDBRANCH  32  34
ENDBRANCH  20  32
ENDBRANCH  19  31
ENDBRANCH   1  19
TORSDOF 6
ENDMDL
MODEL 5
REMARK VINA RESULT:      -8.7      2.880      9.435
REMARK  Name = 
REMARK  8 active torsions:
REMARK  status: ('A' for Active; 'I' for Inactive)
REMARK    1  A    between atoms: C_1  and  C_2
REMARK    2  A    between atoms: C_2  and  C_3
REMARK    3  A    between atoms: C_3  and  C_4
REMARK    4  A    between atoms: C_6  and  C_7
REMARK    5  A    between atoms: N_15  and  C_16
REMARK    6  A    between atoms: C_16  and  C_17
REMARK    7  A    between atoms: C_20  and  C_21
REMARK    8  A    between atoms: C_26  and  C_27
REMARK                            x       y       z     vdW  Elec       q    Type
REMARK                         _______ _______ _______ _____ _____    ______ ____
ROOT
ATOM      1  C   UNL     1       1.566   9.471  19.003  0.00  0.00    +0.000 A 
ATOM      2  C   UNL     1       1.992   8.600  17.996  0.00  0.00    +0.000 A 
ATOM      3  C   UNL     1       2.169   7.229  18.254  0.00  0.00    +0.000 A 
ATOM      4  C   UNL     1       1.967   6.679  19.535  0.00  0.00    +0.000 A 
ATOM      5  C   UNL     1       1.562   7.581  20.536  0.00  0.00    +0.000 A 
ATOM      6  C   UNL     1       1.320   8.936  20.270  0.00  0.00    +0.000 A 
ENDROOT
BRANCH   4   7
ATOM      7  C   UNL     1       2.202   5.222  19.807  0.00  0.00    +0.000 A 
ATOM      8  C   UNL     1       1.244   4.522  20.587  0.00  0.00    +0.000 A 
ATOM      9  C   UNL     1       1.358   3.157  20.875  0.00  0.00    +0.000 A 
ATOM     10  C   UNL     1       2.422   2.429  20.374  0.00  0.00    +0.000 A 
ATOM     11  C   UNL     1       3.381   3.075  19.598  0.00  0.00    +0.000 A 
ATOM     12  C   UNL     1       3.297   4.462  19.319  0.00  0.00    +0.000 A 
BRANCH  12  13
ATOM     13  C   UNL     1       4.376   5.026  18.519  0.00  0.00    +0.000 A 
ATOM     14  N   UNL     1       5.465   5.679  19.052  0.00  0.00    +0.000 NA
ATOM     15  N   UNL     1       6.190   6.114  18.031  0.00  0.00    +0.000 NA
ATOM     16  N   UNL     1       5.536   5.682  16.948  0.00  0.00    +0.000 N 
ATOM     17  N   UNL     1       4.419   4.976  17.174  0.00  0.00    +0.000 NA
ATOM     18  H   UNL     1       5.867   5.888  16.009  0.00  0.00    +0.000 HD
ENDBRANCH  12  13
ENDBRANCH   4   7
BRANCH   1  19
ATOM     19  C   UNL     1       1.350  10.954  18.730  0.00  0.00    +0.000 C 
BRANCH  19  31
ATOM     20  C   UNL     1      -3.320  12.028  19.449  0.00  0.00    +0.000 A 
ATOM     21  N   UNL     1      -3.567  11.697  18.164  0.00  0.00    +0.000 NA
ATOM     22  C   UNL     1      -2.539  11.255  17.429  0.00  0.00    +0.000 A 
ATOM     23  C   UNL     1      -2.785  10.960  15.984  0.00  0.00    +0.000 C 
ATOM     24  N   UNL     1      -1.286  11.116  17.884  0.00  0.00    +0.000 NA
ATOM     25  C   UNL     1      -1.042  11.484  19.156  0.00  0.00    +0.000 A 
ATOM     26  C   UNL     1      -2.044  11.939  20.002  0.00  0.00    +0.000 A 
ATOM     27  C   UNL     1      -1.746  12.346  21.411  0.00  0.00    +0.000 C 
ATOM     28  C   UNL     1      -0.362  11.953  21.876  0.00  0.00    +0.000 C 
ATOM     29  C   UNL     1       0.676  12.066  20.794  0.00  0.00    +0.000 C 
ATOM     30  O   UNL     1       1.802  12.501  21.039  0.00  0.00    +0.000 OA
ATOM     31  N   UNL     1       0.308  11.503  19.588  0.00  0.00    +0.000 N 
BRANCH  20  32
ATOM     32  C   UNL     1      -4.521  12.534  20.214  0.00  0.00    +0.000 C 
BRANCH  32  34
ATOM     33  C   UNL     1      -4.875  14.478  21.839  0.00  0.00    +0.000 C 
ATOM     34  C   UNL     1      -4.554  14.053  20.413  0.00  0.00    +0.000 C 
ENDBRANCH  32  34
ENDBRANCH  20  32
ENDBRANCH  19  31
ENDBRANCH   1  19
TORSDOF 6
ENDMDL
MODEL 6
REMARK VINA RESULT:      -8.4      2.412      9.064
REMARK  Name = 
REMARK  8 active torsions:
REMARK  status: ('A' for Active; 'I' for Inactive)
REMARK    1  A    between atoms: C_1  and  C_2
REMARK    2  A    between atoms: C_2  and  C_3
REMARK    3  A    between atoms: C_3  and  C_4
REMARK    4  A    between atoms: C_6  and  C_7
REMARK    5  A    between atoms: N_15  and  C_16
REMARK    6  A    between atoms: C_16  and  C_17
REMARK    7  A    between atoms: C_20  and  C_21
REMARK    8  A    between atoms: C_26  and  C_27
REMARK                            x       y       z     vdW  Elec       q    Type
REMARK                         _______ _______ _______ _____ _____    ______ ____
ROOT
ATOM      1  C   UNL     1       1.481   8.934  19.828  0.00  0.00    +0.000 A 
ATOM      2  C   UNL     1       1.807   9.218  18.498  0.00  0.00    +0.000 A 
ATOM      3  C   UNL     1       2.513   8.288  17.714  0.00  0.00    +0.000 A 
ATOM      4  C   UNL     1       2.956   7.056  18.234  0.00  0.00    +0.000 A 
ATOM      5  C   UNL     1       2.635   6.806  19.581  0.00  0.00    +0.000 A 
ATOM      6  C   UNL     1       1.875   7.699  20.350  0.00  0.00    +0.000 A 
ENDROOT
BRANCH   4   7
ATOM      7  C   UNL     1       3.745   6.092  17.399  0.00  0.00    +0.000 A 
ATOM      8  C   UNL     1       4.778   6.609  16.573  0.00  0.00    +0.000 A 
ATOM      9  C   UNL     1       5.589   5.791  15.777  0.00  0.00    +0.000 A 
ATOM     10  C   UNL     1       5.415   4.419  15.792  0.00  0.00    +0.000 A 
ATOM     11  C   UNL     1       4.418   3.870  16.593  0.00  0.00    +0.000 A 
ATOM     12  C   UNL     1       3.570   4.683  17.385  0.00  0.00    +0.000 A 
BRANCH  12  13
ATOM     13  C   UNL     1       2.548   3.991  18.158  0.00  0.00    +0.000 A 
ATOM     14  N   UNL     1       2.781   3.397  19.378  0.00  0.00    +0.000 NA
ATOM     15  N   UNL     1       1.649   2.809  19.741  0.00  0.00    +0.000 NA
ATOM     16  N   UNL     1       0.791   3.099  18.758  0.00  0.00    +0.000 N 
ATOM     17  N   UNL     1       1.269   3.853  17.758  0.00  0.00    +0.000 NA
ATOM     18  H   UNL     1      -0.167   2.758  18.770  0.00  0.00    +0.000 HD
ENDBRANCH  12  13
ENDBRANCH   4   7
BRANCH   1  19
ATOM     19  C   UNL     1       0.698   9.924  20.681  0.00  0.00    +0.000 C 
BRANCH  19  31
ATOM     20  C   UNL     1       0.906  14.509  19.131  0.00  0.00    +0.000 A 
ATOM     21  N   UNL     1       1.898  14.736  20.017  0.00  0.00    +0.000 NA
ATOM     22  C   UNL     1       2.309  13.705  20.765  0.00  0.00    +0.000 A 
ATOM     23  C   UNL     1       3.353  13.965  21.805  0.00  0.00    +0.000 C 
ATOM     24  N   UNL     1       1.806  12.466  20.690  0.00  0.00    +0.000 NA
ATOM     25  C   UNL     1       0.791  12.258  19.829  0.00  0.00    +0.000 A 
ATOM     26  C   UNL     1       0.306  13.258  18.999  0.00  0.00    +0.000 A 
ATOM     27  C   UNL     1      -0.826  13.002  18.055  0.00  0.00    +0.000 C 
ATOM     28  C   UNL     1      -1.170  11.538  17.902  0.00  0.00    +0.000 C 
ATOM     29  C   UNL     1      -1.034  10.765  19.184  0.00  0.00    +0.000 C 
ATOM     30  O   UNL     1      -1.854   9.901  19.493  0.00  0.00    +0.000 OA
ATOM     31  N   UNL     1       0.143  10.998  19.869  0.00  0.00    +0.000 N 
BRANCH  20  32
ATOM     32  C   UNL     1       0.481  15.720  18.333  0.00  0.00    +0.000 C 
BRANCH  32  34
ATOM     33  C   UNL     1      -1.045  17.768  18.168  0.00  0.00    +0.000 C 
ATOM     34  C   UNL     1      -0.593  16.581  19.007  0.00  0.00    +0.000 C 
ENDBRANCH  32  34
ENDBRANCH  20  32
ENDBRANCH  19  31
ENDBRANCH   1  19
TORSDOF 6
ENDMDL
MODEL 7
REMARK VINA RESULT:      -8.4      2.962      9.390
REMARK  Name = 
REMARK  8 active torsions:
REMARK  status: ('A' for Active; 'I' for Inactive)
REMARK    1  A    between atoms: C_1  and  C_2
REMARK    2  A    between atoms: C_2  and  C_3
REMARK    3  A    between atoms: C_3  and  C_4
REMARK    4  A    between atoms: C_6  and  C_7
REMARK    5  A    between atoms: N_15  and  C_16
REMARK    6  A    between atoms: C_16  and  C_17
REMARK    7  A    between atoms: C_20  and  C_21
REMARK    8  A    between atoms: C_26  and  C_27
REMARK                            x       y       z     vdW  Elec       q    Type
REMARK                         _______ _______ _______ _____ _____    ______ ____
ROOT
ATOM      1  C   UNL     1       1.780   9.480  18.587  0.00  0.00    +0.000 A 
ATOM      2  C   UNL     1       1.543   9.105  19.914  0.00  0.00    +0.000 A 
ATOM      3  C   UNL     1       1.752   7.781  20.338  0.00  0.00    +0.000 A 
ATOM      4  C   UNL     1       2.167   6.770  19.450  0.00  0.00    +0.000 A 
ATOM      5  C   UNL     1       2.375   7.167  18.117  0.00  0.00    +0.000 A 
ATOM      6  C   UNL     1       2.232   8.499  17.701  0.00  0.00    +0.000 A 
ENDROOT
BRANCH   4   7
ATOM      7  C   UNL     1       2.344   5.351  19.907  0.00  0.00    +0.000 A 
ATOM      8  C   UNL     1       1.284   4.741  20.627  0.00  0.00    +0.000 A 
ATOM      9  C   UNL     1       1.341   3.415  21.075  0.00  0.00    +0.000 A 
ATOM     10  C   UNL     1       2.450   2.638  20.799  0.00  0.00    +0.000 A 
ATOM     11  C   UNL     1       3.510   3.195  20.088  0.00  0.00    +0.000 A 
ATOM     12  C   UNL     1       3.483   4.543  19.651  0.00  0.00    +0.000 A 
BRANCH  12  13
ATOM     13  C   UNL     1       4.663   5.016  18.942  0.00  0.00    +0.000 A 
ATOM     14  N   UNL     1       5.785   5.514  19.567  0.00  0.00    +0.000 NA
ATOM     15  N   UNL     1       6.613   5.910  18.610  0.00  0.00    +0.000 NA
ATOM     16  N   UNL     1       5.981   5.607  17.473  0.00  0.00    +0.000 N 
ATOM     17  N   UNL     1       4.781   5.023  17.600  0.00  0.00    +0.000 NA
ATOM     18  H   UNL     1       6.388   5.817  16.565  0.00  0.00    +0.000 HD
ENDBRANCH  12  13
ENDBRANCH   4   7
BRANCH   1  19
ATOM     19  C   UNL     1       1.578  10.915  18.120  0.00  0.00    +0.000 C 
BRANCH  19  31
ATOM     20  C   UNL     1      -2.813  12.253  19.670  0.00  0.00    +0.000 A 
ATOM     21  N   UNL     1      -3.349  11.660  18.582  0.00  0.00    +0.000 NA
ATOM     22  C   UNL     1      -2.514  11.040  17.739  0.00  0.00    +0.000 A 
ATOM     23  C   UNL     1      -3.088  10.448  16.492  0.00  0.00    +0.000 C 
ATOM     24  N   UNL     1      -1.186  10.967  17.904  0.00  0.00    +0.000 NA
ATOM     25  C   UNL     1      -0.657  11.594  18.973  0.00  0.00    +0.000 A 
ATOM     26  C   UNL     1      -1.441  12.249  19.912  0.00  0.00    +0.000 A 
ATOM     27  C   UNL     1      -0.827  12.942  21.088  0.00  0.00    +0.000 C 
ATOM     28  C   UNL     1       0.636  12.619  21.287  0.00  0.00    +0.000 C 
ATOM     29  C   UNL     1       1.386  12.466  19.993  0.00  0.00    +0.000 C 
ATOM     30  O   UNL     1       2.527  12.910  19.866  0.00  0.00    +0.000 OA
ATOM     31  N   UNL     1       0.756  11.666  19.059  0.00  0.00    +0.000 N 
BRANCH  20  32
ATOM     32  C   UNL     1      -3.811  12.947  20.568  0.00  0.00    +0.000 C 
BRANCH  32  34
ATOM     33  C   UNL     1      -4.186  13.554  23.026  0.00  0.00    +0.000 C 
ATOM     34  C   UNL     1      -3.788  12.477  22.026  0.00  0.00    +0.000 C 
ENDBRANCH  32  34
ENDBRANCH  20  32
ENDBRANCH  19  31
ENDBRANCH   1  19
TORSDOF 6
ENDMDL
MODEL 8
REMARK VINA RESULT:      -8.4      2.768      8.820
REMARK  Name = 
REMARK  8 active torsions:
REMARK  status: ('A' for Active; 'I' for Inactive)
REMARK    1  A    between atoms: C_1  and  C_2
REMARK    2  A    between atoms: C_2  and  C_3
REMARK    3  A    between atoms: C_3  and  C_4
REMARK    4  A    between atoms: C_6  and  C_7
REMARK    5  A    between atoms: N_15  and  C_16
REMARK    6  A    between atoms: C_16  and  C_17
REMARK    7  A    between atoms: C_20  and  C_21
REMARK    8  A    between atoms: C_26  and  C_27
REMARK                            x       y       z     vdW  Elec       q    Type
REMARK                         _______ _______ _______ _____ _____    ______ ____
ROOT
ATOM      1  C   UNL     1       1.151   9.427  20.234  0.00  0.00    +0.000 A 
ATOM      2  C   UNL     1       1.450   9.569  18.875  0.00  0.00    +0.000 A 
ATOM      3  C   UNL     1       2.106   8.545  18.169  0.00  0.00    +0.000 A 
ATOM      4  C   UNL     1       2.525   7.356  18.798  0.00  0.00    +0.000 A 
ATOM      5  C   UNL     1       2.234   7.248  20.169  0.00  0.00    +0.000 A 
ATOM      6  C   UNL     1       1.521   8.237  20.864  0.00  0.00    +0.000 A 
ENDROOT
BRANCH   4   7
ATOM      7  C   UNL     1       3.263   6.290  18.042  0.00  0.00    +0.000 A 
ATOM      8  C   UNL     1       4.178   6.693  17.033  0.00  0.00    +0.000 A 
ATOM      9  C   UNL     1       4.933   5.778  16.290  0.00  0.00    +0.000 A 
ATOM     10  C   UNL     1       4.824   4.423  16.543  0.00  0.00    +0.000 A 
ATOM     11  C   UNL     1       3.945   3.985  17.529  0.00  0.00    +0.000 A 
ATOM     12  C   UNL     1       3.151   4.894  18.273  0.00  0.00    +0.000 A 
BRANCH  12  13
ATOM     13  C   UNL     1       2.250   4.310  19.257  0.00  0.00    +0.000 A 
ATOM     14  N   UNL     1       2.615   4.020  20.553  0.00  0.00    +0.000 NA
ATOM     15  N   UNL     1       1.569   3.438  21.124  0.00  0.00    +0.000 NA
ATOM     16  N   UNL     1       0.628   3.435  20.176  0.00  0.00    +0.000 N 
ATOM     17  N   UNL     1       0.968   3.985  19.002  0.00  0.00    +0.000 NA
ATOM     18  H   UNL     1      -0.291   3.029  20.338  0.00  0.00    +0.000 HD
ENDBRANCH  12  13
ENDBRANCH   4   7
BRANCH   1  19
ATOM     19  C   UNL     1       0.421  10.520  21.004  0.00  0.00    +0.000 C 
BRANCH  19  31
ATOM     20  C   UNL     1       1.690  14.870  19.289  0.00  0.00    +0.000 A 
ATOM     21  N   UNL     1       2.710  14.891  20.172  0.00  0.00    +0.000 NA
ATOM     22  C   UNL     1       2.872  13.820  20.959  0.00  0.00    +0.000 A 
ATOM     23  C   UNL     1       3.950  13.867  21.994  0.00  0.00    +0.000 C 
ATOM     24  N   UNL     1       2.092  12.731  20.927  0.00  0.00    +0.000 NA
ATOM     25  C   UNL     1       1.054  12.735  20.068  0.00  0.00    +0.000 A 
ATOM     26  C   UNL     1       0.814  13.790  19.200  0.00  0.00    +0.000 A 
ATOM     27  C   UNL     1      -0.350  13.771  18.259  0.00  0.00    +0.000 C 
ATOM     28  C   UNL     1      -1.027  12.423  18.157  0.00  0.00    +0.000 C 
ATOM     29  C   UNL     1      -1.071  11.688  19.468  0.00  0.00    +0.000 C 
ATOM     30  O   UNL     1      -2.070  11.051  19.804  0.00  0.00    +0.000 OA
ATOM     31  N   UNL     1       0.129  11.663  20.151  0.00  0.00    +0.000 N 
BRANCH  20  32
ATOM     32  C   UNL     1       1.558  16.116  18.445  0.00  0.00    +0.000 C 
BRANCH  32  34
ATOM     33  C   UNL     1       2.618  17.404  16.504  0.00  0.00    +0.000 C 
ATOM     34  C   UNL     1       2.849  16.547  17.742  0.00  0.00    +0.000 C 
ENDBRANCH  32  34
ENDBRANCH  20  32
ENDBRANCH  19  31
ENDBRANCH   1  19
TORSDOF 6
ENDMDL
MODEL 9
REMARK VINA RESULT:      -8.1      1.527      2.135
REMARK  Name = 
REMARK  8 active torsions:
REMARK  status: ('A' for Active; 'I' for Inactive)
REMARK    1  A    between atoms: C_1  and  C_2
REMARK    2  A    between atoms: C_2  and  C_3
REMARK    3  A    between atoms: C_3  and  C_4
REMARK    4  A    between atoms: C_6  and  C_7
REMARK    5  A    between atoms: N_15  and  C_16
REMARK    6  A    between atoms: C_16  and  C_17
REMARK    7  A    between atoms: C_20  and  C_21
REMARK    8  A    between atoms: C_26  and  C_27
REMARK                            x       y       z     vdW  Elec       q    Type
REMARK                         _______ _______ _______ _____ _____    ______ ____
ROOT
ATOM      1  C   UNL     1       2.970   6.488  19.604  0.00  0.00    +0.000 A 
ATOM      2  C   UNL     1       1.987   6.675  20.582  0.00  0.00    +0.000 A 
ATOM      3  C   UNL     1       1.048   7.717  20.471  0.00  0.00    +0.000 A 
ATOM      4  C   UNL     1       1.076   8.636  19.404  0.00  0.00    +0.000 A 
ATOM      5  C   UNL     1       2.088   8.439  18.447  0.00  0.00    +0.000 A 
ATOM      6  C   UNL     1       2.986   7.364  18.516  0.00  0.00    +0.000 A 
ENDROOT
BRANCH   4   7
ATOM      7  C   UNL     1       0.095   9.768  19.322  0.00  0.00    +0.000 A 
ATOM      8  C   UNL     1      -0.303  10.220  18.036  0.00  0.00    +0.000 A 
ATOM      9  C   UNL     1      -1.231  11.252  17.852  0.00  0.00    +0.000 A 
ATOM     10  C   UNL     1      -1.819  11.858  18.947  0.00  0.00    +0.000 A 
ATOM     11  C   UNL     1      -1.463  11.440  20.227  0.00  0.00    +0.000 A 
ATOM     12  C   UNL     1      -0.505  10.417  20.433  0.00  0.00    +0.000 A 
BRANCH  12  13
ATOM     13  C   UNL     1      -0.198  10.089  21.819  0.00  0.00    +0.000 A 
ATOM     14  N   UNL     1       1.060  10.190  22.369  0.00  0.00    +0.000 NA
ATOM     15  N   UNL     1       0.971   9.743  23.615  0.00  0.00    +0.000 NA
ATOM     16  N   UNL     1      -0.320   9.431  23.767  0.00  0.00    +0.000 N 
ATOM     17  N   UNL     1      -1.110   9.647  22.706  0.00  0.00    +0.000 NA
ATOM     18  H   UNL     1      -0.675   9.044  24.638  0.00  0.00    +0.000 HD
ENDBRANCH  12  13
ENDBRANCH   4   7
BRANCH   1  19
ATOM     19  C   UNL     1       3.978   5.351  19.701  0.00  0.00    +0.000 C 
BRANCH  19  31
ATOM     20  C   UNL     1       6.630   4.938  15.667  0.00  0.00    +0.000 A 
ATOM     21  N   UNL     1       7.358   6.002  16.068  0.00  0.00    +0.000 NA
ATOM     22  C   UNL     1       7.052   6.553  17.249  0.00  0.00    +0.000 A 
ATOM     23  C   UNL     1       7.799   7.779  17.666  0.00  0.00    +0.000 C 
ATOM     24  N   UNL     1       6.078   6.118  18.059  0.00  0.00    +0.000 NA
ATOM     25  C   UNL     1       5.333   5.079  17.633  0.00  0.00    +0.000 A 
ATOM     26  C   UNL     1       5.582   4.430  16.432  0.00  0.00    +0.000 A 
ATOM     27  C   UNL     1       4.737   3.282  15.980  0.00  0.00    +0.000 C 
ATOM     28  C   UNL     1       3.816   2.746  17.053  0.00  0.00    +0.000 C 
ATOM     29  C   UNL     1       3.258   3.824  17.940  0.00  0.00    +0.000 C 
ATOM     30  O   UNL     1       2.086   3.791  18.317  0.00  0.00    +0.000 OA
ATOM     31  N   UNL     1       4.196   4.725  18.404  0.00  0.00    +0.000 N 
BRANCH  20  32
ATOM     32  C   UNL     1       7.018   4.379  14.318  0.00  0.00    +0.000 C 
BRANCH  32  34
ATOM     33  C   UNL     1       5.827   3.265  12.346  0.00  0.00    +0.000 C 
ATOM     34  C   UNL     1       5.928   4.488  13.247  0.00  0.00    +0.000 C 
ENDBRANCH  32  34
ENDBRANCH  20  32
ENDBRANCH  19  31
ENDBRANCH   1  19
TORSDOF 6
ENDMDL
