MODEL 1
REMARK VINA RESULT:      -8.9      0.000      0.000
REMARK  Name = 
REMARK  7 active torsions:
REMARK  status: ('A' for Active; 'I' for Inactive)
REMARK    1  A    between atoms: C_1  and  O_2
REMARK    2  A    between atoms: O_2  and  C_3
REMARK    3  A    between atoms: C_6  and  C_7
REMARK    4  A    between atoms: C_7  and  C_9
REMARK    5  A    between atoms: C_14  and  C_16
REMARK    6  A    between atoms: C_26  and  O_27
REMARK    7  A    between atoms: O_27  and  C_28
REMARK                            x       y       z     vdW  Elec       q    Type
REMARK                         _______ _______ _______ _____ _____    ______ ____
ROOT
ATOM      1  C   UNL     1       2.989   2.550  18.945  0.00  0.00    +0.000 C 
ATOM      2  C   UNL     1       1.579   1.987  19.103  0.00  0.00    +0.000 C 
ATOM      3  C   UNL     1       0.531   3.042  19.453  0.00  0.00    +0.000 C 
ATOM      4  C   UNL     1       1.007   4.216  20.321  0.00  0.00    +0.000 C 
ATOM      5  N   UNL     1       2.404   4.607  20.120  0.00  0.00    +0.000 N 
ATOM      6  C   UNL     1       2.996   5.870  19.966  0.00  0.00    +0.000 C 
ATOM      7  O   UNL     1       4.230   5.978  20.076  0.00  0.00    +0.000 OA
ATOM      8  C   UNL     1       3.313   3.467  20.121  0.00  0.00    +0.000 C 
ENDROOT
BRANCH   6   9
ATOM      9  C   UNL     1       2.319   7.130  19.538  0.00  0.00    +0.000 A 
ATOM     10  C   UNL     1       2.557   7.527  18.193  0.00  0.00    +0.000 A 
ATOM     11  C   UNL     1       1.969   8.659  17.632  0.00  0.00    +0.000 A 
ATOM     12  C   UNL     1       1.112   9.435  18.402  0.00  0.00    +0.000 A 
ATOM     13  C   UNL     1       0.915   9.101  19.744  0.00  0.00    +0.000 A 
ATOM     14 CL   UNL     1      -0.104  10.110  20.703  0.00  0.00    +0.000 Cl
ATOM     15  C   UNL     1       1.546   7.985  20.320  0.00  0.00    +0.000 A 
ATOM     16  F   UNL     1       1.473   7.838  21.648  0.00  0.00    +0.000 F 
ENDBRANCH   6   9
BRANCH   1  17
ATOM     17  C   UNL     1       3.206   3.278  17.610  0.00  0.00    +0.000 C 
ATOM     18  O   UNL     1       2.359   3.337  16.721  0.00  0.00    +0.000 OA
BRANCH  17  22
ATOM     19  C   UNL     1       6.805   5.500  16.901  0.00  0.00    +0.000 A 
ATOM     20  C   UNL     1       6.617   4.855  18.137  0.00  0.00    +0.000 A 
ATOM     21  C   UNL     1       5.492   4.046  18.361  0.00  0.00    +0.000 A 
ATOM     22  C   UNL     1       4.564   3.870  17.343  0.00  0.00    +0.000 A 
ATOM     23  C   UNL     1       4.865   4.343  16.073  0.00  0.00    +0.000 A 
ATOM     24  C   UNL     1       5.966   5.150  15.839  0.00  0.00    +0.000 A 
BRANCH  19  26
ATOM     25  C   UNL     1       7.767   7.526  17.591  0.00  0.00    +0.000 C 
ATOM     26  O   UNL     1       7.840   6.376  16.732  0.00  0.00    +0.000 OA
ENDBRANCH  19  26
BRANCH  24  27
ATOM     27  O   UNL     1       5.989   5.508  14.524  0.00  0.00    +0.000 OA
ATOM     28  C   UNL     1       6.727   4.778  13.575  0.00  0.00    +0.000 C 
ENDBRANCH  24  27
ENDBRANCH  17  22
ENDBRANCH   1  17
TORSDOF 5
ENDMDL
MODEL 2
REMARK VINA RESULT:      -8.6      0.886      1.899
REMARK  Name = 
REMARK  7 active torsions:
REMARK  status: ('A' for Active; 'I' for Inactive)
REMARK    1  A    between atoms: C_1  and  O_2
REMARK    2  A    between atoms: O_2  and  C_3
REMARK    3  A    between atoms: C_6  and  C_7
REMARK    4  A    between atoms: C_7  and  C_9
REMARK    5  A    between atoms: C_14  and  C_16
REMARK    6  A    between atoms: C_26  and  O_27
REMARK    7  A    between atoms: O_27  and  C_28
REMARK                            x       y       z     vdW  Elec       q    Type
REMARK                         _______ _______ _______ _____ _____    ______ ____
ROOT
ATOM      1  C   UNL     1       3.220   2.715  18.940  0.00  0.00    +0.000 C 
ATOM      2  C   UNL     1       1.931   2.082  19.456  0.00  0.00    +0.000 C 
ATOM      3  C   UNL     1       0.918   3.094  19.988  0.00  0.00    +0.000 C 
ATOM      4  C   UNL     1       1.495   4.351  20.656  0.00  0.00    +0.000 C 
ATOM      5  N   UNL     1       2.775   4.809  20.110  0.00  0.00    +0.000 N 
ATOM      6  C   UNL     1       3.220   6.091  19.754  0.00  0.00    +0.000 C 
ATOM      7  O   UNL     1       4.434   6.280  19.564  0.00  0.00    +0.000 OA
ATOM      8  C   UNL     1       3.741   3.728  19.956  0.00  0.00    +0.000 C 
ENDROOT
BRANCH   6   9
ATOM      9  C   UNL     1       2.371   7.277  19.434  0.00  0.00    +0.000 A 
ATOM     10  C   UNL     1       2.457   7.746  18.094  0.00  0.00    +0.000 A 
ATOM     11  C   UNL     1       1.700   8.821  17.627  0.00  0.00    +0.000 A 
ATOM     12  C   UNL     1       0.823   9.463  18.492  0.00  0.00    +0.000 A 
ATOM     13  C   UNL     1       0.770   9.060  19.829  0.00  0.00    +0.000 A 
ATOM     14 CL   UNL     1      -0.281   9.907  20.903  0.00  0.00    +0.000 Cl
ATOM     15  C   UNL     1       1.569   8.007  20.307  0.00  0.00    +0.000 A 
ATOM     16  F   UNL     1       1.616   7.806  21.629  0.00  0.00    +0.000 F 
ENDBRANCH   6   9
BRANCH   1  17
ATOM     17  C   UNL     1       3.068   3.362  17.556  0.00  0.00    +0.000 C 
ATOM     18  O   UNL     1       2.072   3.225  16.846  0.00  0.00    +0.000 OA
BRANCH  17  22
ATOM     19  C   UNL     1       6.601   5.004  15.763  0.00  0.00    +0.000 A 
ATOM     20  C   UNL     1       5.348   5.221  15.161  0.00  0.00    +0.000 A 
ATOM     21  C   UNL     1       4.168   4.774  15.775  0.00  0.00    +0.000 A 
ATOM     22  C   UNL     1       4.240   4.125  17.000  0.00  0.00    +0.000 A 
ATOM     23  C   UNL     1       5.453   4.100  17.675  0.00  0.00    +0.000 A 
ATOM     24  C   UNL     1       6.627   4.528  17.078  0.00  0.00    +0.000 A 
BRANCH  19  26
ATOM     25  C   UNL     1       7.718   5.032  13.700  0.00  0.00    +0.000 C 
ATOM     26  O   UNL     1       7.750   5.339  15.104  0.00  0.00    +0.000 OA
ENDBRANCH  19  26
BRANCH  24  27
ATOM     27  O   UNL     1       7.664   4.343  17.943  0.00  0.00    +0.000 OA
ATOM     28  C   UNL     1       7.982   5.299  18.925  0.00  0.00    +0.000 C 
ENDBRANCH  24  27
ENDBRANCH  17  22
ENDBRANCH   1  17
TORSDOF 5
ENDMDL
MODEL 3
REMARK VINA RESULT:      -8.5      1.081      1.764
REMARK  Name = 
REMARK  7 active torsions:
REMARK  status: ('A' for Active; 'I' for Inactive)
REMARK    1  A    between atoms: C_1  and  O_2
REMARK    2  A    between atoms: O_2  and  C_3
REMARK    3  A    between atoms: C_6  and  C_7
REMARK    4  A    between atoms: C_7  and  C_9
REMARK    5  A    between atoms: C_14  and  C_16
REMARK    6  A    between atoms: C_26  and  O_27
REMARK    7  A    between atoms: O_27  and  C_28
REMARK                            x       y       z     vdW  Elec       q    Type
REMARK                         _______ _______ _______ _____ _____    ______ ____
ROOT
ATOM      1  C   UNL     1       3.166   3.056  18.721  0.00  0.00    +0.000 C 
ATOM      2  C   UNL     1       1.950   2.351  19.315  0.00  0.00    +0.000 C 
ATOM      3  C   UNL     1       0.963   3.296  19.997  0.00  0.00    +0.000 C 
ATOM      4  C   UNL     1       1.564   4.533  20.683  0.00  0.00    +0.000 C 
ATOM      5  N   UNL     1       2.773   5.065  20.050  0.00  0.00    +0.000 N 
ATOM      6  C   UNL     1       3.145   6.379  19.732  0.00  0.00    +0.000 C 
ATOM      7  O   UNL     1       4.330   6.620  19.442  0.00  0.00    +0.000 OA
ATOM      8  C   UNL     1       3.751   4.028  19.744  0.00  0.00    +0.000 C 
ENDROOT
BRANCH   6   9
ATOM      9  C   UNL     1       2.236   7.551  19.562  0.00  0.00    +0.000 A 
ATOM     10  C   UNL     1       2.220   8.131  18.263  0.00  0.00    +0.000 A 
ATOM     11  C   UNL     1       1.398   9.207  17.934  0.00  0.00    +0.000 A 
ATOM     12  C   UNL     1       0.554   9.741  18.899  0.00  0.00    +0.000 A 
ATOM     13  C   UNL     1       0.600   9.230  20.199  0.00  0.00    +0.000 A 
ATOM     14 CL   UNL     1      -0.411   9.944  21.401  0.00  0.00    +0.000 Cl
ATOM     15  C   UNL     1       1.464   8.175  20.539  0.00  0.00    +0.000 A 
ATOM     16  F   UNL     1       1.602   7.870  21.835  0.00  0.00    +0.000 F 
ENDBRANCH   6   9
BRANCH   1  17
ATOM     17  C   UNL     1       2.866   3.775  17.398  0.00  0.00    +0.000 C 
ATOM     18  O   UNL     1       1.729   3.955  16.963  0.00  0.00    +0.000 OA
BRANCH  17  22
ATOM     19  C   UNL     1       6.525   4.884  15.455  0.00  0.00    +0.000 A 
ATOM     20  C   UNL     1       5.930   3.643  15.164  0.00  0.00    +0.000 A 
ATOM     21  C   UNL     1       4.687   3.296  15.715  0.00  0.00    +0.000 A 
ATOM     22  C   UNL     1       4.031   4.197  16.543  0.00  0.00    +0.000 A 
ATOM     23  C   UNL     1       4.529   5.488  16.657  0.00  0.00    +0.000 A 
ATOM     24  C   UNL     1       5.759   5.843  16.127  0.00  0.00    +0.000 A 
BRANCH  19  26
ATOM     25  C   UNL     1       7.887   5.234  13.577  0.00  0.00    +0.000 C 
ATOM     26  O   UNL     1       7.785   5.165  15.009  0.00  0.00    +0.000 OA
ENDBRANCH  19  26
BRANCH  24  27
ATOM     27  O   UNL     1       6.019   7.146  16.429  0.00  0.00    +0.000 OA
ATOM     28  C   UNL     1       7.015   7.501  17.357  0.00  0.00    +0.000 C 
ENDBRANCH  24  27
ENDBRANCH  17  22
ENDBRANCH   1  17
TORSDOF 5
ENDMDL
MODEL 4
REMARK VINA RESULT:      -8.4      1.385      2.296
REMARK  Name = 
REMARK  7 active torsions:
REMARK  status: ('A' for Active; 'I' for Inactive)
REMARK    1  A    between atoms: C_1  and  O_2
REMARK    2  A    between atoms: O_2  and  C_3
REMARK    3  A    between atoms: C_6  and  C_7
REMARK    4  A    between atoms: C_7  and  C_9
REMARK    5  A    between atoms: C_14  and  C_16
REMARK    6  A    between atoms: C_26  and  O_27
REMARK    7  A    between atoms: O_27  and  C_28
REMARK                            x       y       z     vdW  Elec       q    Type
REMARK                         _______ _______ _______ _____ _____    ______ ____
ROOT
ATOM      1  C   UNL     1       3.850   2.721  19.075  0.00  0.00    +0.000 C 
ATOM      2  C   UNL     1       3.355   2.321  17.688  0.00  0.00    +0.000 C 
ATOM      3  C   UNL     1       2.421   3.346  17.048  0.00  0.00    +0.000 C 
ATOM      4  C   UNL     1       1.516   4.137  18.005  0.00  0.00    +0.000 C 
ATOM      5  N   UNL     1       2.088   4.390  19.329  0.00  0.00    +0.000 N 
ATOM      6  C   UNL     1       2.129   5.555  20.110  0.00  0.00    +0.000 C 
ATOM      7  O   UNL     1       2.430   5.468  21.313  0.00  0.00    +0.000 OA
ATOM      8  C   UNL     1       2.675   3.196  19.926  0.00  0.00    +0.000 C 
ENDROOT
BRANCH   6   9
ATOM      9  C   UNL     1       1.979   6.960  19.628  0.00  0.00    +0.000 A 
ATOM     10  C   UNL     1       2.565   7.239  18.362  0.00  0.00    +0.000 A 
ATOM     11  C   UNL     1       2.481   8.493  17.759  0.00  0.00    +0.000 A 
ATOM     12  C   UNL     1       1.799   9.516  18.405  0.00  0.00    +0.000 A 
ATOM     13  C   UNL     1       1.272   9.284  19.677  0.00  0.00    +0.000 A 
ATOM     14 CL   UNL     1       0.481  10.582  20.491  0.00  0.00    +0.000 Cl
ATOM     15  C   UNL     1       1.399   8.031  20.303  0.00  0.00    +0.000 A 
ATOM     16  F   UNL     1       1.050   7.935  21.592  0.00  0.00    +0.000 F 
ENDBRANCH   6   9
BRANCH   1  17
ATOM     17  C   UNL     1       4.961   3.782  19.040  0.00  0.00    +0.000 C 
ATOM     18  O   UNL     1       5.441   4.298  20.048  0.00  0.00    +0.000 OA
BRANCH  17  22
ATOM     19  C   UNL     1       6.821   5.135  15.420  0.00  0.00    +0.000 A 
ATOM     20  C   UNL     1       6.229   3.859  15.465  0.00  0.00    +0.000 A 
ATOM     21  C   UNL     1       5.535   3.429  16.606  0.00  0.00    +0.000 A 
ATOM     22  C   UNL     1       5.416   4.282  17.696  0.00  0.00    +0.000 A 
ATOM     23  C   UNL     1       5.825   5.602  17.561  0.00  0.00    +0.000 A 
ATOM     24  C   UNL     1       6.520   6.038  16.445  0.00  0.00    +0.000 A 
BRANCH  19  26
ATOM     25  C   UNL     1       7.326   4.738  13.164  0.00  0.00    +0.000 C 
ATOM     26  O   UNL     1       7.592   5.499  14.354  0.00  0.00    +0.000 OA
ENDBRANCH  19  26
BRANCH  24  27
ATOM     27  O   UNL     1       6.839   7.354  16.601  0.00  0.00    +0.000 OA
ATOM     28  C   UNL     1       7.653   7.794  17.660  0.00  0.00    +0.000 C 
ENDBRANCH  24  27
ENDBRANCH  17  22
ENDBRANCH   1  17
TORSDOF 5
ENDMDL
MODEL 5
REMARK VINA RESULT:      -8.4      1.477      2.284
REMARK  Name = 
REMARK  7 active torsions:
REMARK  status: ('A' for Active; 'I' for Inactive)
REMARK    1  A    between atoms: C_1  and  O_2
REMARK    2  A    between atoms: O_2  and  C_3
REMARK    3  A    between atoms: C_6  and  C_7
REMARK    4  A    between atoms: C_7  and  C_9
REMARK    5  A    between atoms: C_14  and  C_16
REMARK    6  A    between atoms: C_26  and  O_27
REMARK    7  A    between atoms: O_27  and  C_28
REMARK                            x       y       z     vdW  Elec       q    Type
REMARK                         _______ _______ _______ _____ _____    ______ ____
ROOT
ATOM      1  C   UNL     1       3.359   2.702  18.424  0.00  0.00    +0.000 C 
ATOM      2  C   UNL     1       2.165   1.912  18.952  0.00  0.00    +0.000 C 
ATOM      3  C   UNL     1       1.193   2.747  19.783  0.00  0.00    +0.000 C 
ATOM      4  C   UNL     1       1.806   3.886  20.611  0.00  0.00    +0.000 C 
ATOM      5  N   UNL     1       2.992   4.510  20.021  0.00  0.00    +0.000 N 
ATOM      6  C   UNL     1       3.348   5.859  19.872  0.00  0.00    +0.000 C 
ATOM      7  O   UNL     1       4.522   6.148  19.584  0.00  0.00    +0.000 OA
ATOM      8  C   UNL     1       3.967   3.533  19.551  0.00  0.00    +0.000 C 
ENDROOT
BRANCH   6   9
ATOM      9  C   UNL     1       2.427   7.034  19.888  0.00  0.00    +0.000 A 
ATOM     10  C   UNL     1       1.661   7.196  21.076  0.00  0.00    +0.000 A 
ATOM     11  C   UNL     1       0.782   8.262  21.260  0.00  0.00    +0.000 A 
ATOM     12  C   UNL     1       0.643   9.212  20.257  0.00  0.00    +0.000 A 
ATOM     13  C   UNL     1       1.336   9.038  19.056  0.00  0.00    +0.000 A 
ATOM     14 CL   UNL     1       1.104  10.194  17.797  0.00  0.00    +0.000 Cl
ATOM     15  C   UNL     1       2.185   7.936  18.855  0.00  0.00    +0.000 A 
ATOM     16  F   UNL     1       2.658   7.725  17.621  0.00  0.00    +0.000 F 
ENDBRANCH   6   9
BRANCH   1  17
ATOM     17  C   UNL     1       3.014   3.589  17.218  0.00  0.00    +0.000 C 
ATOM     18  O   UNL     1       1.863   3.844  16.867  0.00  0.00    +0.000 OA
BRANCH  17  22
ATOM     19  C   UNL     1       6.600   4.908  15.269  0.00  0.00    +0.000 A 
ATOM     20  C   UNL     1       6.019   3.680  14.903  0.00  0.00    +0.000 A 
ATOM     21  C   UNL     1       4.798   3.269  15.459  0.00  0.00    +0.000 A 
ATOM     22  C   UNL     1       4.149   4.095  16.367  0.00  0.00    +0.000 A 
ATOM     23  C   UNL     1       4.627   5.384  16.562  0.00  0.00    +0.000 A 
ATOM     24  C   UNL     1       5.835   5.800  16.028  0.00  0.00    +0.000 A 
BRANCH  19  26
ATOM     25  C   UNL     1       7.923   5.343  13.381  0.00  0.00    +0.000 C 
ATOM     26  O   UNL     1       7.842   5.246  14.813  0.00  0.00    +0.000 OA
ENDBRANCH  19  26
BRANCH  24  27
ATOM     27  O   UNL     1       6.080   7.082  16.418  0.00  0.00    +0.000 OA
ATOM     28  C   UNL     1       7.053   7.383  17.389  0.00  0.00    +0.000 C 
ENDBRANCH  24  27
ENDBRANCH  17  22
ENDBRANCH   1  17
TORSDOF 5
ENDMDL
MODEL 6
REMARK VINA RESULT:      -8.4      3.842      6.394
REMARK  Name = 
REMARK  7 active torsions:
REMARK  status: ('A' for Active; 'I' for Inactive)
REMARK    1  A    between atoms: C_1  and  O_2
REMARK    2  A    between atoms: O_2  and  C_3
REMARK    3  A    between atoms: C_6  and  C_7
REMARK    4  A    between atoms: C_7  and  C_9
REMARK    5  A    between atoms: C_14  and  C_16
REMARK    6  A    between atoms: C_26  and  O_27
REMARK    7  A    between atoms: O_27  and  C_28
REMARK                            x       y       z     vdW  Elec       q    Type
REMARK                         _______ _______ _______ _____ _____    ______ ____
ROOT
ATOM      1  C   UNL     1       1.101   9.339  22.101  0.00  0.00    +0.000 C 
ATOM      2  C   UNL     1       0.325   9.588  23.392  0.00  0.00    +0.000 C 
ATOM      3  C   UNL     1      -0.999  10.319  23.182  0.00  0.00    +0.000 C 
ATOM      4  C   UNL     1      -1.042  11.338  22.033  0.00  0.00    +0.000 C 
ATOM      5  N   UNL     1      -0.193  11.011  20.885  0.00  0.00    +0.000 N 
ATOM      6  C   UNL     1      -0.452  11.047  19.506  0.00  0.00    +0.000 C 
ATOM      7  O   UNL     1       0.500  10.983  18.709  0.00  0.00    +0.000 OA
ATOM      8  C   UNL     1       1.156  10.621  21.275  0.00  0.00    +0.000 C 
ENDROOT
BRANCH   6   9
ATOM      9  C   UNL     1      -1.791  11.016  18.846  0.00  0.00    +0.000 A 
ATOM     10  C   UNL     1      -1.945  10.044  17.819  0.00  0.00    +0.000 A 
ATOM     11  C   UNL     1      -3.145   9.865  17.132  0.00  0.00    +0.000 A 
ATOM     12  C   UNL     1      -4.240  10.656  17.455  0.00  0.00    +0.000 A 
ATOM     13  C   UNL     1      -4.092  11.662  18.414  0.00  0.00    +0.000 A 
ATOM     14 CL   UNL     1      -5.445  12.675  18.759  0.00  0.00    +0.000 Cl
ATOM     15  C   UNL     1      -2.868  11.870  19.072  0.00  0.00    +0.000 A 
ATOM     16  F   UNL     1      -2.739  12.968  19.826  0.00  0.00    +0.000 F 
ENDBRANCH   6   9
BRANCH   1  17
ATOM     17  C   UNL     1       0.537   8.178  21.268  0.00  0.00    +0.000 C 
ATOM     18  O   UNL     1      -0.629   7.792  21.340  0.00  0.00    +0.000 OA
BRANCH  17  22
ATOM     19  C   UNL     1       2.755   5.770  18.498  0.00  0.00    +0.000 A 
ATOM     20  C   UNL     1       2.670   7.160  18.300  0.00  0.00    +0.000 A 
ATOM     21  C   UNL     1       2.029   7.982  19.240  0.00  0.00    +0.000 A 
ATOM     22  C   UNL     1       1.489   7.415  20.386  0.00  0.00    +0.000 A 
ATOM     23  C   UNL     1       1.757   6.081  20.665  0.00  0.00    +0.000 A 
ATOM     24  C   UNL     1       2.380   5.256  19.743  0.00  0.00    +0.000 A 
BRANCH  19  26
ATOM     25  C   UNL     1       4.621   5.311  17.152  0.00  0.00    +0.000 C 
ATOM     26  O   UNL     1       3.276   4.966  17.524  0.00  0.00    +0.000 OA
ENDBRANCH  19  26
BRANCH  24  27
ATOM     27  O   UNL     1       2.468   3.997  20.256  0.00  0.00    +0.000 OA
ATOM     28  C   UNL     1       1.323   3.211  20.480  0.00  0.00    +0.000 C 
ENDBRANCH  24  27
ENDBRANCH  17  22
ENDBRANCH   1  17
TORSDOF 5
ENDMDL
MODEL 7
REMARK VINA RESULT:      -8.3      1.505      2.469
REMARK  Name = 
REMARK  7 active torsions:
REMARK  status: ('A' for Active; 'I' for Inactive)
REMARK    1  A    between atoms: C_1  and  O_2
REMARK    2  A    between atoms: O_2  and  C_3
REMARK    3  A    between atoms: C_6  and  C_7
REMARK    4  A    between atoms: C_7  and  C_9
REMARK    5  A    between atoms: C_14  and  C_16
REMARK    6  A    between atoms: C_26  and  O_27
REMARK    7  A    between atoms: O_27  and  C_28
REMARK                            x       y       z     vdW  Elec       q    Type
REMARK                         _______ _______ _______ _____ _____    ______ ____
ROOT
ATOM      1  C   UNL     1       3.576   2.483  18.401  0.00  0.00    +0.000 C 
ATOM      2  C   UNL     1       2.349   1.694  18.851  0.00  0.00    +0.000 C 
ATOM      3  C   UNL     1       1.331   2.530  19.625  0.00  0.00    +0.000 C 
ATOM      4  C   UNL     1       1.897   3.662  20.495  0.00  0.00    +0.000 C 
ATOM      5  N   UNL     1       3.120   4.284  19.983  0.00  0.00    +0.000 N 
ATOM      6  C   UNL     1       3.489   5.632  19.863  0.00  0.00    +0.000 C 
ATOM      7  O   UNL     1       4.679   5.918  19.648  0.00  0.00    +0.000 OA
ATOM      8  C   UNL     1       4.117   3.305  19.568  0.00  0.00    +0.000 C 
ENDROOT
BRANCH   6   9
ATOM      9  C   UNL     1       2.573   6.811  19.827  0.00  0.00    +0.000 A 
ATOM     10  C   UNL     1       1.754   6.985  20.977  0.00  0.00    +0.000 A 
ATOM     11  C   UNL     1       0.873   8.056  21.114  0.00  0.00    +0.000 A 
ATOM     12  C   UNL     1       0.784   8.999  20.098  0.00  0.00    +0.000 A 
ATOM     13  C   UNL     1       1.531   8.814  18.932  0.00  0.00    +0.000 A 
ATOM     14 CL   UNL     1       1.363   9.962  17.655  0.00  0.00    +0.000 Cl
ATOM     15  C   UNL     1       2.384   7.707  18.778  0.00  0.00    +0.000 A 
ATOM     16  F   UNL     1       2.912   7.485  17.569  0.00  0.00    +0.000 F 
ENDBRANCH   6   9
BRANCH   1  17
ATOM     17  C   UNL     1       3.310   3.377  17.181  0.00  0.00    +0.000 C 
ATOM     18  O   UNL     1       2.210   3.483  16.642  0.00  0.00    +0.000 OA
BRANCH  17  22
ATOM     19  C   UNL     1       6.856   4.847  15.268  0.00  0.00    +0.000 A 
ATOM     20  C   UNL     1       5.614   4.961  14.616  0.00  0.00    +0.000 A 
ATOM     21  C   UNL     1       4.428   4.572  15.258  0.00  0.00    +0.000 A 
ATOM     22  C   UNL     1       4.482   4.086  16.558  0.00  0.00    +0.000 A 
ATOM     23  C   UNL     1       5.680   4.170  17.255  0.00  0.00    +0.000 A 
ATOM     24  C   UNL     1       6.860   4.542  16.633  0.00  0.00    +0.000 A 
BRANCH  19  26
ATOM     25  C   UNL     1       7.846   5.199  13.170  0.00  0.00    +0.000 C 
ATOM     26  O   UNL     1       8.014   5.117  14.595  0.00  0.00    +0.000 OA
ENDBRANCH  19  26
BRANCH  24  27
ATOM     27  O   UNL     1       7.879   4.489  17.536  0.00  0.00    +0.000 OA
ATOM     28  C   UNL     1       7.937   5.368  18.633  0.00  0.00    +0.000 C 
ENDBRANCH  24  27
ENDBRANCH  17  22
ENDBRANCH   1  17
TORSDOF 5
ENDMDL
MODEL 8
REMARK VINA RESULT:      -8.3      1.740      2.753
REMARK  Name = 
REMARK  7 active torsions:
REMARK  status: ('A' for Active; 'I' for Inactive)
REMARK    1  A    between atoms: C_1  and  O_2
REMARK    2  A    between atoms: O_2  and  C_3
REMARK    3  A    between atoms: C_6  and  C_7
REMARK    4  A    between atoms: C_7  and  C_9
REMARK    5  A    between atoms: C_14  and  C_16
REMARK    6  A    between atoms: C_26  and  O_27
REMARK    7  A    between atoms: O_27  and  C_28
REMARK                            x       y       z     vdW  Elec       q    Type
REMARK                         _______ _______ _______ _____ _____    ______ ____
ROOT
ATOM      1  C   UNL     1       3.938   2.614  18.900  0.00  0.00    +0.000 C 
ATOM      2  C   UNL     1       3.320   2.366  17.526  0.00  0.00    +0.000 C 
ATOM      3  C   UNL     1       2.233   3.371  17.150  0.00  0.00    +0.000 C 
ATOM      4  C   UNL     1       1.382   3.922  18.304  0.00  0.00    +0.000 C 
ATOM      5  N   UNL     1       2.081   4.041  19.585  0.00  0.00    +0.000 N 
ATOM      6  C   UNL     1       2.113   5.082  20.526  0.00  0.00    +0.000 C 
ATOM      7  O   UNL     1       2.559   4.857  21.664  0.00  0.00    +0.000 OA
ATOM      8  C   UNL     1       2.834   2.842  19.930  0.00  0.00    +0.000 C 
ENDROOT
BRANCH   6   9
ATOM      9  C   UNL     1       1.788   6.519  20.281  0.00  0.00    +0.000 A 
ATOM     10  C   UNL     1       0.971   7.138  21.268  0.00  0.00    +0.000 A 
ATOM     11  C   UNL     1       0.609   8.483  21.203  0.00  0.00    +0.000 A 
ATOM     12  C   UNL     1       1.060   9.260  20.144  0.00  0.00    +0.000 A 
ATOM     13  C   UNL     1       1.809   8.658  19.130  0.00  0.00    +0.000 A 
ATOM     14 CL   UNL     1       2.310   9.623  17.791  0.00  0.00    +0.000 Cl
ATOM     15  C   UNL     1       2.133   7.290  19.174  0.00  0.00    +0.000 A 
ATOM     16  F   UNL     1       2.677   6.739  18.084  0.00  0.00    +0.000 F 
ENDBRANCH   6   9
BRANCH   1  17
ATOM     17  C   UNL     1       4.942   3.777  18.912  0.00  0.00    +0.000 C 
ATOM     18  O   UNL     1       5.302   4.354  19.937  0.00  0.00    +0.000 OA
BRANCH  17  22
ATOM     19  C   UNL     1       6.904   5.123  15.344  0.00  0.00    +0.000 A 
ATOM     20  C   UNL     1       6.201   3.905  15.335  0.00  0.00    +0.000 A 
ATOM     21  C   UNL     1       5.474   3.487  16.461  0.00  0.00    +0.000 A 
ATOM     22  C   UNL     1       5.436   4.296  17.589  0.00  0.00    +0.000 A 
ATOM     23  C   UNL     1       5.961   5.579  17.511  0.00  0.00    +0.000 A 
ATOM     24  C   UNL     1       6.689   6.002  16.412  0.00  0.00    +0.000 A 
BRANCH  19  26
ATOM     25  C   UNL     1       7.350   4.806  13.063  0.00  0.00    +0.000 C 
ATOM     26  O   UNL     1       7.702   5.466  14.290  0.00  0.00    +0.000 OA
ENDBRANCH  19  26
BRANCH  24  27
ATOM     27  O   UNL     1       7.125   7.275  16.625  0.00  0.00    +0.000 OA
ATOM     28  C   UNL     1       7.723   7.655  17.840  0.00  0.00    +0.000 C 
ENDBRANCH  24  27
ENDBRANCH  17  22
ENDBRANCH   1  17
TORSDOF 5
ENDMDL
MODEL 9
REMARK VINA RESULT:      -8.2      1.158      1.500
REMARK  Name = 
REMARK  7 active torsions:
REMARK  status: ('A' for Active; 'I' for Inactive)
REMARK    1  A    between atoms: C_1  and  O_2
REMARK    2  A    between atoms: O_2  and  C_3
REMARK    3  A    between atoms: C_6  and  C_7
REMARK    4  A    between atoms: C_7  and  C_9
REMARK    5  A    between atoms: C_14  and  C_16
REMARK    6  A    between atoms: C_26  and  O_27
REMARK    7  A    between atoms: O_27  and  C_28
REMARK                            x       y       z     vdW  Elec       q    Type
REMARK                         _______ _______ _______ _____ _____    ______ ____
ROOT
ATOM      1  C   UNL     1       2.969   2.382  18.610  0.00  0.00    +0.000 C 
ATOM      2  C   UNL     1       1.571   1.775  18.671  0.00  0.00    +0.000 C 
ATOM      3  C   UNL     1       0.509   2.729  19.214  0.00  0.00    +0.000 C 
ATOM      4  C   UNL     1       0.974   3.733  20.279  0.00  0.00    +0.000 C 
ATOM      5  N   UNL     1       2.362   4.179  20.144  0.00  0.00    +0.000 N 
ATOM      6  C   UNL     1       2.931   5.460  20.220  0.00  0.00    +0.000 C 
ATOM      7  O   UNL     1       4.164   5.569  20.340  0.00  0.00    +0.000 OA
ATOM      8  C   UNL     1       3.290   3.075  19.932  0.00  0.00    +0.000 C 
ENDROOT
BRANCH   6   9
ATOM      9  C   UNL     1       2.229   6.764  20.034  0.00  0.00    +0.000 A 
ATOM     10  C   UNL     1       1.359   7.147  21.092  0.00  0.00    +0.000 A 
ATOM     11  C   UNL     1       0.658   8.352  21.086  0.00  0.00    +0.000 A 
ATOM     12  C   UNL     1       0.809   9.223  20.015  0.00  0.00    +0.000 A 
ATOM     13  C   UNL     1       1.608   8.839  18.935  0.00  0.00    +0.000 A 
ATOM     14 CL   UNL     1       1.736   9.906  17.585  0.00  0.00    +0.000 Cl
ATOM     15  C   UNL     1       2.276   7.602  18.923  0.00  0.00    +0.000 A 
ATOM     16  F   UNL     1       2.857   7.214  17.782  0.00  0.00    +0.000 F 
ENDBRANCH   6   9
BRANCH   1  17
ATOM     17  C   UNL     1       3.162   3.346  17.429  0.00  0.00    +0.000 C 
ATOM     18  O   UNL     1       2.280   3.606  16.612  0.00  0.00    +0.000 OA
BRANCH  17  22
ATOM     19  C   UNL     1       6.797   5.540  16.823  0.00  0.00    +0.000 A 
ATOM     20  C   UNL     1       6.545   4.939  18.070  0.00  0.00    +0.000 A 
ATOM     21  C   UNL     1       5.408   4.140  18.266  0.00  0.00    +0.000 A 
ATOM     22  C   UNL     1       4.533   3.927  17.209  0.00  0.00    +0.000 A 
ATOM     23  C   UNL     1       4.898   4.354  15.940  0.00  0.00    +0.000 A 
ATOM     24  C   UNL     1       6.011   5.152  15.733  0.00  0.00    +0.000 A 
BRANCH  19  26
ATOM     25  C   UNL     1       7.767   7.551  17.546  0.00  0.00    +0.000 C 
ATOM     26  O   UNL     1       7.840   6.409  16.675  0.00  0.00    +0.000 OA
ENDBRANCH  19  26
BRANCH  24  27
ATOM     27  O   UNL     1       6.101   5.463  14.409  0.00  0.00    +0.000 OA
ATOM     28  C   UNL     1       6.671   4.572  13.481  0.00  0.00    +0.000 C 
ENDBRANCH  24  27
ENDBRANCH  17  22
ENDBRANCH   1  17
TORSDOF 5
ENDMDL
