MODEL 1
REMARK VINA RESULT:      -7.4      0.000      0.000
REMARK  Name = 
REMARK  9 active torsions:
REMARK  status: ('A' for Active; 'I' for Inactive)
REMARK    1  A    between atoms: C_1  and  N_2
REMARK    2  A    between atoms: N_2  and  C_3
REMARK    3  A    between atoms: C_3  and  C_4
REMARK    4  A    between atoms: C_4  and  O_5
REMARK    5  A    between atoms: C_6  and  C_8
REMARK    6  A    between atoms: C_11  and  C_12
REMARK    7  A    between atoms: C_12  and  C_13
REMARK    8  A    between atoms: C_21  and  C_22
REMARK    9  A    between atoms: C_21  and  C_23
REMARK                            x       y       z     vdW  Elec       q    Type
REMARK                         _______ _______ _______ _____ _____    ______ ____
ROOT
ATOM      1  C   UNL     1       0.673   9.666  18.982  0.00  0.00    +0.000 A 
ATOM      2  C   UNL     1       1.434   9.027  17.999  0.00  0.00    +0.000 A 
ATOM      3  C   UNL     1       2.171   7.874  18.285  0.00  0.00    +0.000 A 
ATOM      4  C   UNL     1       2.264   7.395  19.586  0.00  0.00    +0.000 A 
ATOM      5  C   UNL     1       1.515   8.042  20.589  0.00  0.00    +0.000 A 
ATOM      6  C   UNL     1       0.693   9.146  20.280  0.00  0.00    +0.000 A 
ENDROOT
BRANCH   1   9
ATOM      7  C   UNL     1      -0.676  13.232  18.724  0.00  0.00    +0.000 C 
ATOM      8  N   UNL     1       0.282  12.161  18.974  0.00  0.00    +0.000 N 
ATOM      9  C   UNL     1      -0.183  10.860  18.691  0.00  0.00    +0.000 C 
ATOM     10  O   UNL     1      -1.272  10.659  18.178  0.00  0.00    +0.000 OA
BRANCH   8  11
ATOM     11  C   UNL     1       1.642  12.548  19.408  0.00  0.00    +0.000 C 
BRANCH  11  12
ATOM     12  C   UNL     1       2.519  13.190  18.320  0.00  0.00    +0.000 C 
BRANCH  12  13
ATOM     13  O   UNL     1       2.700  12.286  17.234  0.00  0.00    +0.000 OA
ATOM     14  H   UNL     1       3.261  11.566  17.575  0.00  0.00    +0.000 HD
ENDBRANCH  12  13
ENDBRANCH  11  12
ENDBRANCH   8  11
ENDBRANCH   1   9
BRANCH   4  15
ATOM     15  C   UNL     1       3.140   6.190  19.887  0.00  0.00    +0.000 C 
BRANCH  15  16
ATOM     16  C   UNL     1       3.461   5.343  18.700  0.00  0.00    +0.000 A 
ATOM     17  O   UNL     1       2.736   4.184  18.598  0.00  0.00    +0.000 OA
ATOM     18  N   UNL     1       3.115   3.483  17.461  0.00  0.00    +0.000 NA
ATOM     19  C   UNL     1       4.056   4.237  16.888  0.00  0.00    +0.000 A 
ATOM     20  C   UNL     1       4.275   5.437  17.592  0.00  0.00    +0.000 A 
ATOM     21  C   UNL     1       5.201   6.447  17.134  0.00  0.00    +0.000 C 
ATOM     22  O   UNL     1       5.463   7.449  17.783  0.00  0.00    +0.000 OA
ATOM     23  C   UNL     1       5.766   6.205  15.720  0.00  0.00    +0.000 C 
ATOM     24  C   UNL     1       6.064   4.701  15.441  0.00  0.00    +0.000 C 
ATOM     25  C   UNL     1       6.550   4.515  13.990  0.00  0.00    +0.000 C 
ATOM     26  C   UNL     1       7.193   4.218  16.376  0.00  0.00    +0.000 C 
ATOM     27  C   UNL     1       4.768   3.853  15.639  0.00  0.00    +0.000 C 
ENDBRANCH  15  16
ENDBRANCH   4  15
TORSDOF 6
ENDMDL
MODEL 2
REMARK VINA RESULT:      -7.1      2.880      8.969
REMARK  Name = 
REMARK  9 active torsions:
REMARK  status: ('A' for Active; 'I' for Inactive)
REMARK    1  A    between atoms: C_1  and  N_2
REMARK    2  A    between atoms: N_2  and  C_3
REMARK    3  A    between atoms: C_3  and  C_4
REMARK    4  A    between atoms: C_4  and  O_5
REMARK    5  A    between atoms: C_6  and  C_8
REMARK    6  A    between atoms: C_11  and  C_12
REMARK    7  A    between atoms: C_12  and  C_13
REMARK    8  A    between atoms: C_21  and  C_22
REMARK    9  A    between atoms: C_21  and  C_23
REMARK                            x       y       z     vdW  Elec       q    Type
REMARK                         _______ _______ _______ _____ _____    ______ ____
ROOT
ATOM      1  C   UNL     1       2.119   5.211  18.875  0.00  0.00    +0.000 A 
ATOM      2  C   UNL     1       2.485   6.462  18.369  0.00  0.00    +0.000 A 
ATOM      3  C   UNL     1       2.361   7.623  19.137  0.00  0.00    +0.000 A 
ATOM      4  C   UNL     1       1.759   7.586  20.389  0.00  0.00    +0.000 A 
ATOM      5  C   UNL     1       1.369   6.333  20.903  0.00  0.00    +0.000 A 
ATOM      6  C   UNL     1       1.585   5.149  20.167  0.00  0.00    +0.000 A 
ENDROOT
BRANCH   1   9
ATOM      7  C   UNL     1       3.548   1.965  17.453  0.00  0.00    +0.000 C 
ATOM      8  N   UNL     1       3.439   3.130  18.325  0.00  0.00    +0.000 N 
ATOM      9  C   UNL     1       2.306   3.942  18.104  0.00  0.00    +0.000 C 
ATOM     10  O   UNL     1       1.432   3.632  17.311  0.00  0.00    +0.000 OA
BRANCH   8  11
ATOM     11  C   UNL     1       4.459   3.291  19.383  0.00  0.00    +0.000 C 
BRANCH  11  12
ATOM     12  C   UNL     1       4.378   2.269  20.530  0.00  0.00    +0.000 C 
BRANCH  12  13
ATOM     13  O   UNL     1       5.414   1.300  20.404  0.00  0.00    +0.000 OA
ATOM     14  H   UNL     1       5.111   0.518  20.901  0.00  0.00    +0.000 HD
ENDBRANCH  12  13
ENDBRANCH  11  12
ENDBRANCH   8  11
ENDBRANCH   1   9
BRANCH   4  15
ATOM     15  C   UNL     1       1.558   8.874  21.170  0.00  0.00    +0.000 C 
BRANCH  15  16
ATOM     16  C   UNL     1       0.524   9.790  20.602  0.00  0.00    +0.000 A 
ATOM     17  O   UNL     1       0.417   9.770  19.235  0.00  0.00    +0.000 OA
ATOM     18  N   UNL     1      -0.572  10.653  18.823  0.00  0.00    +0.000 NA
ATOM     19  C   UNL     1      -1.053  11.185  19.949  0.00  0.00    +0.000 A 
ATOM     20  C   UNL     1      -0.439  10.642  21.095  0.00  0.00    +0.000 A 
ATOM     21  C   UNL     1      -0.834  11.011  22.435  0.00  0.00    +0.000 C 
ATOM     22  O   UNL     1      -0.250  10.613  23.432  0.00  0.00    +0.000 OA
ATOM     23  C   UNL     1      -2.108  11.876  22.513  0.00  0.00    +0.000 C 
ATOM     24  C   UNL     1      -2.191  12.928  21.365  0.00  0.00    +0.000 C 
ATOM     25  C   UNL     1      -3.520  13.706  21.451  0.00  0.00    +0.000 C 
ATOM     26  C   UNL     1      -1.043  13.949  21.519  0.00  0.00    +0.000 C 
ATOM     27  C   UNL     1      -2.128  12.214  19.979  0.00  0.00    +0.000 C 
ENDBRANCH  15  16
ENDBRANCH   4  15
TORSDOF 6
ENDMDL
MODEL 3
REMARK VINA RESULT:      -7.0      1.245      2.358
REMARK  Name = 
REMARK  9 active torsions:
REMARK  status: ('A' for Active; 'I' for Inactive)
REMARK    1  A    between atoms: C_1  and  N_2
REMARK    2  A    between atoms: N_2  and  C_3
REMARK    3  A    between atoms: C_3  and  C_4
REMARK    4  A    between atoms: C_4  and  O_5
REMARK    5  A    between atoms: C_6  and  C_8
REMARK    6  A    between atoms: C_11  and  C_12
REMARK    7  A    between atoms: C_12  and  C_13
REMARK    8  A    between atoms: C_21  and  C_22
REMARK    9  A    between atoms: C_21  and  C_23
REMARK                            x       y       z     vdW  Elec       q    Type
REMARK                         _______ _______ _______ _____ _____    ______ ____
ROOT
ATOM      1  C   UNL     1       0.936   9.684  19.075  0.00  0.00    +0.000 A 
ATOM      2  C   UNL     1       0.966   9.098  20.343  0.00  0.00    +0.000 A 
ATOM      3  C   UNL     1       1.669   7.914  20.581  0.00  0.00    +0.000 A 
ATOM      4  C   UNL     1       2.264   7.219  19.536  0.00  0.00    +0.000 A 
ATOM      5  C   UNL     1       2.226   7.790  18.249  0.00  0.00    +0.000 A 
ATOM      6  C   UNL     1       1.600   9.036  18.028  0.00  0.00    +0.000 A 
ENDROOT
BRANCH   1   9
ATOM      7  C   UNL     1      -1.566  12.345  17.950  0.00  0.00    +0.000 C 
ATOM      8  N   UNL     1      -1.043  11.015  18.244  0.00  0.00    +0.000 N 
ATOM      9  C   UNL     1       0.252  10.988  18.803  0.00  0.00    +0.000 C 
ATOM     10  O   UNL     1       0.846  12.009  19.111  0.00  0.00    +0.000 OA
BRANCH   8  11
ATOM     11  C   UNL     1      -1.938   9.862  18.010  0.00  0.00    +0.000 C 
BRANCH  11  12
ATOM     12  C   UNL     1      -3.174  10.158  17.143  0.00  0.00    +0.000 C 
BRANCH  12  13
ATOM     13  O   UNL     1      -3.029   9.564  15.856  0.00  0.00    +0.000 OA
ATOM     14  H   UNL     1      -2.097   9.700  15.602  0.00  0.00    +0.000 HD
ENDBRANCH  12  13
ENDBRANCH  11  12
ENDBRANCH   8  11
ENDBRANCH   1   9
BRANCH   4  15
ATOM     15  C   UNL     1       2.950   5.889  19.805  0.00  0.00    +0.000 C 
BRANCH  15  16
ATOM     16  C   UNL     1       3.387   5.156  18.580  0.00  0.00    +0.000 A 
ATOM     17  O   UNL     1       2.699   4.000  18.318  0.00  0.00    +0.000 OA
ATOM     18  N   UNL     1       3.187   3.408  17.160  0.00  0.00    +0.000 NA
ATOM     19  C   UNL     1       4.154   4.224  16.736  0.00  0.00    +0.000 A 
ATOM     20  C   UNL     1       4.288   5.360  17.558  0.00  0.00    +0.000 A 
ATOM     21  C   UNL     1       5.225   6.421  17.268  0.00  0.00    +0.000 C 
ATOM     22  O   UNL     1       5.410   7.366  18.021  0.00  0.00    +0.000 OA
ATOM     23  C   UNL     1       5.910   6.314  15.891  0.00  0.00    +0.000 C 
ATOM     24  C   UNL     1       6.264   4.845  15.509  0.00  0.00    +0.000 C 
ATOM     25  C   UNL     1       6.872   4.796  14.093  0.00  0.00    +0.000 C 
ATOM     26  C   UNL     1       7.323   4.298  16.490  0.00  0.00    +0.000 C 
ATOM     27  C   UNL     1       4.976   3.963  15.522  0.00  0.00    +0.000 C 
ENDBRANCH  15  16
ENDBRANCH   4  15
TORSDOF 6
ENDMDL
MODEL 4
REMARK VINA RESULT:      -7.0      2.494      8.787
REMARK  Name = 
REMARK  9 active torsions:
REMARK  status: ('A' for Active; 'I' for Inactive)
REMARK    1  A    between atoms: C_1  and  N_2
REMARK    2  A    between atoms: N_2  and  C_3
REMARK    3  A    between atoms: C_3  and  C_4
REMARK    4  A    between atoms: C_4  and  O_5
REMARK    5  A    between atoms: C_6  and  C_8
REMARK    6  A    between atoms: C_11  and  C_12
REMARK    7  A    between atoms: C_12  and  C_13
REMARK    8  A    between atoms: C_21  and  C_22
REMARK    9  A    between atoms: C_21  and  C_23
REMARK                            x       y       z     vdW  Elec       q    Type
REMARK                         _______ _______ _______ _____ _____    ______ ____
ROOT
ATOM      1  C   UNL     1       2.175   5.299  18.993  0.00  0.00    +0.000 A 
ATOM      2  C   UNL     1       1.641   5.352  20.284  0.00  0.00    +0.000 A 
ATOM      3  C   UNL     1       1.358   6.571  20.906  0.00  0.00    +0.000 A 
ATOM      4  C   UNL     1       1.711   7.773  20.305  0.00  0.00    +0.000 A 
ATOM      5  C   UNL     1       2.267   7.733  19.012  0.00  0.00    +0.000 A 
ATOM      6  C   UNL     1       2.460   6.505  18.344  0.00  0.00    +0.000 A 
ENDROOT
BRANCH   1   9
ATOM      7  C   UNL     1       3.807   2.147  17.578  0.00  0.00    +0.000 C 
ATOM      8  N   UNL     1       3.662   3.347  18.395  0.00  0.00    +0.000 N 
ATOM      9  C   UNL     1       2.422   4.011  18.273  0.00  0.00    +0.000 C 
ATOM     10  O   UNL     1       1.506   3.553  17.609  0.00  0.00    +0.000 OA
BRANCH   8  11
ATOM     11  C   UNL     1       4.770   3.691  19.311  0.00  0.00    +0.000 C 
BRANCH  11  12
ATOM     12  C   UNL     1       5.789   4.701  18.755  0.00  0.00    +0.000 C 
BRANCH  12  13
ATOM     13  O   UNL     1       6.614   5.199  19.804  0.00  0.00    +0.000 OA
ATOM     14  H   UNL     1       6.437   6.157  19.852  0.00  0.00    +0.000 HD
ENDBRANCH  12  13
ENDBRANCH  11  12
ENDBRANCH   8  11
ENDBRANCH   1   9
BRANCH   4  15
ATOM     15  C   UNL     1       1.471   9.083  21.038  0.00  0.00    +0.000 C 
BRANCH  15  16
ATOM     16  C   UNL     1       0.397   9.937  20.449  0.00  0.00    +0.000 A 
ATOM     17  O   UNL     1       0.237   9.819  19.093  0.00  0.00    +0.000 OA
ATOM     18  N   UNL     1      -0.785  10.652  18.660  0.00  0.00    +0.000 NA
ATOM     19  C   UNL     1      -1.234  11.252  19.764  0.00  0.00    +0.000 A 
ATOM     20  C   UNL     1      -0.565  10.803  20.920  0.00  0.00    +0.000 A 
ATOM     21  C   UNL     1      -0.916  11.258  22.246  0.00  0.00    +0.000 C 
ATOM     22  O   UNL     1      -0.285  10.943  23.244  0.00  0.00    +0.000 OA
ATOM     23  C   UNL     1      -2.204  12.103  22.314  0.00  0.00    +0.000 C 
ATOM     24  C   UNL     1      -2.354  13.070  21.100  0.00  0.00    +0.000 C 
ATOM     25  C   UNL     1      -3.695  13.826  21.184  0.00  0.00    +0.000 C 
ATOM     26  C   UNL     1      -1.223  14.120  21.136  0.00  0.00    +0.000 C 
ATOM     27  C   UNL     1      -2.329  12.260  19.765  0.00  0.00    +0.000 C 
ENDBRANCH  15  16
ENDBRANCH   4  15
TORSDOF 6
ENDMDL
MODEL 5
REMARK VINA RESULT:      -6.9      2.776      9.179
REMARK  Name = 
REMARK  9 active torsions:
REMARK  status: ('A' for Active; 'I' for Inactive)
REMARK    1  A    between atoms: C_1  and  N_2
REMARK    2  A    between atoms: N_2  and  C_3
REMARK    3  A    between atoms: C_3  and  C_4
REMARK    4  A    between atoms: C_4  and  O_5
REMARK    5  A    between atoms: C_6  and  C_8
REMARK    6  A    between atoms: C_11  and  C_12
REMARK    7  A    between atoms: C_12  and  C_13
REMARK    8  A    between atoms: C_21  and  C_22
REMARK    9  A    between atoms: C_21  and  C_23
REMARK                            x       y       z     vdW  Elec       q    Type
REMARK                         _______ _______ _______ _____ _____    ______ ____
ROOT
ATOM      1  C   UNL     1       2.797   6.819  19.177  0.00  0.00    +0.000 A 
ATOM      2  C   UNL     1       2.871   7.494  17.955  0.00  0.00    +0.000 A 
ATOM      3  C   UNL     1       2.217   8.713  17.756  0.00  0.00    +0.000 A 
ATOM      4  C   UNL     1       1.376   9.235  18.731  0.00  0.00    +0.000 A 
ATOM      5  C   UNL     1       1.279   8.555  19.961  0.00  0.00    +0.000 A 
ATOM      6  C   UNL     1       2.018   7.376  20.197  0.00  0.00    +0.000 A 
ENDROOT
BRANCH   1   9
ATOM      7  C   UNL     1       3.686   3.161  19.833  0.00  0.00    +0.000 C 
ATOM      8  N   UNL     1       2.863   4.313  19.480  0.00  0.00    +0.000 N 
ATOM      9  C   UNL     1       3.543   5.549  19.445  0.00  0.00    +0.000 C 
ATOM     10  O   UNL     1       4.751   5.628  19.599  0.00  0.00    +0.000 OA
BRANCH   8  11
ATOM     11  C   UNL     1       1.452   4.061  19.121  0.00  0.00    +0.000 C 
BRANCH  11  12
ATOM     12  C   UNL     1       0.917   2.670  19.504  0.00  0.00    +0.000 C 
BRANCH  12  13
ATOM     13  O   UNL     1       0.586   1.928  18.334  0.00  0.00    +0.000 OA
ATOM     14  H   UNL     1       1.241   1.209  18.279  0.00  0.00    +0.000 HD
ENDBRANCH  12  13
ENDBRANCH  11  12
ENDBRANCH   8  11
ENDBRANCH   1   9
BRANCH   4  15
ATOM     15  C   UNL     1       0.609  10.519  18.459  0.00  0.00    +0.000 C 
BRANCH  15  16
ATOM     16  C   UNL     1       0.495  11.435  19.633  0.00  0.00    +0.000 A 
ATOM     17  O   UNL     1       1.685  11.798  20.206  0.00  0.00    +0.000 OA
ATOM     18  N   UNL     1       1.457  12.648  21.280  0.00  0.00    +0.000 NA
ATOM     19  C   UNL     1       0.132  12.793  21.330  0.00  0.00    +0.000 A 
ATOM     20  C   UNL     1      -0.518  12.098  20.291  0.00  0.00    +0.000 A 
ATOM     21  C   UNL     1      -1.948  12.154  20.096  0.00  0.00    +0.000 C 
ATOM     22  O   UNL     1      -2.529  11.485  19.253  0.00  0.00    +0.000 OA
ATOM     23  C   UNL     1      -2.676  13.190  20.975  0.00  0.00    +0.000 C 
ATOM     24  C   UNL     1      -2.089  13.273  22.417  0.00  0.00    +0.000 C 
ATOM     25  C   UNL     1      -2.804  14.378  23.220  0.00  0.00    +0.000 C 
ATOM     26  C   UNL     1      -2.331  11.935  23.149  0.00  0.00    +0.000 C 
ATOM     27  C   UNL     1      -0.567  13.615  22.356  0.00  0.00    +0.000 C 
ENDBRANCH  15  16
ENDBRANCH   4  15
TORSDOF 6
ENDMDL
MODEL 6
REMARK VINA RESULT:      -6.9      2.415      8.849
REMARK  Name = 
REMARK  9 active torsions:
REMARK  status: ('A' for Active; 'I' for Inactive)
REMARK    1  A    between atoms: C_1  and  N_2
REMARK    2  A    between atoms: N_2  and  C_3
REMARK    3  A    between atoms: C_3  and  C_4
REMARK    4  A    between atoms: C_4  and  O_5
REMARK    5  A    between atoms: C_6  and  C_8
REMARK    6  A    between atoms: C_11  and  C_12
REMARK    7  A    between atoms: C_12  and  C_13
REMARK    8  A    between atoms: C_21  and  C_22
REMARK    9  A    between atoms: C_21  and  C_23
REMARK                            x       y       z     vdW  Elec       q    Type
REMARK                         _______ _______ _______ _____ _____    ______ ____
ROOT
ATOM      1  C   UNL     1       2.207   6.578  19.524  0.00  0.00    +0.000 A 
ATOM      2  C   UNL     1       1.721   7.517  20.437  0.00  0.00    +0.000 A 
ATOM      3  C   UNL     1       1.431   8.828  20.049  0.00  0.00    +0.000 A 
ATOM      4  C   UNL     1       1.729   9.271  18.766  0.00  0.00    +0.000 A 
ATOM      5  C   UNL     1       2.236   8.338  17.841  0.00  0.00    +0.000 A 
ATOM      6  C   UNL     1       2.436   6.990  18.206  0.00  0.00    +0.000 A 
ENDROOT
BRANCH   1   9
ATOM      7  C   UNL     1       3.814   3.140  19.978  0.00  0.00    +0.000 C 
ATOM      8  N   UNL     1       3.720   4.560  19.654  0.00  0.00    +0.000 N 
ATOM      9  C   UNL     1       2.460   5.149  19.892  0.00  0.00    +0.000 C 
ATOM     10  O   UNL     1       1.550   4.536  20.425  0.00  0.00    +0.000 OA
BRANCH   8  11
ATOM     11  C   UNL     1       4.951   5.240  19.199  0.00  0.00    +0.000 C 
BRANCH  11  12
ATOM     12  C   UNL     1       5.639   4.603  17.979  0.00  0.00    +0.000 C 
BRANCH  12  13
ATOM     13  O   UNL     1       6.975   4.229  18.304  0.00  0.00    +0.000 OA
ATOM     14  H   UNL     1       7.539   4.628  17.617  0.00  0.00    +0.000 HD
ENDBRANCH  12  13
ENDBRANCH  11  12
ENDBRANCH   8  11
ENDBRANCH   1   9
BRANCH   4  15
ATOM     15  C   UNL     1       1.483  10.723  18.392  0.00  0.00    +0.000 C 
BRANCH  15  16
ATOM     16  C   UNL     1       1.134  11.611  19.541  0.00  0.00    +0.000 A 
ATOM     17  O   UNL     1       2.187  12.296  20.089  0.00  0.00    +0.000 OA
ATOM     18  N   UNL     1       1.744  13.087  21.141  0.00  0.00    +0.000 NA
ATOM     19  C   UNL     1       0.429  12.873  21.205  0.00  0.00    +0.000 A 
ATOM     20  C   UNL     1      -0.016  11.999  20.194  0.00  0.00    +0.000 A 
ATOM     21  C   UNL     1      -1.410  11.663  20.016  0.00  0.00    +0.000 C 
ATOM     22  O   UNL     1      -1.795  10.838  19.201  0.00  0.00    +0.000 OA
ATOM     23  C   UNL     1      -2.385  12.493  20.876  0.00  0.00    +0.000 C 
ATOM     24  C   UNL     1      -1.833  12.774  22.307  0.00  0.00    +0.000 C 
ATOM     25  C   UNL     1      -2.814  13.672  23.088  0.00  0.00    +0.000 C 
ATOM     26  C   UNL     1      -1.704  11.444  23.079  0.00  0.00    +0.000 C 
ATOM     27  C   UNL     1      -0.459  13.509  22.216  0.00  0.00    +0.000 C 
ENDBRANCH  15  16
ENDBRANCH   4  15
TORSDOF 6
ENDMDL
MODEL 7
REMARK VINA RESULT:      -6.9      1.792      8.392
REMARK  Name = 
REMARK  9 active torsions:
REMARK  status: ('A' for Active; 'I' for Inactive)
REMARK    1  A    between atoms: C_1  and  N_2
REMARK    2  A    between atoms: N_2  and  C_3
REMARK    3  A    between atoms: C_3  and  C_4
REMARK    4  A    between atoms: C_4  and  O_5
REMARK    5  A    between atoms: C_6  and  C_8
REMARK    6  A    between atoms: C_11  and  C_12
REMARK    7  A    between atoms: C_12  and  C_13
REMARK    8  A    between atoms: C_21  and  C_22
REMARK    9  A    between atoms: C_21  and  C_23
REMARK                            x       y       z     vdW  Elec       q    Type
REMARK                         _______ _______ _______ _____ _____    ______ ____
ROOT
ATOM      1  C   UNL     1       2.817   7.158  18.423  0.00  0.00    +0.000 A 
ATOM      2  C   UNL     1       2.337   8.312  17.797  0.00  0.00    +0.000 A 
ATOM      3  C   UNL     1       1.558   9.244  18.489  0.00  0.00    +0.000 A 
ATOM      4  C   UNL     1       1.139   8.994  19.790  0.00  0.00    +0.000 A 
ATOM      5  C   UNL     1       1.602   7.826  20.425  0.00  0.00    +0.000 A 
ATOM      6  C   UNL     1       2.469   6.934  19.759  0.00  0.00    +0.000 A 
ENDROOT
BRANCH   1   9
ATOM      7  C   UNL     1       4.284   3.966  16.917  0.00  0.00    +0.000 C 
ATOM      8  N   UNL     1       3.291   4.845  17.526  0.00  0.00    +0.000 N 
ATOM      9  C   UNL     1       3.711   6.176  17.731  0.00  0.00    +0.000 C 
ATOM     10  O   UNL     1       4.790   6.583  17.333  0.00  0.00    +0.000 OA
BRANCH   8  11
ATOM     11  C   UNL     1       1.947   4.284  17.783  0.00  0.00    +0.000 C 
BRANCH  11  12
ATOM     12  C   UNL     1       1.888   3.199  18.872  0.00  0.00    +0.000 C 
BRANCH  12  13
ATOM     13  O   UNL     1       1.683   1.918  18.283  0.00  0.00    +0.000 OA
ATOM     14  H   UNL     1       2.117   1.952  17.410  0.00  0.00    +0.000 HD
ENDBRANCH  12  13
ENDBRANCH  11  12
ENDBRANCH   8  11
ENDBRANCH   1   9
BRANCH   4  15
ATOM     15  C   UNL     1       0.223   9.983  20.492  0.00  0.00    +0.000 C 
BRANCH  15  16
ATOM     16  C   UNL     1      -0.016  11.251  19.740  0.00  0.00    +0.000 A 
ATOM     17  O   UNL     1      -1.036  11.202  18.826  0.00  0.00    +0.000 OA
ATOM     18  N   UNL     1      -1.168  12.430  18.193  0.00  0.00    +0.000 NA
ATOM     19  C   UNL     1      -0.231  13.205  18.743  0.00  0.00    +0.000 A 
ATOM     20  C   UNL     1       0.485  12.534  19.754  0.00  0.00    +0.000 A 
ATOM     21  C   UNL     1       1.508  13.183  20.542  0.00  0.00    +0.000 C 
ATOM     22  O   UNL     1       2.194  12.586  21.358  0.00  0.00    +0.000 OA
ATOM     23  C   UNL     1       1.607  14.708  20.334  0.00  0.00    +0.000 C 
ATOM     24  C   UNL     1       1.392  15.127  18.848  0.00  0.00    +0.000 C 
ATOM     25  C   UNL     1       1.424  16.664  18.720  0.00  0.00    +0.000 C 
ATOM     26  C   UNL     1       2.540  14.564  17.983  0.00  0.00    +0.000 C 
ATOM     27  C   UNL     1       0.005  14.620  18.344  0.00  0.00    +0.000 C 
ENDBRANCH  15  16
ENDBRANCH   4  15
TORSDOF 6
ENDMDL
MODEL 8
REMARK VINA RESULT:      -6.8      2.052      8.782
REMARK  Name = 
REMARK  9 active torsions:
REMARK  status: ('A' for Active; 'I' for Inactive)
REMARK    1  A    between atoms: C_1  and  N_2
REMARK    2  A    between atoms: N_2  and  C_3
REMARK    3  A    between atoms: C_3  and  C_4
REMARK    4  A    between atoms: C_4  and  O_5
REMARK    5  A    between atoms: C_6  and  C_8
REMARK    6  A    between atoms: C_11  and  C_12
REMARK    7  A    between atoms: C_12  and  C_13
REMARK    8  A    between atoms: C_21  and  C_22
REMARK    9  A    between atoms: C_21  and  C_23
REMARK                            x       y       z     vdW  Elec       q    Type
REMARK                         _______ _______ _______ _____ _____    ______ ____
ROOT
ATOM      1  C   UNL     1       2.648   7.176  18.609  0.00  0.00    +0.000 A 
ATOM      2  C   UNL     1       2.138   8.246  17.868  0.00  0.00    +0.000 A 
ATOM      3  C   UNL     1       1.355   9.238  18.465  0.00  0.00    +0.000 A 
ATOM      4  C   UNL     1       0.961   9.128  19.793  0.00  0.00    +0.000 A 
ATOM      5  C   UNL     1       1.453   8.044  20.546  0.00  0.00    +0.000 A 
ATOM      6  C   UNL     1       2.325   7.097  19.968  0.00  0.00    +0.000 A 
ENDROOT
BRANCH   1   9
ATOM      7  C   UNL     1       4.052   3.901  17.228  0.00  0.00    +0.000 C 
ATOM      8  N   UNL     1       3.058   4.846  17.725  0.00  0.00    +0.000 N 
ATOM      9  C   UNL     1       3.548   6.138  18.015  0.00  0.00    +0.000 C 
ATOM     10  O   UNL     1       4.697   6.463  17.770  0.00  0.00    +0.000 OA
BRANCH   8  11
ATOM     11  C   UNL     1       1.653   4.390  17.791  0.00  0.00    +0.000 C 
BRANCH  11  12
ATOM     12  C   UNL     1       1.335   3.419  18.942  0.00  0.00    +0.000 C 
BRANCH  12  13
ATOM     13  O   UNL     1       1.278   2.080  18.458  0.00  0.00    +0.000 OA
ATOM     14  H   UNL     1       1.279   2.147  17.485  0.00  0.00    +0.000 HD
ENDBRANCH  12  13
ENDBRANCH  11  12
ENDBRANCH   8  11
ENDBRANCH   1   9
BRANCH   4  15
ATOM     15  C   UNL     1       0.039  10.174  20.397  0.00  0.00    +0.000 C 
BRANCH  15  16
ATOM     16  C   UNL     1       0.619  11.549  20.464  0.00  0.00    +0.000 A 
ATOM     17  O   UNL     1       1.651  11.702  21.354  0.00  0.00    +0.000 OA
ATOM     18  N   UNL     1       2.110  13.012  21.328  0.00  0.00    +0.000 NA
ATOM     19  C   UNL     1       1.356  13.626  20.415  0.00  0.00    +0.000 A 
ATOM     20  C   UNL     1       0.441  12.745  19.804  0.00  0.00    +0.000 A 
ATOM     21  C   UNL     1      -0.442  13.159  18.739  0.00  0.00    +0.000 C 
ATOM     22  O   UNL     1      -1.299  12.427  18.265  0.00  0.00    +0.000 OA
ATOM     23  C   UNL     1      -0.160  14.570  18.184  0.00  0.00    +0.000 C 
ATOM     24  C   UNL     1       0.237  15.586  19.298  0.00  0.00    +0.000 C 
ATOM     25  C   UNL     1       0.582  16.952  18.673  0.00  0.00    +0.000 C 
ATOM     26  C   UNL     1      -0.960  15.798  20.251  0.00  0.00    +0.000 C 
ATOM     27  C   UNL     1       1.489  15.068  20.073  0.00  0.00    +0.000 C 
ENDBRANCH  15  16
ENDBRANCH   4  15
TORSDOF 6
ENDMDL
MODEL 9
REMARK VINA RESULT:      -6.8      1.965      8.450
REMARK  Name = 
REMARK  9 active torsions:
REMARK  status: ('A' for Active; 'I' for Inactive)
REMARK    1  A    between atoms: C_1  and  N_2
REMARK    2  A    between atoms: N_2  and  C_3
REMARK    3  A    between atoms: C_3  and  C_4
REMARK    4  A    between atoms: C_4  and  O_5
REMARK    5  A    between atoms: C_6  and  C_8
REMARK    6  A    between atoms: C_11  and  C_12
REMARK    7  A    between atoms: C_12  and  C_13
REMARK    8  A    between atoms: C_21  and  C_22
REMARK    9  A    between atoms: C_21  and  C_23
REMARK                            x       y       z     vdW  Elec       q    Type
REMARK                         _______ _______ _______ _____ _____    ______ ____
ROOT
ATOM      1  C   UNL     1       2.596   7.214  18.605  0.00  0.00    +0.000 A 
ATOM      2  C   UNL     1       2.294   7.122  19.967  0.00  0.00    +0.000 A 
ATOM      3  C   UNL     1       1.472   8.061  20.597  0.00  0.00    +0.000 A 
ATOM      4  C   UNL     1       1.025   9.184  19.912  0.00  0.00    +0.000 A 
ATOM      5  C   UNL     1       1.337   9.299  18.544  0.00  0.00    +0.000 A 
ATOM      6  C   UNL     1       2.084   8.299  17.885  0.00  0.00    +0.000 A 
ENDROOT
BRANCH   1   9
ATOM      7  C   UNL     1       3.890   3.929  17.145  0.00  0.00    +0.000 C 
ATOM      8  N   UNL     1       2.965   4.851  17.795  0.00  0.00    +0.000 N 
ATOM      9  C   UNL     1       3.413   6.186  17.887  0.00  0.00    +0.000 C 
ATOM     10  O   UNL     1       4.454   6.557  17.369  0.00  0.00    +0.000 OA
BRANCH   8  11
ATOM     11  C   UNL     1       1.647   4.323  18.205  0.00  0.00    +0.000 C 
BRANCH  11  12
ATOM     12  C   UNL     1       1.693   3.158  19.210  0.00  0.00    +0.000 C 
BRANCH  12  13
ATOM     13  O   UNL     1       0.435   3.020  19.864  0.00  0.00    +0.000 OA
ATOM     14  H   UNL     1       0.619   2.557  20.702  0.00  0.00    +0.000 HD
ENDBRANCH  12  13
ENDBRANCH  11  12
ENDBRANCH   8  11
ENDBRANCH   1   9
BRANCH   4  15
ATOM     15  C   UNL     1       0.203  10.236  20.641  0.00  0.00    +0.000 C 
BRANCH  15  16
ATOM     16  C   UNL     1      -0.015  11.497  19.871  0.00  0.00    +0.000 A 
ATOM     17  O   UNL     1      -1.082  11.476  19.010  0.00  0.00    +0.000 OA
ATOM     18  N   UNL     1      -1.188  12.695  18.356  0.00  0.00    +0.000 NA
ATOM     19  C   UNL     1      -0.191  13.437  18.841  0.00  0.00    +0.000 A 
ATOM     20  C   UNL     1       0.544  12.755  19.831  0.00  0.00    +0.000 A 
ATOM     21  C   UNL     1       1.635  13.372  20.550  0.00  0.00    +0.000 C 
ATOM     22  O   UNL     1       2.333  12.761  21.346  0.00  0.00    +0.000 OA
ATOM     23  C   UNL     1       1.793  14.885  20.302  0.00  0.00    +0.000 C 
ATOM     24  C   UNL     1       1.523  15.282  18.819  0.00  0.00    +0.000 C 
ATOM     25  C   UNL     1       1.618  16.812  18.652  0.00  0.00    +0.000 C 
ATOM     26  C   UNL     1       2.599  14.647  17.912  0.00  0.00    +0.000 C 
ATOM     27  C   UNL     1       0.090  14.830  18.396  0.00  0.00    +0.000 C 
ENDBRANCH  15  16
ENDBRANCH   4  15
TORSDOF 6
ENDMDL
