MODEL 1
REMARK VINA RESULT:      -6.8      0.000      0.000
REMARK  Name = 
REMARK  3 active torsions:
REMARK  status: ('A' for Active; 'I' for Inactive)
REMARK    1  A    between atoms: C_1  and  O_2
REMARK    2  A    between atoms: O_2  and  C_3
REMARK    3  A    between atoms: C_6  and  C_8
REMARK                            x       y       z     vdW  Elec       q    Type
REMARK                         _______ _______ _______ _____ _____    ______ ____
ROOT
ATOM      1  C   UNL     1       2.766   5.017  18.247  0.00  0.00    +0.000 C 
ATOM      2  C   UNL     1       3.871   4.889  17.191  0.00  0.00    +0.000 C 
ATOM      3  N   UNL     1       5.093   4.568  17.904  0.00  0.00    +0.000 N 
ATOM      4  C   UNL     1       6.371   4.473  17.387  0.00  0.00    +0.000 C 
ATOM      5  O   UNL     1       7.351   4.394  18.133  0.00  0.00    +0.000 OA
ATOM      6  C   UNL     1       4.818   4.353  19.309  0.00  0.00    +0.000 C 
ATOM      7  C   UNL     1       4.466   2.897  19.614  0.00  0.00    +0.000 C 
ATOM      8  O   UNL     1       3.319   2.897  20.477  0.00  0.00    +0.000 OA
ATOM      9  C   UNL     1       2.882   4.250  20.666  0.00  0.00    +0.000 C 
ATOM     10  C   UNL     1       3.523   5.088  19.582  0.00  0.00    +0.000 C 
ENDROOT
BRANCH   4  11
ATOM     11  C   UNL     1       6.537   4.493  15.945  0.00  0.00    +0.000 A 
ATOM     12  C   UNL     1       6.014   3.699  14.936  0.00  0.00    +0.000 A 
ATOM     13  C   UNL     1       6.534   4.135  13.699  0.00  0.00    +0.000 A 
ATOM     14  C   UNL     1       7.410   5.160  13.971  0.00  0.00    +0.000 A 
ATOM     15  N   UNL     1       7.425   5.351  15.326  0.00  0.00    +0.000 N 
ATOM     16  H   UNL     1       8.001   6.020  15.824  0.00  0.00    +0.000 HD
ENDBRANCH   4  11
BRANCH   1  18
ATOM     17  C   UNL     1       2.626   7.374  18.510  0.00  0.00    +0.000 C 
ATOM     18  O   UNL     1       1.963   6.186  18.086  0.00  0.00    +0.000 OA
ENDBRANCH   1  18
TORSDOF 2
ENDMDL
MODEL 2
REMARK VINA RESULT:      -6.7      2.120      5.175
REMARK  Name = 
REMARK  3 active torsions:
REMARK  status: ('A' for Active; 'I' for Inactive)
REMARK    1  A    between atoms: C_1  and  O_2
REMARK    2  A    between atoms: O_2  and  C_3
REMARK    3  A    between atoms: C_6  and  C_8
REMARK                            x       y       z     vdW  Elec       q    Type
REMARK                         _______ _______ _______ _____ _____    ______ ____
ROOT
ATOM      1  C   UNL     1       5.211   5.538  16.512  0.00  0.00    +0.000 C 
ATOM      2  C   UNL     1       4.130   4.783  17.294  0.00  0.00    +0.000 C 
ATOM      3  N   UNL     1       4.811   4.051  18.346  0.00  0.00    +0.000 N 
ATOM      4  C   UNL     1       4.265   3.139  19.228  0.00  0.00    +0.000 C 
ATOM      5  O   UNL     1       4.988   2.435  19.939  0.00  0.00    +0.000 OA
ATOM      6  C   UNL     1       6.219   4.390  18.369  0.00  0.00    +0.000 C 
ATOM      7  C   UNL     1       6.510   5.595  19.262  0.00  0.00    +0.000 C 
ATOM      8  O   UNL     1       7.397   6.466  18.545  0.00  0.00    +0.000 OA
ATOM      9  C   UNL     1       7.616   5.926  17.234  0.00  0.00    +0.000 C 
ATOM     10  C   UNL     1       6.531   4.904  16.979  0.00  0.00    +0.000 C 
ENDROOT
BRANCH   4  11
ATOM     11  C   UNL     1       2.820   3.009  19.284  0.00  0.00    +0.000 A 
ATOM     12  C   UNL     1       1.860   3.625  20.071  0.00  0.00    +0.000 A 
ATOM     13  C   UNL     1       0.593   3.101  19.735  0.00  0.00    +0.000 A 
ATOM     14  C   UNL     1       0.800   2.134  18.779  0.00  0.00    +0.000 A 
ATOM     15  N   UNL     1       2.144   2.066  18.533  0.00  0.00    +0.000 N 
ATOM     16  H   UNL     1       2.599   1.423  17.896  0.00  0.00    +0.000 HD
ENDBRANCH   4  11
BRANCH   1  18
ATOM     17  C   UNL     1       5.760   4.249  14.592  0.00  0.00    +0.000 C 
ATOM     18  O   UNL     1       5.086   5.399  15.096  0.00  0.00    +0.000 OA
ENDBRANCH   1  18
TORSDOF 2
ENDMDL
MODEL 3
REMARK VINA RESULT:      -6.6      2.092      3.327
REMARK  Name = 
REMARK  3 active torsions:
REMARK  status: ('A' for Active; 'I' for Inactive)
REMARK    1  A    between atoms: C_1  and  O_2
REMARK    2  A    between atoms: O_2  and  C_3
REMARK    3  A    between atoms: C_6  and  C_8
REMARK                            x       y       z     vdW  Elec       q    Type
REMARK                         _______ _______ _______ _____ _____    ______ ____
ROOT
ATOM      1  C   UNL     1       4.661   4.522  17.342  0.00  0.00    +0.000 C 
ATOM      2  C   UNL     1       4.916   4.141  15.879  0.00  0.00    +0.000 C 
ATOM      3  N   UNL     1       6.174   4.758  15.502  0.00  0.00    +0.000 N 
ATOM      4  C   UNL     1       6.754   4.792  14.248  0.00  0.00    +0.000 C 
ATOM      5  O   UNL     1       7.722   5.522  14.019  0.00  0.00    +0.000 OA
ATOM      6  C   UNL     1       6.794   5.386  16.649  0.00  0.00    +0.000 C 
ATOM      7  C   UNL     1       7.700   4.424  17.417  0.00  0.00    +0.000 C 
ATOM      8  O   UNL     1       7.417   4.579  18.816  0.00  0.00    +0.000 OA
ATOM      9  C   UNL     1       6.340   5.515  18.968  0.00  0.00    +0.000 C 
ATOM     10  C   UNL     1       5.665   5.650  17.622  0.00  0.00    +0.000 C 
ENDROOT
BRANCH   4  11
ATOM     11  C   UNL     1       6.184   3.967  13.199  0.00  0.00    +0.000 A 
ATOM     12  C   UNL     1       4.911   3.903  12.653  0.00  0.00    +0.000 A 
ATOM     13  C   UNL     1       4.888   2.889  11.672  0.00  0.00    +0.000 A 
ATOM     14  C   UNL     1       6.136   2.310  11.665  0.00  0.00    +0.000 A 
ATOM     15  N   UNL     1       6.900   2.946  12.604  0.00  0.00    +0.000 N 
ATOM     16  H   UNL     1       7.857   2.715  12.845  0.00  0.00    +0.000 HD
ENDBRANCH   4  11
BRANCH   1  18
ATOM     17  C   UNL     1       2.380   3.932  17.657  0.00  0.00    +0.000 C 
ATOM     18  O   UNL     1       3.333   4.989  17.582  0.00  0.00    +0.000 OA
ENDBRANCH   1  18
TORSDOF 2
ENDMDL
MODEL 4
REMARK VINA RESULT:      -6.4      2.109      5.150
REMARK  Name = 
REMARK  3 active torsions:
REMARK  status: ('A' for Active; 'I' for Inactive)
REMARK    1  A    between atoms: C_1  and  O_2
REMARK    2  A    between atoms: O_2  and  C_3
REMARK    3  A    between atoms: C_6  and  C_8
REMARK                            x       y       z     vdW  Elec       q    Type
REMARK                         _______ _______ _______ _____ _____    ______ ____
ROOT
ATOM      1  C   UNL     1       4.483   6.595  17.707  0.00  0.00    +0.000 C 
ATOM      2  C   UNL     1       3.742   5.544  18.544  0.00  0.00    +0.000 C 
ATOM      3  N   UNL     1       4.098   4.249  17.995  0.00  0.00    +0.000 N 
ATOM      4  C   UNL     1       3.585   3.015  18.346  0.00  0.00    +0.000 C 
ATOM      5  O   UNL     1       3.822   2.014  17.664  0.00  0.00    +0.000 OA
ATOM      6  C   UNL     1       5.106   4.394  16.966  0.00  0.00    +0.000 C 
ATOM      7  C   UNL     1       6.524   4.346  17.534  0.00  0.00    +0.000 C 
ATOM      8  O   UNL     1       7.271   5.414  16.932  0.00  0.00    +0.000 OA
ATOM      9  C   UNL     1       6.395   6.174  16.089  0.00  0.00    +0.000 C 
ATOM     10  C   UNL     1       4.976   5.821  16.475  0.00  0.00    +0.000 C 
ENDROOT
BRANCH   4  11
ATOM     11  C   UNL     1       2.738   2.926  19.522  0.00  0.00    +0.000 A 
ATOM     12  C   UNL     1       1.376   3.103  19.704  0.00  0.00    +0.000 A 
ATOM     13  C   UNL     1       1.074   2.931  21.072  0.00  0.00    +0.000 A 
ATOM     14  C   UNL     1       2.265   2.698  21.719  0.00  0.00    +0.000 A 
ATOM     15  N   UNL     1       3.264   2.723  20.784  0.00  0.00    +0.000 N 
ATOM     16  H   UNL     1       4.254   2.613  20.970  0.00  0.00    +0.000 HD
ENDBRANCH   4  11
BRANCH   1  18
ATOM     17  C   UNL     1       2.494   7.831  18.112  0.00  0.00    +0.000 C 
ATOM     18  O   UNL     1       3.650   7.678  17.292  0.00  0.00    +0.000 OA
ENDBRANCH   1  18
TORSDOF 2
ENDMDL
MODEL 5
REMARK VINA RESULT:      -6.4      2.224      3.582
REMARK  Name = 
REMARK  3 active torsions:
REMARK  status: ('A' for Active; 'I' for Inactive)
REMARK    1  A    between atoms: C_1  and  O_2
REMARK    2  A    between atoms: O_2  and  C_3
REMARK    3  A    between atoms: C_6  and  C_8
REMARK                            x       y       z     vdW  Elec       q    Type
REMARK                         _______ _______ _______ _____ _____    ______ ____
ROOT
ATOM      1  C   UNL     1       3.423   3.221  19.970  0.00  0.00    +0.000 C 
ATOM      2  C   UNL     1       4.517   4.121  19.382  0.00  0.00    +0.000 C 
ATOM      3  N   UNL     1       4.449   3.971  17.940  0.00  0.00    +0.000 N 
ATOM      4  C   UNL     1       5.311   4.495  16.997  0.00  0.00    +0.000 C 
ATOM      5  O   UNL     1       5.262   4.127  15.820  0.00  0.00    +0.000 OA
ATOM      6  C   UNL     1       3.314   3.152  17.569  0.00  0.00    +0.000 C 
ATOM      7  C   UNL     1       2.045   3.979  17.366  0.00  0.00    +0.000 C 
ATOM      8  O   UNL     1       0.970   3.300  18.033  0.00  0.00    +0.000 OA
ATOM      9  C   UNL     1       1.498   2.148  18.706  0.00  0.00    +0.000 C 
ATOM     10  C   UNL     1       2.997   2.325  18.797  0.00  0.00    +0.000 C 
ENDROOT
BRANCH   4  11
ATOM     11  C   UNL     1       6.296   5.473  17.426  0.00  0.00    +0.000 A 
ATOM     12  C   UNL     1       7.241   5.459  18.439  0.00  0.00    +0.000 A 
ATOM     13  C   UNL     1       7.923   6.694  18.441  0.00  0.00    +0.000 A 
ATOM     14  C   UNL     1       7.352   7.469  17.458  0.00  0.00    +0.000 A 
ATOM     15  N   UNL     1       6.357   6.736  16.871  0.00  0.00    +0.000 N 
ATOM     16  H   UNL     1       5.740   7.058  16.133  0.00  0.00    +0.000 HD
ENDBRANCH   4  11
BRANCH   1  18
ATOM     17  C   UNL     1       4.972   1.571  20.693  0.00  0.00    +0.000 C 
ATOM     18  O   UNL     1       3.878   2.410  21.053  0.00  0.00    +0.000 OA
ENDBRANCH   1  18
TORSDOF 2
ENDMDL
MODEL 6
REMARK VINA RESULT:      -6.4      1.893      5.639
REMARK  Name = 
REMARK  3 active torsions:
REMARK  status: ('A' for Active; 'I' for Inactive)
REMARK    1  A    between atoms: C_1  and  O_2
REMARK    2  A    between atoms: O_2  and  C_3
REMARK    3  A    between atoms: C_6  and  C_8
REMARK                            x       y       z     vdW  Elec       q    Type
REMARK                         _______ _______ _______ _____ _____    ______ ____
ROOT
ATOM      1  C   UNL     1       6.753   4.378  17.831  0.00  0.00    +0.000 C 
ATOM      2  C   UNL     1       5.447   4.177  18.608  0.00  0.00    +0.000 C 
ATOM      3  N   UNL     1       4.419   4.911  17.894  0.00  0.00    +0.000 N 
ATOM      4  C   UNL     1       3.109   5.120  18.279  0.00  0.00    +0.000 C 
ATOM      5  O   UNL     1       2.395   5.931  17.683  0.00  0.00    +0.000 OA
ATOM      6  C   UNL     1       4.948   5.448  16.657  0.00  0.00    +0.000 C 
ATOM      7  C   UNL     1       4.809   4.468  15.493  0.00  0.00    +0.000 C 
ATOM      8  O   UNL     1       6.056   4.451  14.784  0.00  0.00    +0.000 OA
ATOM      9  C   UNL     1       6.991   5.294  15.473  0.00  0.00    +0.000 C 
ATOM     10  C   UNL     1       6.446   5.531  16.863  0.00  0.00    +0.000 C 
ENDROOT
BRANCH   4  11
ATOM     11  C   UNL     1       2.596   4.379  19.418  0.00  0.00    +0.000 A 
ATOM     12  C   UNL     1       1.843   3.219  19.512  0.00  0.00    +0.000 A 
ATOM     13  C   UNL     1       1.587   2.952  20.874  0.00  0.00    +0.000 A 
ATOM     14  C   UNL     1       2.147   3.981  21.595  0.00  0.00    +0.000 A 
ATOM     15  N   UNL     1       2.728   4.848  20.711  0.00  0.00    +0.000 N 
ATOM     16  H   UNL     1       3.192   5.717  20.950  0.00  0.00    +0.000 HD
ENDBRANCH   4  11
BRANCH   1  18
ATOM     17  C   UNL     1       7.851   6.105  19.040  0.00  0.00    +0.000 C 
ATOM     18  O   UNL     1       7.858   4.730  18.663  0.00  0.00    +0.000 OA
ENDBRANCH   1  18
TORSDOF 2
ENDMDL
MODEL 7
REMARK VINA RESULT:      -6.4      1.196      1.450
REMARK  Name = 
REMARK  3 active torsions:
REMARK  status: ('A' for Active; 'I' for Inactive)
REMARK    1  A    between atoms: C_1  and  O_2
REMARK    2  A    between atoms: O_2  and  C_3
REMARK    3  A    between atoms: C_6  and  C_8
REMARK                            x       y       z     vdW  Elec       q    Type
REMARK                         _______ _______ _______ _____ _____    ______ ____
ROOT
ATOM      1  C   UNL     1       2.294   6.030  18.322  0.00  0.00    +0.000 C 
ATOM      2  C   UNL     1       3.513   5.620  17.486  0.00  0.00    +0.000 C 
ATOM      3  N   UNL     1       4.474   5.043  18.407  0.00  0.00    +0.000 N 
ATOM      4  C   UNL     1       5.767   4.639  18.133  0.00  0.00    +0.000 C 
ATOM      5  O   UNL     1       6.548   4.355  19.045  0.00  0.00    +0.000 OA
ATOM      6  C   UNL     1       3.904   4.936  19.733  0.00  0.00    +0.000 C 
ATOM      7  C   UNL     1       3.172   3.612  19.945  0.00  0.00    +0.000 C 
ATOM      8  O   UNL     1       1.918   3.902  20.580  0.00  0.00    +0.000 OA
ATOM      9  C   UNL     1       1.783   5.325  20.708  0.00  0.00    +0.000 C 
ATOM     10  C   UNL     1       2.789   5.960  19.775  0.00  0.00    +0.000 C 
ENDROOT
BRANCH   4  11
ATOM     11  C   UNL     1       6.195   4.581  16.746  0.00  0.00    +0.000 A 
ATOM     12  C   UNL     1       6.903   5.469  15.953  0.00  0.00    +0.000 A 
ATOM     13  C   UNL     1       7.017   4.927  14.655  0.00  0.00    +0.000 A 
ATOM     14  C   UNL     1       6.333   3.733  14.658  0.00  0.00    +0.000 A 
ATOM     15  N   UNL     1       5.820   3.546  15.912  0.00  0.00    +0.000 N 
ATOM     16  H   UNL     1       5.242   2.766  16.206  0.00  0.00    +0.000 HD
ENDBRANCH   4  11
BRANCH   1  18
ATOM     17  C   UNL     1       2.892   8.269  17.791  0.00  0.00    +0.000 C 
ATOM     18  O   UNL     1       1.830   7.350  18.036  0.00  0.00    +0.000 OA
ENDBRANCH   1  18
TORSDOF 2
ENDMDL
MODEL 8
REMARK VINA RESULT:      -6.4      2.222      5.489
REMARK  Name = 
REMARK  3 active torsions:
REMARK  status: ('A' for Active; 'I' for Inactive)
REMARK    1  A    between atoms: C_1  and  O_2
REMARK    2  A    between atoms: O_2  and  C_3
REMARK    3  A    between atoms: C_6  and  C_8
REMARK                            x       y       z     vdW  Elec       q    Type
REMARK                         _______ _______ _______ _____ _____    ______ ____
ROOT
ATOM      1  C   UNL     1       6.054   5.930  17.334  0.00  0.00    +0.000 C 
ATOM      2  C   UNL     1       5.014   5.282  18.257  0.00  0.00    +0.000 C 
ATOM      3  N   UNL     1       4.142   4.491  17.409  0.00  0.00    +0.000 N 
ATOM      4  C   UNL     1       2.990   3.821  17.776  0.00  0.00    +0.000 C 
ATOM      5  O   UNL     1       2.229   3.356  16.923  0.00  0.00    +0.000 OA
ATOM      6  C   UNL     1       4.629   4.484  16.046  0.00  0.00    +0.000 C 
ATOM      7  C   UNL     1       5.617   3.347  15.789  0.00  0.00    +0.000 C 
ATOM      8  O   UNL     1       6.730   3.890  15.065  0.00  0.00    +0.000 OA
ATOM      9  C   UNL     1       6.542   5.305  14.921  0.00  0.00    +0.000 C 
ATOM     10  C   UNL     1       5.488   5.725  15.921  0.00  0.00    +0.000 C 
ENDROOT
BRANCH   4  11
ATOM     11  C   UNL     1       2.681   3.699  19.190  0.00  0.00    +0.000 A 
ATOM     12  C   UNL     1       2.017   4.535  20.073  0.00  0.00    +0.000 A 
ATOM     13  C   UNL     1       2.027   3.943  21.354  0.00  0.00    +0.000 A 
ATOM     14  C   UNL     1       2.740   2.771  21.248  0.00  0.00    +0.000 A 
ATOM     15  N   UNL     1       3.152   2.646  19.949  0.00  0.00    +0.000 N 
ATOM     16  H   UNL     1       3.724   1.896  19.579  0.00  0.00    +0.000 HD
ENDBRANCH   4  11
BRANCH   1  18
ATOM     17  C   UNL     1       7.606   7.718  17.536  0.00  0.00    +0.000 C 
ATOM     18  O   UNL     1       6.237   7.325  17.581  0.00  0.00    +0.000 OA
ENDBRANCH   1  18
TORSDOF 2
ENDMDL
MODEL 9
REMARK VINA RESULT:      -6.2      2.322      5.700
REMARK  Name = 
REMARK  3 active torsions:
REMARK  status: ('A' for Active; 'I' for Inactive)
REMARK    1  A    between atoms: C_1  and  O_2
REMARK    2  A    between atoms: O_2  and  C_3
REMARK    3  A    between atoms: C_6  and  C_8
REMARK                            x       y       z     vdW  Elec       q    Type
REMARK                         _______ _______ _______ _____ _____    ______ ____
ROOT
ATOM      1  C   UNL     1       6.511   4.801  18.060  0.00  0.00    +0.000 C 
ATOM      2  C   UNL     1       5.108   4.577  18.635  0.00  0.00    +0.000 C 
ATOM      3  N   UNL     1       4.306   5.718  18.234  0.00  0.00    +0.000 N 
ATOM      4  C   UNL     1       3.011   6.015  18.615  0.00  0.00    +0.000 C 
ATOM      5  O   UNL     1       2.516   7.118  18.366  0.00  0.00    +0.000 OA
ATOM      6  C   UNL     1       5.056   6.575  17.341  0.00  0.00    +0.000 C 
ATOM      7  C   UNL     1       4.895   6.170  15.876  0.00  0.00    +0.000 C 
ATOM      8  O   UNL     1       6.198   6.183  15.274  0.00  0.00    +0.000 OA
ATOM      9  C   UNL     1       7.171   6.491  16.281  0.00  0.00    +0.000 C 
ATOM     10  C   UNL     1       6.513   6.275  17.626  0.00  0.00    +0.000 C 
ENDROOT
BRANCH   4  11
ATOM     11  C   UNL     1       2.254   5.009  19.338  0.00  0.00    +0.000 A 
ATOM     12  C   UNL     1       2.096   4.757  20.691  0.00  0.00    +0.000 A 
ATOM     13  C   UNL     1       1.271   3.623  20.849  0.00  0.00    +0.000 A 
ATOM     14  C   UNL     1       0.974   3.165  19.586  0.00  0.00    +0.000 A 
ATOM     15  N   UNL     1       1.591   3.988  18.684  0.00  0.00    +0.000 N 
ATOM     16  H   UNL     1       1.576   3.880  17.677  0.00  0.00    +0.000 HD
ENDBRANCH   4  11
BRANCH   1  18
ATOM     17  C   UNL     1       7.919   5.760  19.718  0.00  0.00    +0.000 C 
ATOM     18  O   UNL     1       7.554   4.579  19.009  0.00  0.00    +0.000 OA
ENDBRANCH   1  18
TORSDOF 2
ENDMDL
