MODEL 1
REMARK VINA RESULT:      -7.5      0.000      0.000
REMARK  Name = 
REMARK  3 active torsions:
REMARK  status: ('A' for Active; 'I' for Inactive)
REMARK    1  A    between atoms: C_1  and  C_2
REMARK    2  A    between atoms: C_5  and  C_6
REMARK    3  A    between atoms: N_17  and  C_18
REMARK                            x       y       z     vdW  Elec       q    Type
REMARK                         _______ _______ _______ _____ _____    ______ ____
ROOT
ATOM      1  C   UNL     1       2.076   5.776  20.162  0.00  0.00    +0.000 C 
ATOM      2  O   UNL     1       1.053   5.138  20.397  0.00  0.00    +0.000 OA
ATOM      3  N   UNL     1       3.327   5.198  20.044  0.00  0.00    +0.000 N 
ATOM      4  C   UNL     1       4.562   5.893  19.693  0.00  0.00    +0.000 C 
ATOM      5  C   UNL     1       5.542   4.797  19.276  0.00  0.00    +0.000 C 
ATOM      6  C   UNL     1       4.654   3.569  18.995  0.00  0.00    +0.000 C 
ATOM      7  C   UNL     1       3.598   3.754  20.107  0.00  0.00    +0.000 C 
ATOM      8  C   UNL     1       2.486   2.733  19.943  0.00  0.00    +0.000 C 
ATOM      9  C   UNL     1       1.854   2.758  18.571  0.00  0.00    +0.000 C 
ATOM     10  C   UNL     1       2.816   2.884  17.414  0.00  0.00    +0.000 C 
ATOM     11  O   UNL     1       2.452   2.508  16.297  0.00  0.00    +0.000 OA
ATOM     12  N   UNL     1       4.022   3.547  17.657  0.00  0.00    +0.000 N 
ENDROOT
BRANCH   1  17
ATOM     13  C   UNL     1       0.563  11.193  19.222  0.00  0.00    +0.000 C 
ATOM     14  C   UNL     1       1.156   9.842  19.486  0.00  0.00    +0.000 A 
ATOM     15  C   UNL     1       1.714   9.100  18.451  0.00  0.00    +0.000 A 
ATOM     16  C   UNL     1       2.085   7.778  18.690  0.00  0.00    +0.000 A 
ATOM     17  C   UNL     1       1.898   7.232  19.960  0.00  0.00    +0.000 A 
ATOM     18  C   UNL     1       1.373   8.053  20.944  0.00  0.00    +0.000 A 
ATOM     19  N   UNL     1       1.017   9.346  20.742  0.00  0.00    +0.000 NA
ENDBRANCH   1  17
BRANCH  12  20
ATOM     20  C   UNL     1       4.737   4.035  16.533  0.00  0.00    +0.000 A 
ATOM     21  C   UNL     1       4.610   5.399  16.217  0.00  0.00    +0.000 A 
ATOM     22  C   UNL     1       5.364   5.960  15.196  0.00  0.00    +0.000 A 
ATOM     23  C   UNL     1       6.229   5.154  14.458  0.00  0.00    +0.000 A 
ATOM     24  C   UNL     1       6.339   3.793  14.742  0.00  0.00    +0.000 A 
ATOM     25  C   UNL     1       5.602   3.227  15.788  0.00  0.00    +0.000 A 
ENDBRANCH  12  20
TORSDOF 2
ENDMDL
MODEL 2
REMARK VINA RESULT:      -6.6      9.428     10.429
REMARK  Name = 
REMARK  3 active torsions:
REMARK  status: ('A' for Active; 'I' for Inactive)
REMARK    1  A    between atoms: C_1  and  C_2
REMARK    2  A    between atoms: C_5  and  C_6
REMARK    3  A    between atoms: N_17  and  C_18
REMARK                            x       y       z     vdW  Elec       q    Type
REMARK                         _______ _______ _______ _____ _____    ______ ____
ROOT
ATOM      1  C   UNL     1       6.396  15.284  21.474  0.00  0.00    +0.000 C 
ATOM      2  O   UNL     1       5.695  14.760  22.335  0.00  0.00    +0.000 OA
ATOM      3  N   UNL     1       7.771  15.405  21.576  0.00  0.00    +0.000 N 
ATOM      4  C   UNL     1       8.660  15.949  20.556  0.00  0.00    +0.000 C 
ATOM      5  C   UNL     1      10.062  15.481  20.945  0.00  0.00    +0.000 C 
ATOM      6  C   UNL     1       9.823  14.322  21.933  0.00  0.00    +0.000 C 
ATOM      7  C   UNL     1       8.585  14.868  22.677  0.00  0.00    +0.000 C 
ATOM      8  C   UNL     1       8.038  13.812  23.621  0.00  0.00    +0.000 C 
ATOM      9  C   UNL     1       7.737  12.499  22.936  0.00  0.00    +0.000 C 
ATOM     10  C   UNL     1       8.775  12.031  21.944  0.00  0.00    +0.000 C 
ATOM     11  O   UNL     1       8.825  10.831  21.661  0.00  0.00    +0.000 OA
ATOM     12  N   UNL     1       9.534  13.013  21.304  0.00  0.00    +0.000 N 
ENDROOT
BRANCH   1  17
ATOM     13  C   UNL     1       2.952  16.805  17.192  0.00  0.00    +0.000 C 
ATOM     14  C   UNL     1       4.014  16.469  18.195  0.00  0.00    +0.000 A 
ATOM     15  C   UNL     1       4.689  15.255  18.128  0.00  0.00    +0.000 A 
ATOM     16  C   UNL     1       5.533  14.893  19.177  0.00  0.00    +0.000 A 
ATOM     17  C   UNL     1       5.688  15.755  20.262  0.00  0.00    +0.000 A 
ATOM     18  C   UNL     1       5.009  16.961  20.229  0.00  0.00    +0.000 A 
ATOM     19  N   UNL     1       4.194  17.346  19.215  0.00  0.00    +0.000 NA
ENDBRANCH   1  17
BRANCH  12  20
ATOM     20  C   UNL     1      10.198  12.647  20.104  0.00  0.00    +0.000 A 
ATOM     21  C   UNL     1      11.512  12.157  20.207  0.00  0.00    +0.000 A 
ATOM     22  C   UNL     1      12.178  11.683  19.085  0.00  0.00    +0.000 A 
ATOM     23  C   UNL     1      11.546  11.726  17.842  0.00  0.00    +0.000 A 
ATOM     24  C   UNL     1      10.255  12.240  17.725  0.00  0.00    +0.000 A 
ATOM     25  C   UNL     1       9.569  12.693  18.856  0.00  0.00    +0.000 A 
ENDBRANCH  12  20
TORSDOF 2
ENDMDL
MODEL 3
REMARK VINA RESULT:      -6.5      9.471     13.003
REMARK  Name = 
REMARK  3 active torsions:
REMARK  status: ('A' for Active; 'I' for Inactive)
REMARK    1  A    between atoms: C_1  and  C_2
REMARK    2  A    between atoms: C_5  and  C_6
REMARK    3  A    between atoms: N_17  and  C_18
REMARK                            x       y       z     vdW  Elec       q    Type
REMARK                         _______ _______ _______ _____ _____    ______ ____
ROOT
ATOM      1  C   UNL     1      -6.318  12.698  19.850  0.00  0.00    +0.000 C 
ATOM      2  O   UNL     1      -7.156  11.833  20.085  0.00  0.00    +0.000 OA
ATOM      3  N   UNL     1      -6.251  13.902  20.529  0.00  0.00    +0.000 N 
ATOM      4  C   UNL     1      -5.235  14.933  20.345  0.00  0.00    +0.000 C 
ATOM      5  C   UNL     1      -5.337  15.830  21.578  0.00  0.00    +0.000 C 
ATOM      6  C   UNL     1      -6.118  14.989  22.606  0.00  0.00    +0.000 C 
ATOM      7  C   UNL     1      -7.113  14.282  21.659  0.00  0.00    +0.000 C 
ATOM      8  C   UNL     1      -7.913  13.244  22.425  0.00  0.00    +0.000 C 
ATOM      9  C   UNL     1      -7.047  12.248  23.161  0.00  0.00    +0.000 C 
ATOM     10  C   UNL     1      -5.853  12.831  23.879  0.00  0.00    +0.000 C 
ATOM     11  O   UNL     1      -5.351  12.192  24.807  0.00  0.00    +0.000 OA
ATOM     12  N   UNL     1      -5.306  14.006  23.357  0.00  0.00    +0.000 N 
ENDROOT
BRANCH   1  17
ATOM     13  C   UNL     1      -2.779  10.615  15.894  0.00  0.00    +0.000 C 
ATOM     14  C   UNL     1      -3.607  11.343  16.909  0.00  0.00    +0.000 A 
ATOM     15  C   UNL     1      -3.164  11.472  18.221  0.00  0.00    +0.000 A 
ATOM     16  C   UNL     1      -4.033  11.987  19.181  0.00  0.00    +0.000 A 
ATOM     17  C   UNL     1      -5.322  12.367  18.806  0.00  0.00    +0.000 A 
ATOM     18  C   UNL     1      -5.668  12.242  17.472  0.00  0.00    +0.000 A 
ATOM     19  N   UNL     1      -4.837  11.759  16.514  0.00  0.00    +0.000 NA
ENDBRANCH   1  17
BRANCH  12  20
ATOM     20  C   UNL     1      -3.980  14.335  23.741  0.00  0.00    +0.000 A 
ATOM     21  C   UNL     1      -3.812  15.258  24.789  0.00  0.00    +0.000 A 
ATOM     22  C   UNL     1      -2.547  15.542  25.282  0.00  0.00    +0.000 A 
ATOM     23  C   UNL     1      -1.432  14.930  24.710  0.00  0.00    +0.000 A 
ATOM     24  C   UNL     1      -1.586  14.038  23.649  0.00  0.00    +0.000 A 
ATOM     25  C   UNL     1      -2.861  13.726  23.166  0.00  0.00    +0.000 A 
ENDBRANCH  12  20
TORSDOF 2
ENDMDL
MODEL 4
REMARK VINA RESULT:      -6.3      0.619      1.004
REMARK  Name = 
REMARK  3 active torsions:
REMARK  status: ('A' for Active; 'I' for Inactive)
REMARK    1  A    between atoms: C_1  and  C_2
REMARK    2  A    between atoms: C_5  and  C_6
REMARK    3  A    between atoms: N_17  and  C_18
REMARK                            x       y       z     vdW  Elec       q    Type
REMARK                         _______ _______ _______ _____ _____    ______ ____
ROOT
ATOM      1  C   UNL     1       1.950   5.609  20.256  0.00  0.00    +0.000 C 
ATOM      2  O   UNL     1       1.013   4.870  20.543  0.00  0.00    +0.000 OA
ATOM      3  N   UNL     1       3.259   5.175  20.141  0.00  0.00    +0.000 N 
ATOM      4  C   UNL     1       4.399   5.990  19.731  0.00  0.00    +0.000 C 
ATOM      5  C   UNL     1       5.495   4.995  19.350  0.00  0.00    +0.000 C 
ATOM      6  C   UNL     1       4.752   3.659  19.149  0.00  0.00    +0.000 C 
ATOM      7  C   UNL     1       3.699   3.778  20.272  0.00  0.00    +0.000 C 
ATOM      8  C   UNL     1       2.711   2.628  20.182  0.00  0.00    +0.000 C 
ATOM      9  C   UNL     1       2.061   2.507  18.823  0.00  0.00    +0.000 C 
ATOM     10  C   UNL     1       2.985   2.684  17.642  0.00  0.00    +0.000 C 
ATOM     11  O   UNL     1       2.652   2.210  16.553  0.00  0.00    +0.000 OA
ATOM     12  N   UNL     1       4.108   3.494  17.827  0.00  0.00    +0.000 N 
ENDROOT
BRANCH   1  17
ATOM     13  C   UNL     1       1.434  11.220  19.382  0.00  0.00    +0.000 C 
ATOM     14  C   UNL     1       1.363   9.737  19.582  0.00  0.00    +0.000 A 
ATOM     15  C   UNL     1       1.034   9.207  20.825  0.00  0.00    +0.000 A 
ATOM     16  C   UNL     1       1.158   7.834  21.029  0.00  0.00    +0.000 A 
ATOM     17  C   UNL     1       1.601   7.022  19.985  0.00  0.00    +0.000 A 
ATOM     18  C   UNL     1       1.869   7.626  18.768  0.00  0.00    +0.000 A 
ATOM     19  N   UNL     1       1.742   8.957  18.537  0.00  0.00    +0.000 NA
ENDBRANCH   1  17
BRANCH  12  20
ATOM     20  C   UNL     1       4.745   4.003  16.665  0.00  0.00    +0.000 A 
ATOM     21  C   UNL     1       4.537   5.356  16.343  0.00  0.00    +0.000 A 
ATOM     22  C   UNL     1       5.214   5.940  15.282  0.00  0.00    +0.000 A 
ATOM     23  C   UNL     1       6.082   5.168  14.511  0.00  0.00    +0.000 A 
ATOM     24  C   UNL     1       6.270   3.817  14.802  0.00  0.00    +0.000 A 
ATOM     25  C   UNL     1       5.612   3.229  15.887  0.00  0.00    +0.000 A 
ENDBRANCH  12  20
TORSDOF 2
ENDMDL
MODEL 5
REMARK VINA RESULT:      -6.2      6.327     11.966
REMARK  Name = 
REMARK  3 active torsions:
REMARK  status: ('A' for Active; 'I' for Inactive)
REMARK    1  A    between atoms: C_1  and  C_2
REMARK    2  A    between atoms: C_5  and  C_6
REMARK    3  A    between atoms: N_17  and  C_18
REMARK                            x       y       z     vdW  Elec       q    Type
REMARK                         _______ _______ _______ _____ _____    ______ ____
ROOT
ATOM      1  C   UNL     1      -0.711  13.169  21.799  0.00  0.00    +0.000 C 
ATOM      2  O   UNL     1      -0.149  14.231  21.544  0.00  0.00    +0.000 OA
ATOM      3  N   UNL     1      -1.611  13.012  22.838  0.00  0.00    +0.000 N 
ATOM      4  C   UNL     1      -2.364  11.799  23.142  0.00  0.00    +0.000 C 
ATOM      5  C   UNL     1      -3.497  12.243  24.065  0.00  0.00    +0.000 C 
ATOM      6  C   UNL     1      -3.577  13.770  23.873  0.00  0.00    +0.000 C 
ATOM      7  C   UNL     1      -2.074  14.091  23.724  0.00  0.00    +0.000 C 
ATOM      8  C   UNL     1      -1.887  15.551  23.353  0.00  0.00    +0.000 C 
ATOM      9  C   UNL     1      -2.664  15.957  22.122  0.00  0.00    +0.000 C 
ATOM     10  C   UNL     1      -4.074  15.425  22.039  0.00  0.00    +0.000 C 
ATOM     11  O   UNL     1      -4.888  16.012  21.321  0.00  0.00    +0.000 OA
ATOM     12  N   UNL     1      -4.338  14.213  22.683  0.00  0.00    +0.000 N 
ENDROOT
BRANCH   1  17
ATOM     13  C   UNL     1       1.064   9.344  17.961  0.00  0.00    +0.000 C 
ATOM     14  C   UNL     1       0.450  10.210  19.019  0.00  0.00    +0.000 A 
ATOM     15  C   UNL     1      -0.653  11.005  18.730  0.00  0.00    +0.000 A 
ATOM     16  C   UNL     1      -1.083  11.934  19.675  0.00  0.00    +0.000 A 
ATOM     17  C   UNL     1      -0.406  12.041  20.890  0.00  0.00    +0.000 A 
ATOM     18  C   UNL     1       0.657  11.183  21.113  0.00  0.00    +0.000 A 
ATOM     19  N   UNL     1       1.087  10.259  20.217  0.00  0.00    +0.000 NA
ENDBRANCH   1  17
BRANCH  12  20
ATOM     20  C   UNL     1      -5.500  13.502  22.286  0.00  0.00    +0.000 A 
ATOM     21  C   UNL     1      -5.420  12.713  21.124  0.00  0.00    +0.000 A 
ATOM     22  C   UNL     1      -6.486  11.912  20.741  0.00  0.00    +0.000 A 
ATOM     23  C   UNL     1      -7.656  11.915  21.500  0.00  0.00    +0.000 A 
ATOM     24  C   UNL     1      -7.757  12.718  22.636  0.00  0.00    +0.000 A 
ATOM     25  C   UNL     1      -6.676  13.507  23.042  0.00  0.00    +0.000 A 
ENDBRANCH  12  20
TORSDOF 2
ENDMDL
MODEL 6
REMARK VINA RESULT:      -6.2      7.096     10.239
REMARK  Name = 
REMARK  3 active torsions:
REMARK  status: ('A' for Active; 'I' for Inactive)
REMARK    1  A    between atoms: C_1  and  C_2
REMARK    2  A    between atoms: C_5  and  C_6
REMARK    3  A    between atoms: N_17  and  C_18
REMARK                            x       y       z     vdW  Elec       q    Type
REMARK                         _______ _______ _______ _____ _____    ______ ____
ROOT
ATOM      1  C   UNL     1       1.366  12.451  19.176  0.00  0.00    +0.000 C 
ATOM      2  O   UNL     1       2.009  11.408  19.115  0.00  0.00    +0.000 OA
ATOM      3  N   UNL     1      -0.012  12.494  19.299  0.00  0.00    +0.000 N 
ATOM      4  C   UNL     1      -0.821  13.699  19.451  0.00  0.00    +0.000 C 
ATOM      5  C   UNL     1      -2.175  13.218  19.969  0.00  0.00    +0.000 C 
ATOM      6  C   UNL     1      -1.904  11.797  20.500  0.00  0.00    +0.000 C 
ATOM      7  C   UNL     1      -0.882  11.317  19.447  0.00  0.00    +0.000 C 
ATOM      8  C   UNL     1      -0.319   9.964  19.846  0.00  0.00    +0.000 C 
ATOM      9  C   UNL     1       0.271   9.952  21.237  0.00  0.00    +0.000 C 
ATOM     10  C   UNL     1      -0.532  10.675  22.291  0.00  0.00    +0.000 C 
ATOM     11  O   UNL     1      -0.358  10.378  23.476  0.00  0.00    +0.000 OA
ATOM     12  N   UNL     1      -1.334  11.737  21.865  0.00  0.00    +0.000 N 
ENDROOT
BRANCH   1  17
ATOM     13  C   UNL     1       5.097  16.757  18.948  0.00  0.00    +0.000 C 
ATOM     14  C   UNL     1       3.975  15.770  19.060  0.00  0.00    +0.000 A 
ATOM     15  C   UNL     1       3.624  15.236  20.295  0.00  0.00    +0.000 A 
ATOM     16  C   UNL     1       2.708  14.187  20.342  0.00  0.00    +0.000 A 
ATOM     17  C   UNL     1       2.158  13.702  19.156  0.00  0.00    +0.000 A 
ATOM     18  C   UNL     1       2.532  14.317  17.974  0.00  0.00    +0.000 A 
ATOM     19  N   UNL     1       3.409  15.350  17.900  0.00  0.00    +0.000 NA
ENDBRANCH   1  17
BRANCH  12  20
ATOM     20  C   UNL     1      -1.759  12.669  22.847  0.00  0.00    +0.000 A 
ATOM     21  C   UNL     1      -0.899  13.740  23.148  0.00  0.00    +0.000 A 
ATOM     22  C   UNL     1      -1.299  14.743  24.020  0.00  0.00    +0.000 A 
ATOM     23  C   UNL     1      -2.554  14.667  24.625  0.00  0.00    +0.000 A 
ATOM     24  C   UNL     1      -3.401  13.592  24.357  0.00  0.00    +0.000 A 
ATOM     25  C   UNL     1      -3.014  12.593  23.458  0.00  0.00    +0.000 A 
ENDBRANCH  12  20
TORSDOF 2
ENDMDL
MODEL 7
REMARK VINA RESULT:      -6.2      6.374     11.976
REMARK  Name = 
REMARK  3 active torsions:
REMARK  status: ('A' for Active; 'I' for Inactive)
REMARK    1  A    between atoms: C_1  and  C_2
REMARK    2  A    between atoms: C_5  and  C_6
REMARK    3  A    between atoms: N_17  and  C_18
REMARK                            x       y       z     vdW  Elec       q    Type
REMARK                         _______ _______ _______ _____ _____    ______ ____
ROOT
ATOM      1  C   UNL     1      -0.821  13.284  21.619  0.00  0.00    +0.000 C 
ATOM      2  O   UNL     1      -0.359  14.371  21.283  0.00  0.00    +0.000 OA
ATOM      3  N   UNL     1      -1.670  13.115  22.698  0.00  0.00    +0.000 N 
ATOM      4  C   UNL     1      -2.308  11.864  23.098  0.00  0.00    +0.000 C 
ATOM      5  C   UNL     1      -3.443  12.268  24.038  0.00  0.00    +0.000 C 
ATOM      6  C   UNL     1      -3.656  13.770  23.765  0.00  0.00    +0.000 C 
ATOM      7  C   UNL     1      -2.191  14.202  23.540  0.00  0.00    +0.000 C 
ATOM      8  C   UNL     1      -2.139  15.649  23.083  0.00  0.00    +0.000 C 
ATOM      9  C   UNL     1      -2.989  15.917  21.862  0.00  0.00    +0.000 C 
ATOM     10  C   UNL     1      -4.352  15.268  21.863  0.00  0.00    +0.000 C 
ATOM     11  O   UNL     1      -5.235  15.744  21.145  0.00  0.00    +0.000 OA
ATOM     12  N   UNL     1      -4.492  14.079  22.583  0.00  0.00    +0.000 N 
ENDROOT
BRANCH   1  17
ATOM     13  C   UNL     1       1.178   9.381  17.974  0.00  0.00    +0.000 C 
ATOM     14  C   UNL     1       0.510  10.263  18.985  0.00  0.00    +0.000 A 
ATOM     15  C   UNL     1      -0.618  11.001  18.643  0.00  0.00    +0.000 A 
ATOM     16  C   UNL     1      -1.103  11.950  19.541  0.00  0.00    +0.000 A 
ATOM     17  C   UNL     1      -0.455  12.133  20.763  0.00  0.00    +0.000 A 
ATOM     18  C   UNL     1       0.637  11.328  21.040  0.00  0.00    +0.000 A 
ATOM     19  N   UNL     1       1.121  10.387  20.190  0.00  0.00    +0.000 NA
ENDBRANCH   1  17
BRANCH  12  20
ATOM     20  C   UNL     1      -5.603  13.253  22.271  0.00  0.00    +0.000 A 
ATOM     21  C   UNL     1      -6.717  13.304  23.127  0.00  0.00    +0.000 A 
ATOM     22  C   UNL     1      -7.874  12.602  22.820  0.00  0.00    +0.000 A 
ATOM     23  C   UNL     1      -7.916  11.815  21.669  0.00  0.00    +0.000 A 
ATOM     24  C   UNL     1      -6.805  11.734  20.830  0.00  0.00    +0.000 A 
ATOM     25  C   UNL     1      -5.646  12.460  21.120  0.00  0.00    +0.000 A 
ENDBRANCH  12  20
TORSDOF 2
ENDMDL
MODEL 8
REMARK VINA RESULT:      -6.1      2.412      6.714
REMARK  Name = 
REMARK  3 active torsions:
REMARK  status: ('A' for Active; 'I' for Inactive)
REMARK    1  A    between atoms: C_1  and  C_2
REMARK    2  A    between atoms: C_5  and  C_6
REMARK    3  A    between atoms: N_17  and  C_18
REMARK                            x       y       z     vdW  Elec       q    Type
REMARK                         _______ _______ _______ _____ _____    ______ ____
ROOT
ATOM      1  C   UNL     1       5.772   5.844  15.590  0.00  0.00    +0.000 C 
ATOM      2  O   UNL     1       5.529   6.975  15.179  0.00  0.00    +0.000 OA
ATOM      3  N   UNL     1       5.872   5.524  16.933  0.00  0.00    +0.000 N 
ATOM      4  C   UNL     1       6.085   4.189  17.481  0.00  0.00    +0.000 C 
ATOM      5  C   UNL     1       5.697   4.287  18.955  0.00  0.00    +0.000 C 
ATOM      6  C   UNL     1       4.863   5.579  19.052  0.00  0.00    +0.000 C 
ATOM      7  C   UNL     1       5.633   6.459  18.042  0.00  0.00    +0.000 C 
ATOM      8  C   UNL     1       4.897   7.769  17.826  0.00  0.00    +0.000 C 
ATOM      9  C   UNL     1       3.456   7.580  17.410  0.00  0.00    +0.000 C 
ATOM     10  C   UNL     1       2.699   6.507  18.155  0.00  0.00    +0.000 C 
ATOM     11  O   UNL     1       1.467   6.561  18.181  0.00  0.00    +0.000 OA
ATOM     12  N   UNL     1       3.442   5.438  18.662  0.00  0.00    +0.000 N 
ENDROOT
BRANCH   1  17
ATOM     13  C   UNL     1       6.188   2.443  11.032  0.00  0.00    +0.000 C 
ATOM     14  C   UNL     1       6.096   3.163  12.344  0.00  0.00    +0.000 A 
ATOM     15  C   UNL     1       4.879   3.267  13.008  0.00  0.00    +0.000 A 
ATOM     16  C   UNL     1       4.787   4.097  14.124  0.00  0.00    +0.000 A 
ATOM     17  C   UNL     1       5.914   4.796  14.555  0.00  0.00    +0.000 A 
ATOM     18  C   UNL     1       7.096   4.603  13.860  0.00  0.00    +0.000 A 
ATOM     19  N   UNL     1       7.218   3.790  12.780  0.00  0.00    +0.000 NA
ENDBRANCH   1  17
BRANCH  12  20
ATOM     20  C   UNL     1       2.738   4.249  18.987  0.00  0.00    +0.000 A 
ATOM     21  C   UNL     1       2.315   4.081  20.317  0.00  0.00    +0.000 A 
ATOM     22  C   UNL     1       1.532   2.993  20.676  0.00  0.00    +0.000 A 
ATOM     23  C   UNL     1       1.192   2.044  19.713  0.00  0.00    +0.000 A 
ATOM     24  C   UNL     1       1.633   2.185  18.398  0.00  0.00    +0.000 A 
ATOM     25  C   UNL     1       2.400   3.293  18.024  0.00  0.00    +0.000 A 
ENDBRANCH  12  20
TORSDOF 2
ENDMDL
MODEL 9
REMARK VINA RESULT:      -6.1      3.733      9.147
REMARK  Name = 
REMARK  3 active torsions:
REMARK  status: ('A' for Active; 'I' for Inactive)
REMARK    1  A    between atoms: C_1  and  C_2
REMARK    2  A    between atoms: C_5  and  C_6
REMARK    3  A    between atoms: N_17  and  C_18
REMARK                            x       y       z     vdW  Elec       q    Type
REMARK                         _______ _______ _______ _____ _____    ______ ____
ROOT
ATOM      1  C   UNL     1      -0.103   9.963  20.591  0.00  0.00    +0.000 C 
ATOM      2  O   UNL     1      -0.395   9.732  21.761  0.00  0.00    +0.000 OA
ATOM      3  N   UNL     1      -0.667  10.986  19.850  0.00  0.00    +0.000 N 
ATOM      4  C   UNL     1      -0.306  11.353  18.484  0.00  0.00    +0.000 C 
ATOM      5  C   UNL     1      -0.871  12.757  18.277  0.00  0.00    +0.000 C 
ATOM      6  C   UNL     1      -1.142  13.280  19.701  0.00  0.00    +0.000 C 
ATOM      7  C   UNL     1      -1.625  11.974  20.368  0.00  0.00    +0.000 C 
ATOM      8  C   UNL     1      -1.808  12.189  21.860  0.00  0.00    +0.000 C 
ATOM      9  C   UNL     1      -0.573  12.733  22.539  0.00  0.00    +0.000 C 
ATOM     10  C   UNL     1       0.149  13.829  21.794  0.00  0.00    +0.000 C 
ATOM     11  O   UNL     1       0.886  14.590  22.426  0.00  0.00    +0.000 OA
ATOM     12  N   UNL     1       0.040  13.832  20.401  0.00  0.00    +0.000 N 
ENDROOT
BRANCH   1  17
ATOM     13  C   UNL     1       3.280   6.208  17.951  0.00  0.00    +0.000 C 
ATOM     14  C   UNL     1       2.565   7.266  18.735  0.00  0.00    +0.000 A 
ATOM     15  C   UNL     1       2.189   7.036  20.054  0.00  0.00    +0.000 A 
ATOM     16  C   UNL     1       1.366   7.960  20.693  0.00  0.00    +0.000 A 
ATOM     17  C   UNL     1       0.945   9.098  20.004  0.00  0.00    +0.000 A 
ATOM     18  C   UNL     1       1.399   9.269  18.707  0.00  0.00    +0.000 A 
ATOM     19  N   UNL     1       2.213   8.393  18.066  0.00  0.00    +0.000 NA
ENDBRANCH   1  17
BRANCH  12  20
ATOM     20  C   UNL     1       1.010  14.567  19.671  0.00  0.00    +0.000 A 
ATOM     21  C   UNL     1       2.222  13.923  19.360  0.00  0.00    +0.000 A 
ATOM     22  C   UNL     1       3.167  14.549  18.560  0.00  0.00    +0.000 A 
ATOM     23  C   UNL     1       2.924  15.839  18.089  0.00  0.00    +0.000 A 
ATOM     24  C   UNL     1       1.740  16.497  18.418  0.00  0.00    +0.000 A 
ATOM     25  C   UNL     1       0.771  15.862  19.201  0.00  0.00    +0.000 A 
ENDBRANCH  12  20
TORSDOF 2
ENDMDL
