MODEL 1
REMARK VINA RESULT:      -7.2      0.000      0.000
REMARK  Name = 
REMARK  7 active torsions:
REMARK  status: ('A' for Active; 'I' for Inactive)
REMARK    1  A    between atoms: C_1  and  O_2
REMARK    2  A    between atoms: O_2  and  C_3
REMARK    3  A    between atoms: C_7  and  C_8
REMARK    4  A    between atoms: C_12  and  C_13
REMARK    5  A    between atoms: C_14  and  C_15
REMARK    6  A    between atoms: C_15  and  N_16
REMARK    7  A    between atoms: C_22  and  O_23
REMARK                            x       y       z     vdW  Elec       q    Type
REMARK                         _______ _______ _______ _____ _____    ______ ____
ROOT
ATOM      1  C   UNL     1       2.199   6.240  19.953  0.00  0.00    +0.000 A 
ATOM      2  O   UNL     1       1.398   5.501  20.786  0.00  0.00    +0.000 OA
ATOM      3  C   UNL     1       1.879   4.248  20.786  0.00  0.00    +0.000 A 
ATOM      4  C   UNL     1       2.974   4.120  19.959  0.00  0.00    +0.000 A 
ATOM      5  C   UNL     1       3.190   5.427  19.403  0.00  0.00    +0.000 A 
ATOM      6  C   UNL     1       3.693   2.818  19.851  0.00  0.00    +0.000 C 
ATOM      7  C   UNL     1       2.857   1.656  20.465  0.00  0.00    +0.000 C 
ATOM      8  C   UNL     1       2.171   2.028  21.794  0.00  0.00    +0.000 C 
ATOM      9  C   UNL     1       1.218   3.220  21.623  0.00  0.00    +0.000 C 
ENDROOT
BRANCH   1  14
ATOM     10  C   UNL     1       1.021   9.694  20.931  0.00  0.00    +0.000 A 
ATOM     11  C   UNL     1       1.046  10.341  19.692  0.00  0.00    +0.000 A 
ATOM     12  C   UNL     1       1.465   9.664  18.550  0.00  0.00    +0.000 A 
ATOM     13  C   UNL     1       1.845   8.326  18.647  0.00  0.00    +0.000 A 
ATOM     14  C   UNL     1       1.813   7.649  19.879  0.00  0.00    +0.000 A 
ATOM     15  C   UNL     1       1.412   8.356  21.020  0.00  0.00    +0.000 A 
BRANCH  10  17
ATOM     16  C   UNL     1      -0.482   9.968  22.746  0.00  0.00    +0.000 C 
ATOM     17  O   UNL     1       0.593  10.476  21.968  0.00  0.00    +0.000 OA
ENDBRANCH  10  17
ENDBRANCH   1  14
BRANCH   5  18
ATOM     18  C   UNL     1       4.228   5.859  18.499  0.00  0.00    +0.000 C 
ATOM     19  C   UNL     1       5.169   6.242  17.681  0.00  0.00    +0.000 C 
BRANCH  19  20
ATOM     20  C   UNL     1       6.265   6.688  16.727  0.00  0.00    +0.000 C 
ATOM     21  C   UNL     1       7.497   5.772  16.824  0.00  0.00    +0.000 C 
ATOM     22  C   UNL     1       7.222   4.349  16.330  0.00  0.00    +0.000 C 
ATOM     23  C   UNL     1       6.617   4.335  14.928  0.00  0.00    +0.000 C 
ATOM     24  C   UNL     1       5.383   5.226  14.827  0.00  0.00    +0.000 C 
ATOM     25  C   UNL     1       5.683   6.654  15.296  0.00  0.00    +0.000 C 
BRANCH  20  26
ATOM     26  N   UNL     1       6.647   8.055  17.070  0.00  0.00    +0.000 NA
ATOM     27  H   UNL     1       5.863   8.676  16.877  0.00  0.00    +0.000 HD
ATOM     28  H   UNL     1       7.409   8.342  16.462  0.00  0.00    +0.000 HD
ENDBRANCH  20  26
ENDBRANCH  19  20
ENDBRANCH   5  18
BRANCH   6  29
ATOM     29  O   UNL     1       3.993   2.478  18.501  0.00  0.00    +0.000 OA
ATOM     30  H   UNL     1       4.950   2.310  18.463  0.00  0.00    +0.000 HD
ENDBRANCH   6  29
TORSDOF 6
ENDMDL
MODEL 2
REMARK VINA RESULT:      -6.9      1.498      5.542
REMARK  Name = 
REMARK  7 active torsions:
REMARK  status: ('A' for Active; 'I' for Inactive)
REMARK    1  A    between atoms: C_1  and  O_2
REMARK    2  A    between atoms: O_2  and  C_3
REMARK    3  A    between atoms: C_7  and  C_8
REMARK    4  A    between atoms: C_12  and  C_13
REMARK    5  A    between atoms: C_14  and  C_15
REMARK    6  A    between atoms: C_15  and  N_16
REMARK    7  A    between atoms: C_22  and  O_23
REMARK                            x       y       z     vdW  Elec       q    Type
REMARK                         _______ _______ _______ _____ _____    ______ ____
ROOT
ATOM      1  C   UNL     1       2.057   6.365  19.993  0.00  0.00    +0.000 A 
ATOM      2  O   UNL     1       1.095   6.968  20.763  0.00  0.00    +0.000 OA
ATOM      3  C   UNL     1       0.897   8.196  20.259  0.00  0.00    +0.000 A 
ATOM      4  C   UNL     1       1.716   8.443  19.178  0.00  0.00    +0.000 A 
ATOM      5  C   UNL     1       2.487   7.244  18.998  0.00  0.00    +0.000 A 
ATOM      6  C   UNL     1       1.622   9.733  18.437  0.00  0.00    +0.000 C 
ATOM      7  C   UNL     1       0.804  10.790  19.239  0.00  0.00    +0.000 C 
ATOM      8  C   UNL     1      -0.459  10.212  19.905  0.00  0.00    +0.000 C 
ATOM      9  C   UNL     1      -0.114   9.080  20.884  0.00  0.00    +0.000 C 
ENDROOT
BRANCH   1  14
ATOM     10  C   UNL     1       3.808   3.044  20.406  0.00  0.00    +0.000 A 
ATOM     11  C   UNL     1       2.879   2.352  21.190  0.00  0.00    +0.000 A 
ATOM     12  C   UNL     1       1.702   2.972  21.599  0.00  0.00    +0.000 A 
ATOM     13  C   UNL     1       1.445   4.284  21.209  0.00  0.00    +0.000 A 
ATOM     14  C   UNL     1       2.356   4.995  20.407  0.00  0.00    +0.000 A 
ATOM     15  C   UNL     1       3.547   4.362  20.026  0.00  0.00    +0.000 A 
BRANCH  10  17
ATOM     16  C   UNL     1       5.266   1.253  20.951  0.00  0.00    +0.000 C 
ATOM     17  O   UNL     1       4.921   2.319  20.078  0.00  0.00    +0.000 OA
ENDBRANCH  10  17
ENDBRANCH   1  14
BRANCH   5  18
ATOM     18  C   UNL     1       3.473   6.953  17.986  0.00  0.00    +0.000 C 
ATOM     19  C   UNL     1       4.366   6.685  17.074  0.00  0.00    +0.000 C 
BRANCH  19  20
ATOM     20  C   UNL     1       5.407   6.371  16.011  0.00  0.00    +0.000 C 
ATOM     21  C   UNL     1       6.806   6.839  16.445  0.00  0.00    +0.000 C 
ATOM     22  C   UNL     1       7.351   6.059  17.645  0.00  0.00    +0.000 C 
ATOM     23  C   UNL     1       7.305   4.550  17.417  0.00  0.00    +0.000 C 
ATOM     24  C   UNL     1       5.916   4.074  17.004  0.00  0.00    +0.000 C 
ATOM     25  C   UNL     1       5.398   4.843  15.783  0.00  0.00    +0.000 C 
BRANCH  20  26
ATOM     26  N   UNL     1       5.026   7.054  14.778  0.00  0.00    +0.000 NA
ATOM     27  H   UNL     1       5.865   7.236  14.228  0.00  0.00    +0.000 HD
ATOM     28  H   UNL     1       4.628   7.959  15.017  0.00  0.00    +0.000 HD
ENDBRANCH  20  26
ENDBRANCH  19  20
ENDBRANCH   5  18
BRANCH   6  29
ATOM     29  O   UNL     1       2.903  10.290  18.157  0.00  0.00    +0.000 OA
ATOM     30  H   UNL     1       3.470   9.553  17.873  0.00  0.00    +0.000 HD
ENDBRANCH   6  29
TORSDOF 6
ENDMDL
MODEL 3
REMARK VINA RESULT:      -6.7      1.013      1.713
REMARK  Name = 
REMARK  7 active torsions:
REMARK  status: ('A' for Active; 'I' for Inactive)
REMARK    1  A    between atoms: C_1  and  O_2
REMARK    2  A    between atoms: O_2  and  C_3
REMARK    3  A    between atoms: C_7  and  C_8
REMARK    4  A    between atoms: C_12  and  C_13
REMARK    5  A    between atoms: C_14  and  C_15
REMARK    6  A    between atoms: C_15  and  N_16
REMARK    7  A    between atoms: C_22  and  O_23
REMARK                            x       y       z     vdW  Elec       q    Type
REMARK                         _______ _______ _______ _____ _____    ______ ____
ROOT
ATOM      1  C   UNL     1       2.211   6.219  19.944  0.00  0.00    +0.000 A 
ATOM      2  O   UNL     1       1.409   5.485  20.779  0.00  0.00    +0.000 OA
ATOM      3  C   UNL     1       1.894   4.234  20.795  0.00  0.00    +0.000 A 
ATOM      4  C   UNL     1       2.994   4.102  19.975  0.00  0.00    +0.000 A 
ATOM      5  C   UNL     1       3.209   5.404  19.407  0.00  0.00    +0.000 A 
ATOM      6  C   UNL     1       3.719   2.802  19.884  0.00  0.00    +0.000 C 
ATOM      7  C   UNL     1       2.883   1.643  20.505  0.00  0.00    +0.000 C 
ATOM      8  C   UNL     1       2.188   2.025  21.827  0.00  0.00    +0.000 C 
ATOM      9  C   UNL     1       1.232   3.212  21.638  0.00  0.00    +0.000 C 
ENDROOT
BRANCH   1  14
ATOM     10  C   UNL     1       1.755   9.739  18.652  0.00  0.00    +0.000 A 
ATOM     11  C   UNL     1       1.088  10.331  19.730  0.00  0.00    +0.000 A 
ATOM     12  C   UNL     1       0.770   9.582  20.859  0.00  0.00    +0.000 A 
ATOM     13  C   UNL     1       1.135   8.239  20.917  0.00  0.00    +0.000 A 
ATOM     14  C   UNL     1       1.821   7.626  19.853  0.00  0.00    +0.000 A 
ATOM     15  C   UNL     1       2.110   8.390  18.715  0.00  0.00    +0.000 A 
BRANCH  10  17
ATOM     16  C   UNL     1       2.404  11.908  17.942  0.00  0.00    +0.000 C 
ATOM     17  O   UNL     1       2.002  10.587  17.608  0.00  0.00    +0.000 OA
ENDBRANCH  10  17
ENDBRANCH   1  14
BRANCH   5  18
ATOM     18  C   UNL     1       4.251   5.830  18.505  0.00  0.00    +0.000 C 
ATOM     19  C   UNL     1       5.197   6.210  17.692  0.00  0.00    +0.000 C 
BRANCH  19  20
ATOM     20  C   UNL     1       6.300   6.651  16.744  0.00  0.00    +0.000 C 
ATOM     21  C   UNL     1       7.518   5.716  16.830  0.00  0.00    +0.000 C 
ATOM     22  C   UNL     1       7.222   4.303  16.318  0.00  0.00    +0.000 C 
ATOM     23  C   UNL     1       6.618   4.316  14.915  0.00  0.00    +0.000 C 
ATOM     24  C   UNL     1       5.397   5.227  14.826  0.00  0.00    +0.000 C 
ATOM     25  C   UNL     1       5.718   6.645  15.313  0.00  0.00    +0.000 C 
BRANCH  20  26
ATOM     26  N   UNL     1       6.703   8.008  17.105  0.00  0.00    +0.000 NA
ATOM     27  H   UNL     1       6.561   8.139  18.106  0.00  0.00    +0.000 HD
ATOM     28  H   UNL     1       6.090   8.666  16.631  0.00  0.00    +0.000 HD
ENDBRANCH  20  26
ENDBRANCH  19  20
ENDBRANCH   5  18
BRANCH   6  29
ATOM     29  O   UNL     1       4.027   2.449  18.540  0.00  0.00    +0.000 OA
ATOM     30  H   UNL     1       3.186   2.211  18.115  0.00  0.00    +0.000 HD
ENDBRANCH   6  29
TORSDOF 6
ENDMDL
MODEL 4
REMARK VINA RESULT:      -6.6      7.056     10.837
REMARK  Name = 
REMARK  7 active torsions:
REMARK  status: ('A' for Active; 'I' for Inactive)
REMARK    1  A    between atoms: C_1  and  O_2
REMARK    2  A    between atoms: O_2  and  C_3
REMARK    3  A    between atoms: C_7  and  C_8
REMARK    4  A    between atoms: C_12  and  C_13
REMARK    5  A    between atoms: C_14  and  C_15
REMARK    6  A    between atoms: C_15  and  N_16
REMARK    7  A    between atoms: C_22  and  O_23
REMARK                            x       y       z     vdW  Elec       q    Type
REMARK                         _______ _______ _______ _____ _____    ______ ____
ROOT
ATOM      1  C   UNL     1      -4.560  12.144  18.763  0.00  0.00    +0.000 A 
ATOM      2  O   UNL     1      -5.815  12.519  18.356  0.00  0.00    +0.000 OA
ATOM      3  C   UNL     1      -6.346  13.257  19.343  0.00  0.00    +0.000 A 
ATOM      4  C   UNL     1      -5.486  13.374  20.413  0.00  0.00    +0.000 A 
ATOM      5  C   UNL     1      -4.308  12.641  20.042  0.00  0.00    +0.000 A 
ATOM      6  C   UNL     1      -5.862  14.196  21.600  0.00  0.00    +0.000 C 
ATOM      7  C   UNL     1      -7.381  14.545  21.590  0.00  0.00    +0.000 C 
ATOM      8  C   UNL     1      -7.911  14.945  20.199  0.00  0.00    +0.000 C 
ATOM      9  C   UNL     1      -7.705  13.822  19.172  0.00  0.00    +0.000 C 
ENDROOT
BRANCH   1  14
ATOM     10  C   UNL     1      -3.665  10.391  15.539  0.00  0.00    +0.000 A 
ATOM     11  C   UNL     1      -2.444   9.805  15.888  0.00  0.00    +0.000 A 
ATOM     12  C   UNL     1      -1.906   9.999  17.157  0.00  0.00    +0.000 A 
ATOM     13  C   UNL     1      -2.602  10.769  18.087  0.00  0.00    +0.000 A 
ATOM     14  C   UNL     1      -3.839  11.355  17.765  0.00  0.00    +0.000 A 
ATOM     15  C   UNL     1      -4.351  11.169  16.474  0.00  0.00    +0.000 A 
BRANCH  10  17
ATOM     16  C   UNL     1      -3.064   9.764  13.331  0.00  0.00    +0.000 C 
ATOM     17  O   UNL     1      -4.075  10.122  14.262  0.00  0.00    +0.000 OA
ENDBRANCH  10  17
ENDBRANCH   1  14
BRANCH   5  18
ATOM     18  C   UNL     1      -3.085  12.469  20.787  0.00  0.00    +0.000 C 
ATOM     19  C   UNL     1      -1.976  12.319  21.457  0.00  0.00    +0.000 C 
BRANCH  19  20
ATOM     20  C   UNL     1      -0.683  12.146  22.238  0.00  0.00    +0.000 C 
ATOM     21  C   UNL     1      -0.609  10.757  22.892  0.00  0.00    +0.000 C 
ATOM     22  C   UNL     1      -0.503   9.621  21.871  0.00  0.00    +0.000 C 
ATOM     23  C   UNL     1       0.641   9.842  20.883  0.00  0.00    +0.000 C 
ATOM     24  C   UNL     1       0.564  11.211  20.215  0.00  0.00    +0.000 C 
ATOM     25  C   UNL     1       0.490  12.338  21.251  0.00  0.00    +0.000 C 
BRANCH  20  26
ATOM     26  N   UNL     1      -0.629  13.174  23.273  0.00  0.00    +0.000 NA
ATOM     27  H   UNL     1      -0.583  12.723  24.186  0.00  0.00    +0.000 HD
ATOM     28  H   UNL     1      -1.495  13.706  23.250  0.00  0.00    +0.000 HD
ENDBRANCH  20  26
ENDBRANCH  19  20
ENDBRANCH   5  18
BRANCH   6  29
ATOM     29  O   UNL     1      -5.571  13.537  22.828  0.00  0.00    +0.000 OA
ATOM     30  H   UNL     1      -5.238  14.218  23.436  0.00  0.00    +0.000 HD
ENDBRANCH   6  29
TORSDOF 6
ENDMDL
MODEL 5
REMARK VINA RESULT:      -6.5      8.431     10.580
REMARK  Name = 
REMARK  7 active torsions:
REMARK  status: ('A' for Active; 'I' for Inactive)
REMARK    1  A    between atoms: C_1  and  O_2
REMARK    2  A    between atoms: O_2  and  C_3
REMARK    3  A    between atoms: C_7  and  C_8
REMARK    4  A    between atoms: C_12  and  C_13
REMARK    5  A    between atoms: C_14  and  C_15
REMARK    6  A    between atoms: C_15  and  N_16
REMARK    7  A    between atoms: C_22  and  O_23
REMARK                            x       y       z     vdW  Elec       q    Type
REMARK                         _______ _______ _______ _____ _____    ______ ____
ROOT
ATOM      1  C   UNL     1       8.785  13.042  21.584  0.00  0.00    +0.000 A 
ATOM      2  O   UNL     1       9.954  12.327  21.523  0.00  0.00    +0.000 OA
ATOM      3  C   UNL     1      10.467  12.511  20.297  0.00  0.00    +0.000 A 
ATOM      4  C   UNL     1       9.664  13.321  19.523  0.00  0.00    +0.000 A 
ATOM      5  C   UNL     1       8.551  13.673  20.361  0.00  0.00    +0.000 A 
ATOM      6  C   UNL     1      10.075  13.695  18.139  0.00  0.00    +0.000 C 
ATOM      7  C   UNL     1      11.248  12.801  17.636  0.00  0.00    +0.000 C 
ATOM      8  C   UNL     1      12.333  12.553  18.702  0.00  0.00    +0.000 C 
ATOM      9  C   UNL     1      11.754  11.866  19.947  0.00  0.00    +0.000 C 
ENDROOT
BRANCH   1  14
ATOM     10  C   UNL     1       6.487  11.961  24.380  0.00  0.00    +0.000 A 
ATOM     11  C   UNL     1       6.853  12.863  25.385  0.00  0.00    +0.000 A 
ATOM     12  C   UNL     1       7.856  13.801  25.159  0.00  0.00    +0.000 A 
ATOM     13  C   UNL     1       8.485  13.848  23.917  0.00  0.00    +0.000 A 
ATOM     14  C   UNL     1       8.124  12.963  22.886  0.00  0.00    +0.000 A 
ATOM     15  C   UNL     1       7.129  12.009  23.141  0.00  0.00    +0.000 A 
BRANCH  10  17
ATOM     16  C   UNL     1       5.230  10.961  26.126  0.00  0.00    +0.000 C 
ATOM     17  O   UNL     1       5.492  11.094  24.736  0.00  0.00    +0.000 OA
ENDBRANCH  10  17
ENDBRANCH   1  14
BRANCH   5  18
ATOM     18  C   UNL     1       7.432  14.530  20.056  0.00  0.00    +0.000 C 
ATOM     19  C   UNL     1       6.425  15.309  19.775  0.00  0.00    +0.000 C 
BRANCH  19  20
ATOM     20  C   UNL     1       5.250  16.217  19.447  0.00  0.00    +0.000 C 
ATOM     21  C   UNL     1       4.542  15.769  18.158  0.00  0.00    +0.000 C 
ATOM     22  C   UNL     1       3.848  14.412  18.299  0.00  0.00    +0.000 C 
ATOM     23  C   UNL     1       2.909  14.370  19.503  0.00  0.00    +0.000 C 
ATOM     24  C   UNL     1       3.610  14.795  20.791  0.00  0.00    +0.000 C 
ATOM     25  C   UNL     1       4.272  16.169  20.642  0.00  0.00    +0.000 C 
BRANCH  20  26
ATOM     26  N   UNL     1       5.753  17.578  19.278  0.00  0.00    +0.000 NA
ATOM     27  H   UNL     1       5.442  17.936  18.375  0.00  0.00    +0.000 HD
ATOM     28  H   UNL     1       6.769  17.548  19.250  0.00  0.00    +0.000 HD
ENDBRANCH  20  26
ENDBRANCH  19  20
ENDBRANCH   5  18
BRANCH   6  29
ATOM     29  O   UNL     1       9.004  13.580  17.208  0.00  0.00    +0.000 OA
ATOM     30  H   UNL     1       8.193  13.468  17.731  0.00  0.00    +0.000 HD
ENDBRANCH   6  29
TORSDOF 6
ENDMDL
MODEL 6
REMARK VINA RESULT:      -6.5      3.843      7.386
REMARK  Name = 
REMARK  7 active torsions:
REMARK  status: ('A' for Active; 'I' for Inactive)
REMARK    1  A    between atoms: C_1  and  O_2
REMARK    2  A    between atoms: O_2  and  C_3
REMARK    3  A    between atoms: C_7  and  C_8
REMARK    4  A    between atoms: C_12  and  C_13
REMARK    5  A    between atoms: C_14  and  C_15
REMARK    6  A    between atoms: C_15  and  N_16
REMARK    7  A    between atoms: C_22  and  O_23
REMARK                            x       y       z     vdW  Elec       q    Type
REMARK                         _______ _______ _______ _____ _____    ______ ____
ROOT
ATOM      1  C   UNL     1       7.077   5.449  15.769  0.00  0.00    +0.000 A 
ATOM      2  O   UNL     1       7.889   5.701  14.693  0.00  0.00    +0.000 OA
ATOM      3  C   UNL     1       7.391   5.016  13.652  0.00  0.00    +0.000 A 
ATOM      4  C   UNL     1       6.271   4.293  14.005  0.00  0.00    +0.000 A 
ATOM      5  C   UNL     1       6.059   4.569  15.399  0.00  0.00    +0.000 A 
ATOM      6  C   UNL     1       5.531   3.499  12.983  0.00  0.00    +0.000 C 
ATOM      7  C   UNL     1       6.367   3.332  11.679  0.00  0.00    +0.000 C 
ATOM      8  C   UNL     1       7.095   4.620  11.247  0.00  0.00    +0.000 C 
ATOM      9  C   UNL     1       8.060   5.114  12.334  0.00  0.00    +0.000 C 
ENDROOT
BRANCH   1  14
ATOM     10  C   UNL     1       8.080   8.217  18.135  0.00  0.00    +0.000 A 
ATOM     11  C   UNL     1       8.290   7.493  19.313  0.00  0.00    +0.000 A 
ATOM     12  C   UNL     1       8.084   6.116  19.341  0.00  0.00    +0.000 A 
ATOM     13  C   UNL     1       7.683   5.459  18.180  0.00  0.00    +0.000 A 
ATOM     14  C   UNL     1       7.481   6.162  16.980  0.00  0.00    +0.000 A 
ATOM     15  C   UNL     1       7.669   7.551  16.978  0.00  0.00    +0.000 A 
BRANCH  10  17
ATOM     16  C   UNL     1       9.233   9.961  19.257  0.00  0.00    +0.000 C 
ATOM     17  O   UNL     1       8.316   9.559  18.249  0.00  0.00    +0.000 OA
ENDBRANCH  10  17
ENDBRANCH   1  14
BRANCH   5  18
ATOM     18  C   UNL     1       5.002   4.094  16.258  0.00  0.00    +0.000 C 
ATOM     19  C   UNL     1       4.045   3.659  17.030  0.00  0.00    +0.000 C 
BRANCH  19  20
ATOM     20  C   UNL     1       2.930   3.151  17.929  0.00  0.00    +0.000 C 
ATOM     21  C   UNL     1       3.339   3.208  19.411  0.00  0.00    +0.000 C 
ATOM     22  C   UNL     1       3.518   4.639  19.925  0.00  0.00    +0.000 C 
ATOM     23  C   UNL     1       2.294   5.508  19.643  0.00  0.00    +0.000 C 
ATOM     24  C   UNL     1       1.893   5.472  18.171  0.00  0.00    +0.000 C 
ATOM     25  C   UNL     1       1.687   4.034  17.681  0.00  0.00    +0.000 C 
BRANCH  20  26
ATOM     26  N   UNL     1       2.633   1.770  17.560  0.00  0.00    +0.000 NA
ATOM     27  H   UNL     1       2.969   1.151  18.297  0.00  0.00    +0.000 HD
ATOM     28  H   UNL     1       3.156   1.538  16.720  0.00  0.00    +0.000 HD
ENDBRANCH  20  26
ENDBRANCH  19  20
ENDBRANCH   5  18
BRANCH   6  29
ATOM     29  O   UNL     1       5.188   2.199  13.454  0.00  0.00    +0.000 OA
ATOM     30  H   UNL     1       4.597   2.326  14.215  0.00  0.00    +0.000 HD
ENDBRANCH   6  29
TORSDOF 6
ENDMDL
MODEL 7
REMARK VINA RESULT:      -6.5      0.932      1.076
REMARK  Name = 
REMARK  7 active torsions:
REMARK  status: ('A' for Active; 'I' for Inactive)
REMARK    1  A    between atoms: C_1  and  O_2
REMARK    2  A    between atoms: O_2  and  C_3
REMARK    3  A    between atoms: C_7  and  C_8
REMARK    4  A    between atoms: C_12  and  C_13
REMARK    5  A    between atoms: C_14  and  C_15
REMARK    6  A    between atoms: C_15  and  N_16
REMARK    7  A    between atoms: C_22  and  O_23
REMARK                            x       y       z     vdW  Elec       q    Type
REMARK                         _______ _______ _______ _____ _____    ______ ____
ROOT
ATOM      1  C   UNL     1       2.368   6.001  19.818  0.00  0.00    +0.000 A 
ATOM      2  O   UNL     1       1.338   5.381  20.479  0.00  0.00    +0.000 OA
ATOM      3  C   UNL     1       1.752   4.142  20.784  0.00  0.00    +0.000 A 
ATOM      4  C   UNL     1       3.031   3.904  20.328  0.00  0.00    +0.000 A 
ATOM      5  C   UNL     1       3.444   5.122  19.687  0.00  0.00    +0.000 A 
ATOM      6  C   UNL     1       3.703   2.601  20.605  0.00  0.00    +0.000 C 
ATOM      7  C   UNL     1       2.684   1.533  21.105  0.00  0.00    +0.000 C 
ATOM      8  C   UNL     1       1.664   2.084  22.121  0.00  0.00    +0.000 C 
ATOM      9  C   UNL     1       0.844   3.238  21.527  0.00  0.00    +0.000 C 
ENDROOT
BRANCH   1  14
ATOM     10  C   UNL     1       1.172   9.580  19.983  0.00  0.00    +0.000 A 
ATOM     11  C   UNL     1       1.485  10.022  18.694  0.00  0.00    +0.000 A 
ATOM     12  C   UNL     1       2.102   9.167  17.786  0.00  0.00    +0.000 A 
ATOM     13  C   UNL     1       2.392   7.857  18.164  0.00  0.00    +0.000 A 
ATOM     14  C   UNL     1       2.072   7.384  19.449  0.00  0.00    +0.000 A 
ATOM     15  C   UNL     1       1.474   8.268  20.357  0.00  0.00    +0.000 A 
BRANCH  10  17
ATOM     16  C   UNL     1       0.138  10.094  22.056  0.00  0.00    +0.000 C 
ATOM     17  O   UNL     1       0.572  10.522  20.773  0.00  0.00    +0.000 OA
ENDBRANCH  10  17
ENDBRANCH   1  14
BRANCH   5  18
ATOM     18  C   UNL     1       4.711   5.426  19.069  0.00  0.00    +0.000 C 
ATOM     19  C   UNL     1       5.856   5.695  18.506  0.00  0.00    +0.000 C 
BRANCH  19  20
ATOM     20  C   UNL     1       7.191   6.009  17.849  0.00  0.00    +0.000 C 
ATOM     21  C   UNL     1       7.848   4.738  17.286  0.00  0.00    +0.000 C 
ATOM     22  C   UNL     1       7.067   4.131  16.116  0.00  0.00    +0.000 C 
ATOM     23  C   UNL     1       6.788   5.156  15.019  0.00  0.00    +0.000 C 
ATOM     24  C   UNL     1       6.119   6.413  15.567  0.00  0.00    +0.000 C 
ATOM     25  C   UNL     1       6.928   7.025  16.716  0.00  0.00    +0.000 C 
BRANCH  20  26
ATOM     26  N   UNL     1       8.069   6.606  18.852  0.00  0.00    +0.000 NA
ATOM     27  H   UNL     1       8.657   5.877  19.253  0.00  0.00    +0.000 HD
ATOM     28  H   UNL     1       7.497   6.973  19.608  0.00  0.00    +0.000 HD
ENDBRANCH  20  26
ENDBRANCH  19  20
ENDBRANCH   5  18
BRANCH   6  29
ATOM     29  O   UNL     1       4.360   2.078  19.455  0.00  0.00    +0.000 OA
ATOM     30  H   UNL     1       4.890   2.803  19.085  0.00  0.00    +0.000 HD
ENDBRANCH   6  29
TORSDOF 6
ENDMDL
MODEL 8
REMARK VINA RESULT:      -6.4      6.729     10.642
REMARK  Name = 
REMARK  7 active torsions:
REMARK  status: ('A' for Active; 'I' for Inactive)
REMARK    1  A    between atoms: C_1  and  O_2
REMARK    2  A    between atoms: O_2  and  C_3
REMARK    3  A    between atoms: C_7  and  C_8
REMARK    4  A    between atoms: C_12  and  C_13
REMARK    5  A    between atoms: C_14  and  C_15
REMARK    6  A    between atoms: C_15  and  N_16
REMARK    7  A    between atoms: C_22  and  O_23
REMARK                            x       y       z     vdW  Elec       q    Type
REMARK                         _______ _______ _______ _____ _____    ______ ____
ROOT
ATOM      1  C   UNL     1      -1.582  12.461  21.461  0.00  0.00    +0.000 A 
ATOM      2  O   UNL     1      -0.280  12.028  21.469  0.00  0.00    +0.000 OA
ATOM      3  C   UNL     1      -0.074  11.374  20.316  0.00  0.00    +0.000 A 
ATOM      4  C   UNL     1      -1.211  11.340  19.537  0.00  0.00    +0.000 A 
ATOM      5  C   UNL     1      -2.211  12.050  20.286  0.00  0.00    +0.000 A 
ATOM      6  C   UNL     1      -1.187  10.702  18.189  0.00  0.00    +0.000 C 
ATOM      7  C   UNL     1       0.095   9.838  17.994  0.00  0.00    +0.000 C 
ATOM      8  C   UNL     1       1.375  10.507  18.533  0.00  0.00    +0.000 C 
ATOM      9  C   UNL     1       1.265  10.807  20.035  0.00  0.00    +0.000 C 
ENDROOT
BRANCH   1  14
ATOM     10  C   UNL     1      -1.386  14.809  24.414  0.00  0.00    +0.000 A 
ATOM     11  C   UNL     1      -2.665  14.654  24.958  0.00  0.00    +0.000 A 
ATOM     12  C   UNL     1      -3.591  13.808  24.355  0.00  0.00    +0.000 A 
ATOM     13  C   UNL     1      -3.229  13.101  23.210  0.00  0.00    +0.000 A 
ATOM     14  C   UNL     1      -1.944  13.227  22.653  0.00  0.00    +0.000 A 
ATOM     15  C   UNL     1      -1.035  14.103  23.261  0.00  0.00    +0.000 A 
BRANCH  10  17
ATOM     16  C   UNL     1      -1.032  16.075  26.389  0.00  0.00    +0.000 C 
ATOM     17  O   UNL     1      -0.579  15.671  25.104  0.00  0.00    +0.000 OA
ENDBRANCH  10  17
ENDBRANCH   1  14
BRANCH   5  18
ATOM     18  C   UNL     1      -3.575  12.338  19.915  0.00  0.00    +0.000 C 
ATOM     19  C   UNL     1      -4.808  12.593  19.576  0.00  0.00    +0.000 C 
BRANCH  19  20
ATOM     20  C   UNL     1      -6.246  12.889  19.180  0.00  0.00    +0.000 C 
ATOM     21  C   UNL     1      -6.902  11.670  18.510  0.00  0.00    +0.000 C 
ATOM     22  C   UNL     1      -7.086  10.490  19.468  0.00  0.00    +0.000 C 
ATOM     23  C   UNL     1      -7.819  10.895  20.745  0.00  0.00    +0.000 C 
ATOM     24  C   UNL     1      -7.163  12.092  21.427  0.00  0.00    +0.000 C 
ATOM     25  C   UNL     1      -7.015  13.275  20.463  0.00  0.00    +0.000 C 
BRANCH  20  26
ATOM     26  N   UNL     1      -6.245  14.014  18.250  0.00  0.00    +0.000 NA
ATOM     27  H   UNL     1      -5.301  14.394  18.190  0.00  0.00    +0.000 HD
ATOM     28  H   UNL     1      -6.836  14.749  18.628  0.00  0.00    +0.000 HD
ENDBRANCH  20  26
ENDBRANCH  19  20
ENDBRANCH   5  18
BRANCH   6  29
ATOM     29  O   UNL     1      -2.318   9.866  17.967  0.00  0.00    +0.000 OA
ATOM     30  H   UNL     1      -2.559   9.969  17.031  0.00  0.00    +0.000 HD
ENDBRANCH   6  29
TORSDOF 6
ENDMDL
MODEL 9
REMARK VINA RESULT:      -6.4      6.250     11.624
REMARK  Name = 
REMARK  7 active torsions:
REMARK  status: ('A' for Active; 'I' for Inactive)
REMARK    1  A    between atoms: C_1  and  O_2
REMARK    2  A    between atoms: O_2  and  C_3
REMARK    3  A    between atoms: C_7  and  C_8
REMARK    4  A    between atoms: C_12  and  C_13
REMARK    5  A    between atoms: C_14  and  C_15
REMARK    6  A    between atoms: C_15  and  N_16
REMARK    7  A    between atoms: C_22  and  O_23
REMARK                            x       y       z     vdW  Elec       q    Type
REMARK                         _______ _______ _______ _____ _____    ______ ____
ROOT
ATOM      1  C   UNL     1      -2.174  12.744  21.566  0.00  0.00    +0.000 A 
ATOM      2  O   UNL     1      -1.288  13.335  22.431  0.00  0.00    +0.000 OA
ATOM      3  C   UNL     1      -2.009  14.055  23.303  0.00  0.00    +0.000 A 
ATOM      4  C   UNL     1      -3.359  13.979  23.037  0.00  0.00    +0.000 A 
ATOM      5  C   UNL     1      -3.477  13.120  21.891  0.00  0.00    +0.000 A 
ATOM      6  C   UNL     1      -4.345  14.669  23.919  0.00  0.00    +0.000 C 
ATOM      7  C   UNL     1      -3.644  15.693  24.860  0.00  0.00    +0.000 C 
ATOM      8  C   UNL     1      -2.328  15.168  25.469  0.00  0.00    +0.000 C 
ATOM      9  C   UNL     1      -1.312  14.796  24.380  0.00  0.00    +0.000 C 
ENDROOT
BRANCH   1  14
ATOM     10  C   UNL     1       0.097  10.186  19.963  0.00  0.00    +0.000 A 
ATOM     11  C   UNL     1      -0.288  10.295  18.623  0.00  0.00    +0.000 A 
ATOM     12  C   UNL     1      -1.295  11.179  18.249  0.00  0.00    +0.000 A 
ATOM     13  C   UNL     1      -1.909  11.970  19.218  0.00  0.00    +0.000 A 
ATOM     14  C   UNL     1      -1.528  11.891  20.569  0.00  0.00    +0.000 A 
ATOM     15  C   UNL     1      -0.529  10.976  20.929  0.00  0.00    +0.000 A 
BRANCH  10  17
ATOM     16  C   UNL     1       0.957   8.458  21.342  0.00  0.00    +0.000 C 
ATOM     17  O   UNL     1       1.095   9.279  20.191  0.00  0.00    +0.000 OA
ENDBRANCH  10  17
ENDBRANCH   1  14
BRANCH   5  18
ATOM     18  C   UNL     1      -4.675  12.680  21.218  0.00  0.00    +0.000 C 
ATOM     19  C   UNL     1      -5.756  12.286  20.605  0.00  0.00    +0.000 C 
BRANCH  19  20
ATOM     20  C   UNL     1      -7.016  11.827  19.889  0.00  0.00    +0.000 C 
ATOM     21  C   UNL     1      -7.789  13.019  19.300  0.00  0.00    +0.000 C 
ATOM     22  C   UNL     1      -7.033  13.719  18.168  0.00  0.00    +0.000 C 
ATOM     23  C   UNL     1      -6.591  12.740  17.082  0.00  0.00    +0.000 C 
ATOM     24  C   UNL     1      -5.807  11.564  17.656  0.00  0.00    +0.000 C 
ATOM     25  C   UNL     1      -6.590  10.855  18.767  0.00  0.00    +0.000 C 
BRANCH  20  26
ATOM     26  N   UNL     1      -7.863  11.126  20.851  0.00  0.00    +0.000 NA
ATOM     27  H   UNL     1      -7.442  11.199  21.777  0.00  0.00    +0.000 HD
ATOM     28  H   UNL     1      -7.879  10.139  20.611  0.00  0.00    +0.000 HD
ENDBRANCH  20  26
ENDBRANCH  19  20
ENDBRANCH   5  18
BRANCH   6  29
ATOM     29  O   UNL     1      -5.340  15.366  23.175  0.00  0.00    +0.000 OA
ATOM     30  H   UNL     1      -4.953  15.555  22.304  0.00  0.00    +0.000 HD
ENDBRANCH   6  29
TORSDOF 6
ENDMDL
