MODEL 1
REMARK VINA RESULT:      -8.2      0.000      0.000
REMARK  Name = 
REMARK  6 active torsions:
REMARK  status: ('A' for Active; 'I' for Inactive)
REMARK    1  A    between atoms: C_1  and  C_2
REMARK    2  A    between atoms: C_2  and  C_3
REMARK    3  A    between atoms: C_2  and  N_10
REMARK    4  A    between atoms: C_3  and  N_4
REMARK    5  A    between atoms: C_12  and  C_13
REMARK    6  A    between atoms: C_13  and  C_15
REMARK                            x       y       z     vdW  Elec       q    Type
REMARK                         _______ _______ _______ _____ _____    ______ ____
ROOT
ATOM      1  N   UNL     1       2.570   6.692  19.027  0.00  0.00    +0.000 N 
ATOM      2  C   UNL     1       3.811   6.587  18.428  0.00  0.00    +0.000 A 
ATOM      3  C   UNL     1       4.410   5.396  18.786  0.00  0.00    +0.000 A 
ATOM      4  C   UNL     1       3.447   4.682  19.558  0.00  0.00    +0.000 A 
ATOM      5  C   UNL     1       3.470   3.405  20.167  0.00  0.00    +0.000 A 
ATOM      6  C   UNL     1       2.360   2.927  20.864  0.00  0.00    +0.000 A 
ATOM      7  C   UNL     1       1.215   3.695  20.930  0.00  0.00    +0.000 A 
ATOM      8  C   UNL     1       1.152   4.943  20.303  0.00  0.00    +0.000 A 
ATOM      9  C   UNL     1       2.289   5.473  19.654  0.00  0.00    +0.000 A 
ENDROOT
BRANCH   1  11
ATOM     10  C   UNL     1       2.251   9.002  17.993  0.00  0.00    +0.000 C 
ATOM     11  C   UNL     1       1.690   7.886  18.903  0.00  0.00    +0.000 C 
BRANCH  11  12
ATOM     12  C   UNL     1       1.350   8.519  20.280  0.00  0.00    +0.000 C 
BRANCH  12  13
ATOM     13  N   UNL     1      -0.055   8.827  20.636  0.00  0.00    +0.000 NA
ATOM     14  C   UNL     1      -0.307  10.282  20.411  0.00  0.00    +0.000 C 
ATOM     15  C   UNL     1       0.428  11.208  21.405  0.00  0.00    +0.000 C 
ATOM     16  O   UNL     1       0.095  10.884  22.760  0.00  0.00    +0.000 OA
ATOM     17  C   UNL     1       0.347   9.504  23.055  0.00  0.00    +0.000 C 
ATOM     18  C   UNL     1      -0.364   8.563  22.063  0.00  0.00    +0.000 C 
ENDBRANCH  12  13
ENDBRANCH  11  12
ENDBRANCH   1  11
BRANCH   3  19
ATOM     19  C   UNL     1       5.747   4.921  18.413  0.00  0.00    +0.000 C 
ATOM     20  O   UNL     1       6.627   4.744  19.249  0.00  0.00    +0.000 OA
BRANCH  19  21
ATOM     21  C   UNL     1       6.075   4.711  16.981  0.00  0.00    +0.000 A 
ATOM     22  C   UNL     1       5.412   3.736  16.217  0.00  0.00    +0.000 A 
ATOM     23  C   UNL     1       5.716   3.580  14.864  0.00  0.00    +0.000 A 
ATOM     24  C   UNL     1       6.653   4.413  14.257  0.00  0.00    +0.000 A 
ATOM     25  C   UNL     1       7.295   5.402  15.004  0.00  0.00    +0.000 A 
ATOM     26  C   UNL     1       7.005   5.544  16.359  0.00  0.00    +0.000 A 
ATOM     27  F   UNL     1       7.662   6.493  17.046  0.00  0.00    +0.000 F 
ENDBRANCH  19  21
ENDBRANCH   3  19
TORSDOF 5
ENDMDL
MODEL 2
REMARK VINA RESULT:      -8.0      0.931      1.305
REMARK  Name = 
REMARK  6 active torsions:
REMARK  status: ('A' for Active; 'I' for Inactive)
REMARK    1  A    between atoms: C_1  and  C_2
REMARK    2  A    between atoms: C_2  and  C_3
REMARK    3  A    between atoms: C_2  and  N_10
REMARK    4  A    between atoms: C_3  and  N_4
REMARK    5  A    between atoms: C_12  and  C_13
REMARK    6  A    between atoms: C_13  and  C_15
REMARK                            x       y       z     vdW  Elec       q    Type
REMARK                         _______ _______ _______ _____ _____    ______ ____
ROOT
ATOM      1  N   UNL     1       2.552   6.775  18.987  0.00  0.00    +0.000 N 
ATOM      2  C   UNL     1       3.767   6.655  18.340  0.00  0.00    +0.000 A 
ATOM      3  C   UNL     1       4.375   5.468  18.691  0.00  0.00    +0.000 A 
ATOM      4  C   UNL     1       3.442   4.770  19.512  0.00  0.00    +0.000 A 
ATOM      5  C   UNL     1       3.485   3.502  20.139  0.00  0.00    +0.000 A 
ATOM      6  C   UNL     1       2.402   3.040  20.888  0.00  0.00    +0.000 A 
ATOM      7  C   UNL     1       1.264   3.814  20.989  0.00  0.00    +0.000 A 
ATOM      8  C   UNL     1       1.180   5.053  20.346  0.00  0.00    +0.000 A 
ATOM      9  C   UNL     1       2.292   5.568  19.643  0.00  0.00    +0.000 A 
ENDROOT
BRANCH   1  11
ATOM     10  C   UNL     1       2.234   9.101  17.988  0.00  0.00    +0.000 C 
ATOM     11  C   UNL     1       1.672   7.972  18.881  0.00  0.00    +0.000 C 
BRANCH  11  12
ATOM     12  C   UNL     1       1.333   8.584  20.268  0.00  0.00    +0.000 C 
BRANCH  12  13
ATOM     13  N   UNL     1      -0.073   8.874  20.634  0.00  0.00    +0.000 NA
ATOM     14  C   UNL     1      -0.335  10.332  20.446  0.00  0.00    +0.000 C 
ATOM     15  C   UNL     1       0.395  11.238  21.462  0.00  0.00    +0.000 C 
ATOM     16  O   UNL     1       0.068  10.878  22.809  0.00  0.00    +0.000 OA
ATOM     17  C   UNL     1       0.330   9.493  23.068  0.00  0.00    +0.000 C 
ATOM     18  C   UNL     1      -0.377   8.573  22.055  0.00  0.00    +0.000 C 
ENDBRANCH  12  13
ENDBRANCH  11  12
ENDBRANCH   1  11
BRANCH   3  19
ATOM     19  C   UNL     1       5.694   4.980  18.270  0.00  0.00    +0.000 C 
ATOM     20  O   UNL     1       6.590   4.762  19.079  0.00  0.00    +0.000 OA
BRANCH  19  21
ATOM     21  C   UNL     1       5.983   4.809  16.826  0.00  0.00    +0.000 A 
ATOM     22  C   UNL     1       7.127   5.376  16.239  0.00  0.00    +0.000 A 
ATOM     23  C   UNL     1       7.394   5.174  14.884  0.00  0.00    +0.000 A 
ATOM     24  C   UNL     1       6.545   4.381  14.115  0.00  0.00    +0.000 A 
ATOM     25  C   UNL     1       5.421   3.792  14.698  0.00  0.00    +0.000 A 
ATOM     26  C   UNL     1       5.146   4.011  16.046  0.00  0.00    +0.000 A 
ATOM     27  F   UNL     1       4.042   3.445  16.562  0.00  0.00    +0.000 F 
ENDBRANCH  19  21
ENDBRANCH   3  19
TORSDOF 5
ENDMDL
MODEL 3
REMARK VINA RESULT:      -7.8      3.532      8.363
REMARK  Name = 
REMARK  6 active torsions:
REMARK  status: ('A' for Active; 'I' for Inactive)
REMARK    1  A    between atoms: C_1  and  C_2
REMARK    2  A    between atoms: C_2  and  C_3
REMARK    3  A    between atoms: C_2  and  N_10
REMARK    4  A    between atoms: C_3  and  N_4
REMARK    5  A    between atoms: C_12  and  C_13
REMARK    6  A    between atoms: C_13  and  C_15
REMARK                            x       y       z     vdW  Elec       q    Type
REMARK                         _______ _______ _______ _____ _____    ______ ____
ROOT
ATOM      1  N   UNL     1       1.323   9.032  19.508  0.00  0.00    +0.000 N 
ATOM      2  C   UNL     1       0.832   9.927  18.577  0.00  0.00    +0.000 A 
ATOM      3  C   UNL     1      -0.121  10.740  19.157  0.00  0.00    +0.000 A 
ATOM      4  C   UNL     1      -0.142  10.401  20.542  0.00  0.00    +0.000 A 
ATOM      5  C   UNL     1      -0.882  10.908  21.636  0.00  0.00    +0.000 A 
ATOM      6  C   UNL     1      -0.692  10.401  22.922  0.00  0.00    +0.000 A 
ATOM      7  C   UNL     1       0.254   9.418  23.133  0.00  0.00    +0.000 A 
ATOM      8  C   UNL     1       1.027   8.927  22.076  0.00  0.00    +0.000 A 
ATOM      9  C   UNL     1       0.798   9.378  20.757  0.00  0.00    +0.000 A 
ENDROOT
BRANCH   1  11
ATOM     10  C   UNL     1       2.795   7.961  17.721  0.00  0.00    +0.000 C 
ATOM     11  C   UNL     1       2.316   7.969  19.190  0.00  0.00    +0.000 C 
BRANCH  11  12
ATOM     12  C   UNL     1       1.792   6.547  19.529  0.00  0.00    +0.000 C 
BRANCH  12  13
ATOM     13  N   UNL     1       2.740   5.465  19.885  0.00  0.00    +0.000 NA
ATOM     14  C   UNL     1       2.964   4.600  18.687  0.00  0.00    +0.000 C 
ATOM     15  C   UNL     1       1.736   3.755  18.284  0.00  0.00    +0.000 C 
ATOM     16  O   UNL     1       1.290   2.935  19.371  0.00  0.00    +0.000 OA
ATOM     17  C   UNL     1       1.022   3.710  20.547  0.00  0.00    +0.000 C 
ATOM     18  C   UNL     1       2.230   4.574  20.956  0.00  0.00    +0.000 C 
ENDBRANCH  12  13
ENDBRANCH  11  12
ENDBRANCH   1  11
BRANCH   3  19
ATOM     19  C   UNL     1      -0.922  11.783  18.507  0.00  0.00    +0.000 C 
ATOM     20  O   UNL     1      -0.444  12.873  18.209  0.00  0.00    +0.000 OA
BRANCH  19  21
ATOM     21  C   UNL     1      -2.366  11.549  18.262  0.00  0.00    +0.000 A 
ATOM     22  C   UNL     1      -3.347  12.107  19.099  0.00  0.00    +0.000 A 
ATOM     23  C   UNL     1      -4.701  11.899  18.829  0.00  0.00    +0.000 A 
ATOM     24  C   UNL     1      -5.085  11.165  17.709  0.00  0.00    +0.000 A 
ATOM     25  C   UNL     1      -4.116  10.631  16.858  0.00  0.00    +0.000 A 
ATOM     26  C   UNL     1      -2.765  10.823  17.140  0.00  0.00    +0.000 A 
ATOM     27  F   UNL     1      -1.865  10.273  16.309  0.00  0.00    +0.000 F 
ENDBRANCH  19  21
ENDBRANCH   3  19
TORSDOF 5
ENDMDL
MODEL 4
REMARK VINA RESULT:      -7.7      3.683      8.376
REMARK  Name = 
REMARK  6 active torsions:
REMARK  status: ('A' for Active; 'I' for Inactive)
REMARK    1  A    between atoms: C_1  and  C_2
REMARK    2  A    between atoms: C_2  and  C_3
REMARK    3  A    between atoms: C_2  and  N_10
REMARK    4  A    between atoms: C_3  and  N_4
REMARK    5  A    between atoms: C_12  and  C_13
REMARK    6  A    between atoms: C_13  and  C_15
REMARK                            x       y       z     vdW  Elec       q    Type
REMARK                         _______ _______ _______ _____ _____    ______ ____
ROOT
ATOM      1  N   UNL     1       1.379   9.009  19.454  0.00  0.00    +0.000 N 
ATOM      2  C   UNL     1       0.930   9.932  18.528  0.00  0.00    +0.000 A 
ATOM      3  C   UNL     1       0.000  10.770  19.109  0.00  0.00    +0.000 A 
ATOM      4  C   UNL     1      -0.048  10.417  20.489  0.00  0.00    +0.000 A 
ATOM      5  C   UNL     1      -0.782  10.936  21.582  0.00  0.00    +0.000 A 
ATOM      6  C   UNL     1      -0.623  10.408  22.863  0.00  0.00    +0.000 A 
ATOM      7  C   UNL     1       0.285   9.390  23.072  0.00  0.00    +0.000 A 
ATOM      8  C   UNL     1       1.052   8.885  22.017  0.00  0.00    +0.000 A 
ATOM      9  C   UNL     1       0.853   9.359  20.702  0.00  0.00    +0.000 A 
ENDROOT
BRANCH   1  11
ATOM     10  C   UNL     1       2.924   7.978  17.706  0.00  0.00    +0.000 C 
ATOM     11  C   UNL     1       2.338   7.915  19.133  0.00  0.00    +0.000 C 
BRANCH  11  12
ATOM     12  C   UNL     1       1.718   6.505  19.334  0.00  0.00    +0.000 C 
BRANCH  12  13
ATOM     13  N   UNL     1       2.304   5.563  20.316  0.00  0.00    +0.000 NA
ATOM     14  C   UNL     1       3.513   4.923  19.715  0.00  0.00    +0.000 C 
ATOM     15  C   UNL     1       3.199   3.944  18.563  0.00  0.00    +0.000 C 
ATOM     16  O   UNL     1       2.293   2.918  18.985  0.00  0.00    +0.000 OA
ATOM     17  C   UNL     1       1.091   3.466  19.542  0.00  0.00    +0.000 C 
ATOM     18  C   UNL     1       1.384   4.459  20.683  0.00  0.00    +0.000 C 
ENDBRANCH  12  13
ENDBRANCH  11  12
ENDBRANCH   1  11
BRANCH   3  19
ATOM     19  C   UNL     1      -0.756  11.849  18.463  0.00  0.00    +0.000 C 
ATOM     20  O   UNL     1      -0.294  12.979  18.341  0.00  0.00    +0.000 OA
BRANCH  19  21
ATOM     21  C   UNL     1      -2.144  11.595  18.005  0.00  0.00    +0.000 A 
ATOM     22  C   UNL     1      -2.401  10.926  16.796  0.00  0.00    +0.000 A 
ATOM     23  C   UNL     1      -3.716  10.671  16.402  0.00  0.00    +0.000 A 
ATOM     24  C   UNL     1      -4.777  11.047  17.222  0.00  0.00    +0.000 A 
ATOM     25  C   UNL     1      -4.527  11.687  18.438  0.00  0.00    +0.000 A 
ATOM     26  C   UNL     1      -3.215  11.959  18.820  0.00  0.00    +0.000 A 
ATOM     27  F   UNL     1      -3.020  12.596  19.986  0.00  0.00    +0.000 F 
ENDBRANCH  19  21
ENDBRANCH   3  19
TORSDOF 5
ENDMDL
MODEL 5
REMARK VINA RESULT:      -7.6      3.927      8.231
REMARK  Name = 
REMARK  6 active torsions:
REMARK  status: ('A' for Active; 'I' for Inactive)
REMARK    1  A    between atoms: C_1  and  C_2
REMARK    2  A    between atoms: C_2  and  C_3
REMARK    3  A    between atoms: C_2  and  N_10
REMARK    4  A    between atoms: C_3  and  N_4
REMARK    5  A    between atoms: C_12  and  C_13
REMARK    6  A    between atoms: C_13  and  C_15
REMARK                            x       y       z     vdW  Elec       q    Type
REMARK                         _______ _______ _______ _____ _____    ______ ____
ROOT
ATOM      1  N   UNL     1       1.457   8.870  19.524  0.00  0.00    +0.000 N 
ATOM      2  C   UNL     1       1.027   9.772  18.570  0.00  0.00    +0.000 A 
ATOM      3  C   UNL     1       0.096  10.632  19.117  0.00  0.00    +0.000 A 
ATOM      4  C   UNL     1       0.028  10.314  20.505  0.00  0.00    +0.000 A 
ATOM      5  C   UNL     1      -0.716  10.866  21.575  0.00  0.00    +0.000 A 
ATOM      6  C   UNL     1      -0.578  10.368  22.871  0.00  0.00    +0.000 A 
ATOM      7  C   UNL     1       0.320   9.349  23.117  0.00  0.00    +0.000 A 
ATOM      8  C   UNL     1       1.096   8.812  22.085  0.00  0.00    +0.000 A 
ATOM      9  C   UNL     1       0.918   9.255  20.756  0.00  0.00    +0.000 A 
ENDROOT
BRANCH   1  11
ATOM     10  C   UNL     1       2.990   7.764  17.811  0.00  0.00    +0.000 C 
ATOM     11  C   UNL     1       2.412   7.762  19.243  0.00  0.00    +0.000 C 
BRANCH  11  12
ATOM     12  C   UNL     1       1.790   6.363  19.506  0.00  0.00    +0.000 C 
BRANCH  12  13
ATOM     13  N   UNL     1       2.538   5.134  19.152  0.00  0.00    +0.000 NA
ATOM     14  C   UNL     1       1.574   4.099  18.670  0.00  0.00    +0.000 C 
ATOM     15  C   UNL     1       0.650   3.538  19.773  0.00  0.00    +0.000 C 
ATOM     16  O   UNL     1       1.408   2.995  20.860  0.00  0.00    +0.000 OA
ATOM     17  C   UNL     1       2.332   3.952  21.395  0.00  0.00    +0.000 C 
ATOM     18  C   UNL     1       3.253   4.536  20.306  0.00  0.00    +0.000 C 
ENDBRANCH  12  13
ENDBRANCH  11  12
ENDBRANCH   1  11
BRANCH   3  19
ATOM     19  C   UNL     1      -0.644  11.700  18.435  0.00  0.00    +0.000 C 
ATOM     20  O   UNL     1      -0.175  12.825  18.298  0.00  0.00    +0.000 OA
BRANCH  19  21
ATOM     21  C   UNL     1      -2.024  11.441  17.957  0.00  0.00    +0.000 A 
ATOM     22  C   UNL     1      -2.263  10.715  16.778  0.00  0.00    +0.000 A 
ATOM     23  C   UNL     1      -3.571  10.457  16.366  0.00  0.00    +0.000 A 
ATOM     24  C   UNL     1      -4.646  10.889  17.140  0.00  0.00    +0.000 A 
ATOM     25  C   UNL     1      -4.415  11.587  18.327  0.00  0.00    +0.000 A 
ATOM     26  C   UNL     1      -3.109  11.860  18.727  0.00  0.00    +0.000 A 
ATOM     27  F   UNL     1      -2.932  12.553  19.863  0.00  0.00    +0.000 F 
ENDBRANCH  19  21
ENDBRANCH   3  19
TORSDOF 5
ENDMDL
MODEL 6
REMARK VINA RESULT:      -7.4      0.715      1.179
REMARK  Name = 
REMARK  6 active torsions:
REMARK  status: ('A' for Active; 'I' for Inactive)
REMARK    1  A    between atoms: C_1  and  C_2
REMARK    2  A    between atoms: C_2  and  C_3
REMARK    3  A    between atoms: C_2  and  N_10
REMARK    4  A    between atoms: C_3  and  N_4
REMARK    5  A    between atoms: C_12  and  C_13
REMARK    6  A    between atoms: C_13  and  C_15
REMARK                            x       y       z     vdW  Elec       q    Type
REMARK                         _______ _______ _______ _____ _____    ______ ____
ROOT
ATOM      1  N   UNL     1       2.366   6.537  19.440  0.00  0.00    +0.000 N 
ATOM      2  C   UNL     1       3.640   6.576  18.907  0.00  0.00    +0.000 A 
ATOM      3  C   UNL     1       4.304   5.398  19.179  0.00  0.00    +0.000 A 
ATOM      4  C   UNL     1       3.357   4.546  19.819  0.00  0.00    +0.000 A 
ATOM      5  C   UNL     1       3.440   3.217  20.299  0.00  0.00    +0.000 A 
ATOM      6  C   UNL     1       2.333   2.598  20.880  0.00  0.00    +0.000 A 
ATOM      7  C   UNL     1       1.134   3.277  20.954  0.00  0.00    +0.000 A 
ATOM      8  C   UNL     1       1.014   4.576  20.452  0.00  0.00    +0.000 A 
ATOM      9  C   UNL     1       2.142   5.245  19.925  0.00  0.00    +0.000 A 
ENDROOT
BRANCH   1  11
ATOM     10  C   UNL     1       1.923   8.902  18.594  0.00  0.00    +0.000 C 
ATOM     11  C   UNL     1       1.410   7.677  19.383  0.00  0.00    +0.000 C 
BRANCH  11  12
ATOM     12  C   UNL     1       0.982   8.163  20.795  0.00  0.00    +0.000 C 
BRANCH  12  13
ATOM     13  N   UNL     1       1.525   9.426  21.348  0.00  0.00    +0.000 NA
ATOM     14  C   UNL     1       1.416   9.393  22.837  0.00  0.00    +0.000 C 
ATOM     15  C   UNL     1      -0.034   9.475  23.363  0.00  0.00    +0.000 C 
ATOM     16  O   UNL     1      -0.697  10.647  22.875  0.00  0.00    +0.000 OA
ATOM     17  C   UNL     1      -0.660  10.724  21.445  0.00  0.00    +0.000 C 
ATOM     18  C   UNL     1       0.778  10.626  20.899  0.00  0.00    +0.000 C 
ENDBRANCH  12  13
ENDBRANCH  11  12
ENDBRANCH   1  11
BRANCH   3  19
ATOM     19  C   UNL     1       5.689   5.053  18.839  0.00  0.00    +0.000 C 
ATOM     20  O   UNL     1       6.575   5.022  19.688  0.00  0.00    +0.000 OA
BRANCH  19  21
ATOM     21  C   UNL     1       6.053   4.800  17.423  0.00  0.00    +0.000 A 
ATOM     22  C   UNL     1       5.359   3.854  16.650  0.00  0.00    +0.000 A 
ATOM     23  C   UNL     1       5.699   3.657  15.311  0.00  0.00    +0.000 A 
ATOM     24  C   UNL     1       6.706   4.423  14.725  0.00  0.00    +0.000 A 
ATOM     25  C   UNL     1       7.380   5.385  15.480  0.00  0.00    +0.000 A 
ATOM     26  C   UNL     1       7.052   5.566  16.822  0.00  0.00    +0.000 A 
ATOM     27  F   UNL     1       7.741   6.485  17.519  0.00  0.00    +0.000 F 
ENDBRANCH  19  21
ENDBRANCH   3  19
TORSDOF 5
ENDMDL
MODEL 7
REMARK VINA RESULT:      -7.4      6.633      9.485
REMARK  Name = 
REMARK  6 active torsions:
REMARK  status: ('A' for Active; 'I' for Inactive)
REMARK    1  A    between atoms: C_1  and  C_2
REMARK    2  A    between atoms: C_2  and  C_3
REMARK    3  A    between atoms: C_2  and  N_10
REMARK    4  A    between atoms: C_3  and  N_4
REMARK    5  A    between atoms: C_12  and  C_13
REMARK    6  A    between atoms: C_13  and  C_15
REMARK                            x       y       z     vdW  Elec       q    Type
REMARK                         _______ _______ _______ _____ _____    ______ ____
ROOT
ATOM      1  N   UNL     1      -4.632  12.193  18.966  0.00  0.00    +0.000 N 
ATOM      2  C   UNL     1      -3.573  12.497  19.800  0.00  0.00    +0.000 A 
ATOM      3  C   UNL     1      -2.403  11.971  19.292  0.00  0.00    +0.000 A 
ATOM      4  C   UNL     1      -2.738  11.407  18.025  0.00  0.00    +0.000 A 
ATOM      5  C   UNL     1      -1.962  10.761  17.034  0.00  0.00    +0.000 A 
ATOM      6  C   UNL     1      -2.548  10.312  15.850  0.00  0.00    +0.000 A 
ATOM      7  C   UNL     1      -3.892  10.531  15.630  0.00  0.00    +0.000 A 
ATOM      8  C   UNL     1      -4.674  11.202  16.576  0.00  0.00    +0.000 A 
ATOM      9  C   UNL     1      -4.113  11.600  17.810  0.00  0.00    +0.000 A 
ENDROOT
BRANCH   1  11
ATOM     10  C   UNL     1      -6.446  13.981  18.821  0.00  0.00    +0.000 C 
ATOM     11  C   UNL     1      -6.047  12.554  19.259  0.00  0.00    +0.000 C 
BRANCH  11  12
ATOM     12  C   UNL     1      -6.398  12.402  20.765  0.00  0.00    +0.000 C 
BRANCH  12  13
ATOM     13  N   UNL     1      -6.800  13.584  21.562  0.00  0.00    +0.000 NA
ATOM     14  C   UNL     1      -5.645  14.020  22.404  0.00  0.00    +0.000 C 
ATOM     15  C   UNL     1      -5.291  13.039  23.543  0.00  0.00    +0.000 C 
ATOM     16  O   UNL     1      -6.419  12.800  24.392  0.00  0.00    +0.000 OA
ATOM     17  C   UNL     1      -7.557  12.344  23.650  0.00  0.00    +0.000 C 
ATOM     18  C   UNL     1      -7.917  13.301  22.498  0.00  0.00    +0.000 C 
ENDBRANCH  12  13
ENDBRANCH  11  12
ENDBRANCH   1  11
BRANCH   3  19
ATOM     19  C   UNL     1      -1.065  12.020  19.893  0.00  0.00    +0.000 C 
ATOM     20  O   UNL     1      -0.223  12.835  19.530  0.00  0.00    +0.000 OA
BRANCH  19  21
ATOM     21  C   UNL     1      -0.689  11.016  20.918  0.00  0.00    +0.000 A 
ATOM     22  C   UNL     1      -0.996  11.210  22.275  0.00  0.00    +0.000 A 
ATOM     23  C   UNL     1      -0.659  10.236  23.216  0.00  0.00    +0.000 A 
ATOM     24  C   UNL     1      -0.047   9.052  22.809  0.00  0.00    +0.000 A 
ATOM     25  C   UNL     1       0.236   8.842  21.458  0.00  0.00    +0.000 A 
ATOM     26  C   UNL     1      -0.083   9.823  20.523  0.00  0.00    +0.000 A 
ATOM     27  F   UNL     1       0.227   9.590  19.237  0.00  0.00    +0.000 F 
ENDBRANCH  19  21
ENDBRANCH   3  19
TORSDOF 5
ENDMDL
MODEL 8
REMARK VINA RESULT:      -7.3      1.128      1.734
REMARK  Name = 
REMARK  6 active torsions:
REMARK  status: ('A' for Active; 'I' for Inactive)
REMARK    1  A    between atoms: C_1  and  C_2
REMARK    2  A    between atoms: C_2  and  C_3
REMARK    3  A    between atoms: C_2  and  N_10
REMARK    4  A    between atoms: C_3  and  N_4
REMARK    5  A    between atoms: C_12  and  C_13
REMARK    6  A    between atoms: C_13  and  C_15
REMARK                            x       y       z     vdW  Elec       q    Type
REMARK                         _______ _______ _______ _____ _____    ______ ____
ROOT
ATOM      1  N   UNL     1       2.428   6.449  19.350  0.00  0.00    +0.000 N 
ATOM      2  C   UNL     1       3.670   6.430  18.744  0.00  0.00    +0.000 A 
ATOM      3  C   UNL     1       4.317   5.244  19.025  0.00  0.00    +0.000 A 
ATOM      4  C   UNL     1       3.385   4.446  19.753  0.00  0.00    +0.000 A 
ATOM      5  C   UNL     1       3.461   3.136  20.281  0.00  0.00    +0.000 A 
ATOM      6  C   UNL     1       2.373   2.572  20.949  0.00  0.00    +0.000 A 
ATOM      7  C   UNL     1       1.199   3.289  21.064  0.00  0.00    +0.000 A 
ATOM      8  C   UNL     1       1.085   4.571  20.516  0.00  0.00    +0.000 A 
ATOM      9  C   UNL     1       2.198   5.184  19.900  0.00  0.00    +0.000 A 
ENDROOT
BRANCH   1  11
ATOM     10  C   UNL     1       2.044   8.829  18.517  0.00  0.00    +0.000 C 
ATOM     11  C   UNL     1       1.502   7.614  19.302  0.00  0.00    +0.000 C 
BRANCH  11  12
ATOM     12  C   UNL     1       1.091   8.104  20.717  0.00  0.00    +0.000 C 
BRANCH  12  13
ATOM     13  N   UNL     1       1.581   9.406  21.229  0.00  0.00    +0.000 NA
ATOM     14  C   UNL     1       1.490   9.408  22.721  0.00  0.00    +0.000 C 
ATOM     15  C   UNL     1       0.044   9.437  23.262  0.00  0.00    +0.000 C 
ATOM     16  O   UNL     1      -0.680  10.563  22.752  0.00  0.00    +0.000 OA
ATOM     17  C   UNL     1      -0.663  10.602  21.320  0.00  0.00    +0.000 C 
ATOM     18  C   UNL     1       0.772  10.557  20.758  0.00  0.00    +0.000 C 
ENDBRANCH  12  13
ENDBRANCH  11  12
ENDBRANCH   1  11
BRANCH   3  19
ATOM     19  C   UNL     1       5.670   4.846  18.621  0.00  0.00    +0.000 C 
ATOM     20  O   UNL     1       6.562   4.662  19.444  0.00  0.00    +0.000 OA
BRANCH  19  21
ATOM     21  C   UNL     1       5.996   4.726  17.180  0.00  0.00    +0.000 A 
ATOM     22  C   UNL     1       7.087   5.412  16.619  0.00  0.00    +0.000 A 
ATOM     23  C   UNL     1       7.392   5.257  15.266  0.00  0.00    +0.000 A 
ATOM     24  C   UNL     1       6.638   4.396  14.473  0.00  0.00    +0.000 A 
ATOM     25  C   UNL     1       5.570   3.690  15.030  0.00  0.00    +0.000 A 
ATOM     26  C   UNL     1       5.254   3.860  16.376  0.00  0.00    +0.000 A 
ATOM     27  F   UNL     1       4.205   3.180  16.866  0.00  0.00    +0.000 F 
ENDBRANCH  19  21
ENDBRANCH   3  19
TORSDOF 5
ENDMDL
MODEL 9
REMARK VINA RESULT:      -7.3      2.976      7.114
REMARK  Name = 
REMARK  6 active torsions:
REMARK  status: ('A' for Active; 'I' for Inactive)
REMARK    1  A    between atoms: C_1  and  C_2
REMARK    2  A    between atoms: C_2  and  C_3
REMARK    3  A    between atoms: C_2  and  N_10
REMARK    4  A    between atoms: C_3  and  N_4
REMARK    5  A    between atoms: C_12  and  C_13
REMARK    6  A    between atoms: C_13  and  C_15
REMARK                            x       y       z     vdW  Elec       q    Type
REMARK                         _______ _______ _______ _____ _____    ______ ____
ROOT
ATOM      1  N   UNL     1       5.234   4.808  18.719  0.00  0.00    +0.000 N 
ATOM      2  C   UNL     1       4.611   5.820  19.423  0.00  0.00    +0.000 A 
ATOM      3  C   UNL     1       3.256   5.574  19.508  0.00  0.00    +0.000 A 
ATOM      4  C   UNL     1       3.047   4.292  18.919  0.00  0.00    +0.000 A 
ATOM      5  C   UNL     1       1.888   3.500  18.743  0.00  0.00    +0.000 A 
ATOM      6  C   UNL     1       1.966   2.245  18.139  0.00  0.00    +0.000 A 
ATOM      7  C   UNL     1       3.193   1.757  17.740  0.00  0.00    +0.000 A 
ATOM      8  C   UNL     1       4.360   2.501  17.938  0.00  0.00    +0.000 A 
ATOM      9  C   UNL     1       4.291   3.803  18.483  0.00  0.00    +0.000 A 
ENDROOT
BRANCH   1  11
ATOM     10  C   UNL     1       7.419   6.125  18.707  0.00  0.00    +0.000 C 
ATOM     11  C   UNL     1       6.687   4.803  18.389  0.00  0.00    +0.000 C 
BRANCH  11  12
ATOM     12  C   UNL     1       6.955   4.454  16.899  0.00  0.00    +0.000 C 
BRANCH  12  13
ATOM     13  N   UNL     1       6.833   5.497  15.854  0.00  0.00    +0.000 NA
ATOM     14  C   UNL     1       5.386   5.759  15.593  0.00  0.00    +0.000 C 
ATOM     15  C   UNL     1       4.652   4.595  14.893  0.00  0.00    +0.000 C 
ATOM     16  O   UNL     1       5.289   4.247  13.659  0.00  0.00    +0.000 OA
ATOM     17  C   UNL     1       6.679   3.947  13.843  0.00  0.00    +0.000 C 
ATOM     18  C   UNL     1       7.426   5.091  14.555  0.00  0.00    +0.000 C 
ENDBRANCH  12  13
ENDBRANCH  11  12
ENDBRANCH   1  11
BRANCH   3  19
ATOM     19  C   UNL     1       2.229   6.423  20.122  0.00  0.00    +0.000 C 
ATOM     20  O   UNL     1       1.554   6.036  21.072  0.00  0.00    +0.000 OA
BRANCH  19  21
ATOM     21  C   UNL     1       1.944   7.759  19.545  0.00  0.00    +0.000 A 
ATOM     22  C   UNL     1       2.240   8.051  18.203  0.00  0.00    +0.000 A 
ATOM     23  C   UNL     1       1.933   9.306  17.674  0.00  0.00    +0.000 A 
ATOM     24  C   UNL     1       1.300  10.262  18.465  0.00  0.00    +0.000 A 
ATOM     25  C   UNL     1       0.979   9.969  19.792  0.00  0.00    +0.000 A 
ATOM     26  C   UNL     1       1.304   8.722  20.323  0.00  0.00    +0.000 A 
ATOM     27  F   UNL     1       0.997   8.489  21.610  0.00  0.00    +0.000 F 
ENDBRANCH  19  21
ENDBRANCH   3  19
TORSDOF 5
ENDMDL
