MODEL 1
REMARK VINA RESULT:      -7.5      0.000      0.000
REMARK  Name = 
REMARK  8 active torsions:
REMARK  status: ('A' for Active; 'I' for Inactive)
REMARK    1  A    between atoms: C_1  and  O_2
REMARK    2  A    between atoms: O_2  and  C_3
REMARK    3  A    between atoms: C_5  and  O_6
REMARK    4  A    between atoms: O_6  and  C_7
REMARK    5  A    between atoms: C_8  and  C_9
REMARK    6  A    between atoms: C_14  and  N_15
REMARK    7  A    between atoms: N_18  and  C_19
REMARK    8  A    between atoms: C_23  and  C_24
REMARK                            x       y       z     vdW  Elec       q    Type
REMARK                         _______ _______ _______ _____ _____    ______ ____
ROOT
ATOM      1  C   UNL     1      -2.697  12.982  21.263  0.00  0.00    +0.000 A 
ATOM      2  C   UNL     1      -2.938  12.649  19.951  0.00  0.00    +0.000 A 
ATOM      3  N   UNL     1      -1.968  11.748  19.607  0.00  0.00    +0.000 N 
ATOM      4  C   UNL     1      -1.766  11.101  18.401  0.00  0.00    +0.000 A 
ATOM      5  C   UNL     1      -0.740  10.249  18.286  0.00  0.00    +0.000 A 
ATOM      6  C   UNL     1       0.162  10.011  19.424  0.00  0.00    +0.000 A 
ATOM      7  C   UNL     1      -0.076  10.662  20.591  0.00  0.00    +0.000 A 
ATOM      8  C   UNL     1      -1.168  11.564  20.720  0.00  0.00    +0.000 A 
ATOM      9  N   UNL     1      -1.588  12.296  21.730  0.00  0.00    +0.000 NA
ENDROOT
BRANCH   1  13
ATOM     10  C   UNL     1      -5.057  15.576  23.731  0.00  0.00    +0.000 A 
ATOM     11  C   UNL     1      -3.827  16.012  23.238  0.00  0.00    +0.000 A 
ATOM     12  C   UNL     1      -3.020  15.223  22.412  0.00  0.00    +0.000 A 
ATOM     13  C   UNL     1      -3.443  13.921  22.096  0.00  0.00    +0.000 A 
ATOM     14  C   UNL     1      -4.671  13.464  22.630  0.00  0.00    +0.000 A 
ATOM     15  C   UNL     1      -5.472  14.284  23.431  0.00  0.00    +0.000 A 
ATOM     16 CL   UNL     1      -6.987  13.672  23.986  0.00  0.00    +0.000 Cl
BRANCH  10  18
ATOM     17  C   UNL     1      -5.138  17.484  25.110  0.00  0.00    +0.000 C 
ATOM     18  O   UNL     1      -5.839  16.390  24.512  0.00  0.00    +0.000 OA
ENDBRANCH  10  18
BRANCH  12  19
ATOM     19  O   UNL     1      -1.863  15.744  21.879  0.00  0.00    +0.000 OA
ATOM     20  C   UNL     1      -0.932  16.324  22.797  0.00  0.00    +0.000 C 
ENDBRANCH  12  19
ENDBRANCH   1  13
BRANCH   6  21
ATOM     21  N   UNL     1       1.229   9.140  19.239  0.00  0.00    +0.000 N 
ATOM     22  C   UNL     1       1.806   8.305  20.317  0.00  0.00    +0.000 C 
ATOM     23  C   UNL     1       2.061   6.868  19.816  0.00  0.00    +0.000 C 
ATOM     24  N   UNL     1       2.909   6.905  18.612  0.00  0.00    +0.000 N 
ATOM     25  C   UNL     1       2.377   7.744  17.521  0.00  0.00    +0.000 C 
ATOM     26  C   UNL     1       2.088   9.171  18.029  0.00  0.00    +0.000 C 
BRANCH  24  27
ATOM     27  C   UNL     1       4.021   6.112  18.464  0.00  0.00    +0.000 A 
ATOM     28  C   UNL     1       4.361   5.147  19.416  0.00  0.00    +0.000 A 
ATOM     29  C   UNL     1       5.469   4.337  19.224  0.00  0.00    +0.000 A 
ATOM     30  N   UNL     1       6.278   4.420  18.152  0.00  0.00    +0.000 NA
ATOM     31  C   UNL     1       5.955   5.358  17.231  0.00  0.00    +0.000 A 
ATOM     32  C   UNL     1       4.852   6.202  17.345  0.00  0.00    +0.000 A 
BRANCH  31  33
ATOM     33  C   UNL     1       6.817   5.447  16.099  0.00  0.00    +0.000 C 
ATOM     34  N   UNL     1       7.489   5.488  15.145  0.00  0.00    +0.000 NA
ENDBRANCH  31  33
ENDBRANCH  24  27
ENDBRANCH   6  21
TORSDOF 6
ENDMDL
MODEL 2
REMARK VINA RESULT:      -7.4      5.098     12.304
REMARK  Name = 
REMARK  8 active torsions:
REMARK  status: ('A' for Active; 'I' for Inactive)
REMARK    1  A    between atoms: C_1  and  O_2
REMARK    2  A    between atoms: O_2  and  C_3
REMARK    3  A    between atoms: C_5  and  O_6
REMARK    4  A    between atoms: O_6  and  C_7
REMARK    5  A    between atoms: C_8  and  C_9
REMARK    6  A    between atoms: C_14  and  N_15
REMARK    7  A    between atoms: N_18  and  C_19
REMARK    8  A    between atoms: C_23  and  C_24
REMARK                            x       y       z     vdW  Elec       q    Type
REMARK                         _______ _______ _______ _____ _____    ______ ____
ROOT
ATOM      1  C   UNL     1       2.733   6.847  18.838  0.00  0.00    +0.000 A 
ATOM      2  C   UNL     1       2.301   6.633  20.126  0.00  0.00    +0.000 A 
ATOM      3  N   UNL     1       1.567   7.735  20.465  0.00  0.00    +0.000 N 
ATOM      4  C   UNL     1       0.909   8.016  21.649  0.00  0.00    +0.000 A 
ATOM      5  C   UNL     1       0.243   9.172  21.763  0.00  0.00    +0.000 A 
ATOM      6  C   UNL     1       0.219  10.131  20.649  0.00  0.00    +0.000 A 
ATOM      7  C   UNL     1       0.873   9.814  19.502  0.00  0.00    +0.000 A 
ATOM      8  C   UNL     1       1.577   8.584  19.373  0.00  0.00    +0.000 A 
ATOM      9  N   UNL     1       2.272   8.070  18.381  0.00  0.00    +0.000 NA
ENDROOT
BRANCH   1  13
ATOM     10  C   UNL     1       5.353   4.428  16.455  0.00  0.00    +0.000 A 
ATOM     11  C   UNL     1       4.055   3.994  16.724  0.00  0.00    +0.000 A 
ATOM     12  C   UNL     1       3.145   4.745  17.474  0.00  0.00    +0.000 A 
ATOM     13  C   UNL     1       3.566   5.969  18.020  0.00  0.00    +0.000 A 
ATOM     14  C   UNL     1       4.895   6.390  17.783  0.00  0.00    +0.000 A 
ATOM     15  C   UNL     1       5.776   5.634  17.004  0.00  0.00    +0.000 A 
ATOM     16 CL   UNL     1       7.359   6.253  16.708  0.00  0.00    +0.000 Cl
BRANCH  10  18
ATOM     17  C   UNL     1       6.103   3.929  14.279  0.00  0.00    +0.000 C 
ATOM     18  O   UNL     1       6.208   3.682  15.684  0.00  0.00    +0.000 OA
ENDBRANCH  10  18
BRANCH  12  19
ATOM     19  O   UNL     1       1.849   4.307  17.624  0.00  0.00    +0.000 OA
ATOM     20  C   UNL     1       1.649   3.130  18.412  0.00  0.00    +0.000 C 
ENDBRANCH  12  19
ENDBRANCH   1  13
BRANCH   6  21
ATOM     21  N   UNL     1      -0.462  11.328  20.834  0.00  0.00    +0.000 N 
ATOM     22  C   UNL     1      -0.627  11.986  22.150  0.00  0.00    +0.000 C 
ATOM     23  C   UNL     1      -0.366  13.503  22.038  0.00  0.00    +0.000 C 
ATOM     24  N   UNL     1      -1.237  14.082  21.002  0.00  0.00    +0.000 N 
ATOM     25  C   UNL     1      -1.116  13.439  19.679  0.00  0.00    +0.000 C 
ATOM     26  C   UNL     1      -1.342  11.918  19.795  0.00  0.00    +0.000 C 
BRANCH  24  27
ATOM     27  C   UNL     1      -1.988  15.213  21.212  0.00  0.00    +0.000 A 
ATOM     28  C   UNL     1      -1.898  16.317  20.359  0.00  0.00    +0.000 A 
ATOM     29  C   UNL     1      -2.692  17.432  20.575  0.00  0.00    +0.000 A 
ATOM     30  N   UNL     1      -3.571  17.538  21.587  0.00  0.00    +0.000 NA
ATOM     31  C   UNL     1      -3.657  16.473  22.418  0.00  0.00    +0.000 A 
ATOM     32  C   UNL     1      -2.902  15.312  22.263  0.00  0.00    +0.000 A 
BRANCH  31  33
ATOM     33  C   UNL     1      -4.586  16.590  23.493  0.00  0.00    +0.000 C 
ATOM     34  N   UNL     1      -5.331  16.738  24.380  0.00  0.00    +0.000 NA
ENDBRANCH  31  33
ENDBRANCH  24  27
ENDBRANCH   6  21
TORSDOF 6
ENDMDL
MODEL 3
REMARK VINA RESULT:      -7.3      5.535     12.518
REMARK  Name = 
REMARK  8 active torsions:
REMARK  status: ('A' for Active; 'I' for Inactive)
REMARK    1  A    between atoms: C_1  and  O_2
REMARK    2  A    between atoms: O_2  and  C_3
REMARK    3  A    between atoms: C_5  and  O_6
REMARK    4  A    between atoms: O_6  and  C_7
REMARK    5  A    between atoms: C_8  and  C_9
REMARK    6  A    between atoms: C_14  and  N_15
REMARK    7  A    between atoms: N_18  and  C_19
REMARK    8  A    between atoms: C_23  and  C_24
REMARK                            x       y       z     vdW  Elec       q    Type
REMARK                         _______ _______ _______ _____ _____    ______ ____
ROOT
ATOM      1  C   UNL     1       4.311   5.940  17.383  0.00  0.00    +0.000 A 
ATOM      2  C   UNL     1       3.842   5.206  18.448  0.00  0.00    +0.000 A 
ATOM      3  N   UNL     1       3.004   6.038  19.137  0.00  0.00    +0.000 N 
ATOM      4  C   UNL     1       2.273   5.785  20.284  0.00  0.00    +0.000 A 
ATOM      5  C   UNL     1       1.507   6.759  20.793  0.00  0.00    +0.000 A 
ATOM      6  C   UNL     1       1.453   8.079  20.146  0.00  0.00    +0.000 A 
ATOM      7  C   UNL     1       2.181   8.283  19.019  0.00  0.00    +0.000 A 
ATOM      8  C   UNL     1       2.991   7.250  18.470  0.00  0.00    +0.000 A 
ATOM      9  N   UNL     1       3.771   7.215  17.410  0.00  0.00    +0.000 NA
ENDROOT
BRANCH   1  13
ATOM     10  C   UNL     1       6.890   4.589  14.233  0.00  0.00    +0.000 A 
ATOM     11  C   UNL     1       7.422   5.275  15.324  0.00  0.00    +0.000 A 
ATOM     12  C   UNL     1       6.640   5.723  16.393  0.00  0.00    +0.000 A 
ATOM     13  C   UNL     1       5.251   5.511  16.350  0.00  0.00    +0.000 A 
ATOM     14  C   UNL     1       4.706   4.852  15.224  0.00  0.00    +0.000 A 
ATOM     15  C   UNL     1       5.515   4.389  14.182  0.00  0.00    +0.000 A 
ATOM     16 CL   UNL     1       4.776   3.535  12.877  0.00  0.00    +0.000 Cl
BRANCH  10  18
ATOM     17  C   UNL     1       7.896   5.074  12.159  0.00  0.00    +0.000 C 
ATOM     18  O   UNL     1       7.693   4.133  13.218  0.00  0.00    +0.000 OA
ENDBRANCH  10  18
BRANCH  12  19
ATOM     19  O   UNL     1       7.236   6.309  17.486  0.00  0.00    +0.000 OA
ATOM     20  C   UNL     1       7.467   5.474  18.624  0.00  0.00    +0.000 C 
ENDBRANCH  12  19
ENDBRANCH   1  13
BRANCH   6  21
ATOM     21  N   UNL     1       0.666   9.061  20.735  0.00  0.00    +0.000 N 
ATOM     22  C   UNL     1      -0.369   8.784  21.758  0.00  0.00    +0.000 C 
ATOM     23  C   UNL     1      -0.284   9.806  22.910  0.00  0.00    +0.000 C 
ATOM     24  N   UNL     1      -0.375  11.173  22.369  0.00  0.00    +0.000 N 
ATOM     25  C   UNL     1       0.628  11.482  21.331  0.00  0.00    +0.000 C 
ATOM     26  C   UNL     1       0.569  10.440  20.196  0.00  0.00    +0.000 C 
BRANCH  24  27
ATOM     27  C   UNL     1      -1.222  12.121  22.888  0.00  0.00    +0.000 A 
ATOM     28  C   UNL     1      -0.835  13.459  23.007  0.00  0.00    +0.000 A 
ATOM     29  C   UNL     1      -1.723  14.401  23.503  0.00  0.00    +0.000 A 
ATOM     30  N   UNL     1      -2.975  14.110  23.900  0.00  0.00    +0.000 NA
ATOM     31  C   UNL     1      -3.351  12.815  23.791  0.00  0.00    +0.000 A 
ATOM     32  C   UNL     1      -2.522  11.811  23.294  0.00  0.00    +0.000 A 
BRANCH  31  33
ATOM     33  C   UNL     1      -4.676  12.508  24.219  0.00  0.00    +0.000 C 
ATOM     34  N   UNL     1      -5.758  12.210  24.543  0.00  0.00    +0.000 NA
ENDBRANCH  31  33
ENDBRANCH  24  27
ENDBRANCH   6  21
TORSDOF 6
ENDMDL
MODEL 4
REMARK VINA RESULT:      -7.3      5.089     12.229
REMARK  Name = 
REMARK  8 active torsions:
REMARK  status: ('A' for Active; 'I' for Inactive)
REMARK    1  A    between atoms: C_1  and  O_2
REMARK    2  A    between atoms: O_2  and  C_3
REMARK    3  A    between atoms: C_5  and  O_6
REMARK    4  A    between atoms: O_6  and  C_7
REMARK    5  A    between atoms: C_8  and  C_9
REMARK    6  A    between atoms: C_14  and  N_15
REMARK    7  A    between atoms: N_18  and  C_19
REMARK    8  A    between atoms: C_23  and  C_24
REMARK                            x       y       z     vdW  Elec       q    Type
REMARK                         _______ _______ _______ _____ _____    ______ ____
ROOT
ATOM      1  C   UNL     1       2.709   6.799  18.907  0.00  0.00    +0.000 A 
ATOM      2  C   UNL     1       2.242   6.533  20.173  0.00  0.00    +0.000 A 
ATOM      3  N   UNL     1       1.503   7.623  20.539  0.00  0.00    +0.000 N 
ATOM      4  C   UNL     1       0.815   7.856  21.716  0.00  0.00    +0.000 A 
ATOM      5  C   UNL     1       0.150   9.009  21.862  0.00  0.00    +0.000 A 
ATOM      6  C   UNL     1       0.160  10.015  20.790  0.00  0.00    +0.000 A 
ATOM      7  C   UNL     1       0.844   9.745  19.649  0.00  0.00    +0.000 A 
ATOM      8  C   UNL     1       1.546   8.518  19.485  0.00  0.00    +0.000 A 
ATOM      9  N   UNL     1       2.266   8.044  18.491  0.00  0.00    +0.000 NA
ENDROOT
BRANCH   1  13
ATOM     10  C   UNL     1       5.383   4.476  16.489  0.00  0.00    +0.000 A 
ATOM     11  C   UNL     1       4.085   4.022  16.727  0.00  0.00    +0.000 A 
ATOM     12  C   UNL     1       3.159   4.742  17.488  0.00  0.00    +0.000 A 
ATOM     13  C   UNL     1       3.561   5.954  18.074  0.00  0.00    +0.000 A 
ATOM     14  C   UNL     1       4.890   6.394  17.867  0.00  0.00    +0.000 A 
ATOM     15  C   UNL     1       5.787   5.668  17.078  0.00  0.00    +0.000 A 
ATOM     16 CL   UNL     1       7.368   6.310  16.821  0.00  0.00    +0.000 Cl
BRANCH  10  18
ATOM     17  C   UNL     1       6.139   4.020  14.305  0.00  0.00    +0.000 C 
ATOM     18  O   UNL     1       6.254   3.760  15.708  0.00  0.00    +0.000 OA
ENDBRANCH  10  18
BRANCH  12  19
ATOM     19  O   UNL     1       1.865   4.289  17.608  0.00  0.00    +0.000 OA
ATOM     20  C   UNL     1       1.647   3.173  18.476  0.00  0.00    +0.000 C 
ENDBRANCH  12  19
ENDBRANCH   1  13
BRANCH   6  21
ATOM     21  N   UNL     1      -0.521  11.207  21.008  0.00  0.00    +0.000 N 
ATOM     22  C   UNL     1      -0.912  12.141  19.927  0.00  0.00    +0.000 C 
ATOM     23  C   UNL     1      -2.361  12.632  20.130  0.00  0.00    +0.000 C 
ATOM     24  N   UNL     1      -2.500  13.226  21.471  0.00  0.00    +0.000 N 
ATOM     25  C   UNL     1      -2.101  12.332  22.575  0.00  0.00    +0.000 C 
ATOM     26  C   UNL     1      -0.666  11.811  22.355  0.00  0.00    +0.000 C 
BRANCH  24  27
ATOM     27  C   UNL     1      -3.089  14.450  21.682  0.00  0.00    +0.000 A 
ATOM     28  C   UNL     1      -3.456  14.872  22.963  0.00  0.00    +0.000 A 
ATOM     29  C   UNL     1      -4.016  16.125  23.151  0.00  0.00    +0.000 A 
ATOM     30  N   UNL     1      -4.249  16.997  22.152  0.00  0.00    +0.000 NA
ATOM     31  C   UNL     1      -3.899  16.588  20.910  0.00  0.00    +0.000 A 
ATOM     32  C   UNL     1      -3.322  15.350  20.640  0.00  0.00    +0.000 A 
BRANCH  31  33
ATOM     33  C   UNL     1      -4.152  17.511  19.853  0.00  0.00    +0.000 C 
ATOM     34  N   UNL     1      -4.306  18.268  18.977  0.00  0.00    +0.000 NA
ENDBRANCH  31  33
ENDBRANCH  24  27
ENDBRANCH   6  21
TORSDOF 6
ENDMDL
MODEL 5
REMARK VINA RESULT:      -7.3      5.015     12.372
REMARK  Name = 
REMARK  8 active torsions:
REMARK  status: ('A' for Active; 'I' for Inactive)
REMARK    1  A    between atoms: C_1  and  O_2
REMARK    2  A    between atoms: O_2  and  C_3
REMARK    3  A    between atoms: C_5  and  O_6
REMARK    4  A    between atoms: O_6  and  C_7
REMARK    5  A    between atoms: C_8  and  C_9
REMARK    6  A    between atoms: C_14  and  N_15
REMARK    7  A    between atoms: N_18  and  C_19
REMARK    8  A    between atoms: C_23  and  C_24
REMARK                            x       y       z     vdW  Elec       q    Type
REMARK                         _______ _______ _______ _____ _____    ______ ____
ROOT
ATOM      1  C   UNL     1       2.670   6.972  18.960  0.00  0.00    +0.000 A 
ATOM      2  C   UNL     1       2.220   6.719  20.235  0.00  0.00    +0.000 A 
ATOM      3  N   UNL     1       1.437   7.786  20.576  0.00  0.00    +0.000 N 
ATOM      4  C   UNL     1       0.745   8.021  21.751  0.00  0.00    +0.000 A 
ATOM      5  C   UNL     1       0.032   9.148  21.870  0.00  0.00    +0.000 A 
ATOM      6  C   UNL     1      -0.006  10.125  20.771  0.00  0.00    +0.000 A 
ATOM      7  C   UNL     1       0.684   9.854  19.634  0.00  0.00    +0.000 A 
ATOM      8  C   UNL     1       1.437   8.654  19.499  0.00  0.00    +0.000 A 
ATOM      9  N   UNL     1       2.172   8.185  18.513  0.00  0.00    +0.000 NA
ENDROOT
BRANCH   1  13
ATOM     10  C   UNL     1       5.433   4.693  16.601  0.00  0.00    +0.000 A 
ATOM     11  C   UNL     1       4.133   4.226  16.797  0.00  0.00    +0.000 A 
ATOM     12  C   UNL     1       3.179   4.931  17.536  0.00  0.00    +0.000 A 
ATOM     13  C   UNL     1       3.553   6.141  18.145  0.00  0.00    +0.000 A 
ATOM     14  C   UNL     1       4.883   6.594  17.981  0.00  0.00    +0.000 A 
ATOM     15  C   UNL     1       5.809   5.884  17.212  0.00  0.00    +0.000 A 
ATOM     16 CL   UNL     1       7.392   6.541  17.007  0.00  0.00    +0.000 Cl
BRANCH  10  18
ATOM     17  C   UNL     1       6.055   4.006  14.435  0.00  0.00    +0.000 C 
ATOM     18  O   UNL     1       6.333   3.992  15.839  0.00  0.00    +0.000 OA
ENDBRANCH  10  18
BRANCH  12  19
ATOM     19  O   UNL     1       1.886   4.466  17.614  0.00  0.00    +0.000 OA
ATOM     20  C   UNL     1       1.654   3.335  18.458  0.00  0.00    +0.000 C 
ENDBRANCH  12  19
ENDBRANCH   1  13
BRANCH   6  21
ATOM     21  N   UNL     1      -0.736  11.292  20.962  0.00  0.00    +0.000 N 
ATOM     22  C   UNL     1      -1.372  12.054  19.862  0.00  0.00    +0.000 C 
ATOM     23  C   UNL     1      -2.803  12.480  20.251  0.00  0.00    +0.000 C 
ATOM     24  N   UNL     1      -2.770  13.233  21.517  0.00  0.00    +0.000 N 
ATOM     25  C   UNL     1      -2.126  12.514  22.633  0.00  0.00    +0.000 C 
ATOM     26  C   UNL     1      -0.708  12.056  22.233  0.00  0.00    +0.000 C 
BRANCH  24  27
ATOM     27  C   UNL     1      -3.413  14.436  21.680  0.00  0.00    +0.000 A 
ATOM     28  C   UNL     1      -3.992  15.107  20.600  0.00  0.00    +0.000 A 
ATOM     29  C   UNL     1      -4.664  16.302  20.800  0.00  0.00    +0.000 A 
ATOM     30  N   UNL     1      -4.800  16.891  22.002  0.00  0.00    +0.000 NA
ATOM     31  C   UNL     1      -4.236  16.245  23.050  0.00  0.00    +0.000 A 
ATOM     32  C   UNL     1      -3.553  15.037  22.933  0.00  0.00    +0.000 A 
BRANCH  31  33
ATOM     33  C   UNL     1      -4.377  16.874  24.322  0.00  0.00    +0.000 C 
ATOM     34  N   UNL     1      -4.439  17.379  25.373  0.00  0.00    +0.000 NA
ENDBRANCH  31  33
ENDBRANCH  24  27
ENDBRANCH   6  21
TORSDOF 6
ENDMDL
MODEL 6
REMARK VINA RESULT:      -7.3      4.758     12.015
REMARK  Name = 
REMARK  8 active torsions:
REMARK  status: ('A' for Active; 'I' for Inactive)
REMARK    1  A    between atoms: C_1  and  O_2
REMARK    2  A    between atoms: O_2  and  C_3
REMARK    3  A    between atoms: C_5  and  O_6
REMARK    4  A    between atoms: O_6  and  C_7
REMARK    5  A    between atoms: C_8  and  C_9
REMARK    6  A    between atoms: C_14  and  N_15
REMARK    7  A    between atoms: N_18  and  C_19
REMARK    8  A    between atoms: C_23  and  C_24
REMARK                            x       y       z     vdW  Elec       q    Type
REMARK                         _______ _______ _______ _____ _____    ______ ____
ROOT
ATOM      1  C   UNL     1       2.129   7.288  19.625  0.00  0.00    +0.000 A 
ATOM      2  C   UNL     1       2.130   8.247  18.640  0.00  0.00    +0.000 A 
ATOM      3  N   UNL     1       1.436   9.310  19.149  0.00  0.00    +0.000 N 
ATOM      4  C   UNL     1       1.153  10.530  18.561  0.00  0.00    +0.000 A 
ATOM      5  C   UNL     1       0.450  11.436  19.252  0.00  0.00    +0.000 A 
ATOM      6  C   UNL     1      -0.022  11.132  20.612  0.00  0.00    +0.000 A 
ATOM      7  C   UNL     1       0.282   9.925  21.153  0.00  0.00    +0.000 A 
ATOM      8  C   UNL     1       1.035   8.962  20.426  0.00  0.00    +0.000 A 
ATOM      9  N   UNL     1       1.441   7.749  20.735  0.00  0.00    +0.000 NA
ENDROOT
BRANCH   1  13
ATOM     10  C   UNL     1       3.736   3.312  19.641  0.00  0.00    +0.000 A 
ATOM     11  C   UNL     1       4.259   4.272  18.774  0.00  0.00    +0.000 A 
ATOM     12  C   UNL     1       3.795   5.590  18.736  0.00  0.00    +0.000 A 
ATOM     13  C   UNL     1       2.728   5.956  19.574  0.00  0.00    +0.000 A 
ATOM     14  C   UNL     1       2.170   4.972  20.422  0.00  0.00    +0.000 A 
ATOM     15  C   UNL     1       2.672   3.669  20.462  0.00  0.00    +0.000 A 
ATOM     16 CL   UNL     1       1.978   2.548  21.576  0.00  0.00    +0.000 Cl
BRANCH  10  18
ATOM     17  C   UNL     1       3.874   1.225  18.557  0.00  0.00    +0.000 C 
ATOM     18  O   UNL     1       4.240   2.036  19.678  0.00  0.00    +0.000 OA
ENDBRANCH  10  18
BRANCH  12  19
ATOM     19  O   UNL     1       4.415   6.515  17.927  0.00  0.00    +0.000 OA
ATOM     20  C   UNL     1       5.703   6.166  17.413  0.00  0.00    +0.000 C 
ENDBRANCH  12  19
ENDBRANCH   1  13
BRANCH   6  21
ATOM     21  N   UNL     1      -0.775  12.097  21.271  0.00  0.00    +0.000 N 
ATOM     22  C   UNL     1      -2.169  11.887  21.722  0.00  0.00    +0.000 C 
ATOM     23  C   UNL     1      -2.367  12.432  23.152  0.00  0.00    +0.000 C 
ATOM     24  N   UNL     1      -1.962  13.847  23.205  0.00  0.00    +0.000 N 
ATOM     25  C   UNL     1      -0.583  14.100  22.744  0.00  0.00    +0.000 C 
ATOM     26  C   UNL     1      -0.373  13.525  21.329  0.00  0.00    +0.000 C 
BRANCH  24  27
ATOM     27  C   UNL     1      -2.747  14.822  23.771  0.00  0.00    +0.000 A 
ATOM     28  C   UNL     1      -2.233  15.717  24.714  0.00  0.00    +0.000 A 
ATOM     29  C   UNL     1      -3.038  16.712  25.243  0.00  0.00    +0.000 A 
ATOM     30  N   UNL     1      -4.330  16.884  24.909  0.00  0.00    +0.000 NA
ATOM     31  C   UNL     1      -4.832  16.016  24.001  0.00  0.00    +0.000 A 
ATOM     32  C   UNL     1      -4.086  14.996  23.415  0.00  0.00    +0.000 A 
BRANCH  31  33
ATOM     33  C   UNL     1      -6.204  16.196  23.653  0.00  0.00    +0.000 C 
ATOM     34  N   UNL     1      -7.340  16.323  23.417  0.00  0.00    +0.000 NA
ENDBRANCH  31  33
ENDBRANCH  24  27
ENDBRANCH   6  21
TORSDOF 6
ENDMDL
MODEL 7
REMARK VINA RESULT:      -7.3      4.916     11.938
REMARK  Name = 
REMARK  8 active torsions:
REMARK  status: ('A' for Active; 'I' for Inactive)
REMARK    1  A    between atoms: C_1  and  O_2
REMARK    2  A    between atoms: O_2  and  C_3
REMARK    3  A    between atoms: C_5  and  O_6
REMARK    4  A    between atoms: O_6  and  C_7
REMARK    5  A    between atoms: C_8  and  C_9
REMARK    6  A    between atoms: C_14  and  N_15
REMARK    7  A    between atoms: N_18  and  C_19
REMARK    8  A    between atoms: C_23  and  C_24
REMARK                            x       y       z     vdW  Elec       q    Type
REMARK                         _______ _______ _______ _____ _____    ______ ____
ROOT
ATOM      1  C   UNL     1       2.277   7.047  18.802  0.00  0.00    +0.000 A 
ATOM      2  C   UNL     1       2.324   8.130  17.954  0.00  0.00    +0.000 A 
ATOM      3  N   UNL     1       1.810   9.182  18.660  0.00  0.00    +0.000 N 
ATOM      4  C   UNL     1       1.639  10.497  18.265  0.00  0.00    +0.000 A 
ATOM      5  C   UNL     1       1.109  11.371  19.131  0.00  0.00    +0.000 A 
ATOM      6  C   UNL     1       0.707  10.935  20.476  0.00  0.00    +0.000 A 
ATOM      7  C   UNL     1       0.897   9.637  20.825  0.00  0.00    +0.000 A 
ATOM      8  C   UNL     1       1.466   8.706  19.912  0.00  0.00    +0.000 A 
ATOM      9  N   UNL     1       1.738   7.423  20.021  0.00  0.00    +0.000 NA
ENDROOT
BRANCH   1  13
ATOM     10  C   UNL     1       3.296   2.952  18.037  0.00  0.00    +0.000 A 
ATOM     11  C   UNL     1       4.251   3.953  17.859  0.00  0.00    +0.000 A 
ATOM     12  C   UNL     1       3.989   5.303  18.112  0.00  0.00    +0.000 A 
ATOM     13  C   UNL     1       2.698   5.677  18.522  0.00  0.00    +0.000 A 
ATOM     14  C   UNL     1       1.718   4.667  18.662  0.00  0.00    +0.000 A 
ATOM     15  C   UNL     1       2.014   3.321  18.430  0.00  0.00    +0.000 A 
ATOM     16 CL   UNL     1       0.778   2.145  18.690  0.00  0.00    +0.000 Cl
BRANCH  10  18
ATOM     17  C   UNL     1       4.134   0.949  18.951  0.00  0.00    +0.000 C 
ATOM     18  O   UNL     1       3.598   1.633  17.813  0.00  0.00    +0.000 OA
ENDBRANCH  10  18
BRANCH  12  19
ATOM     19  O   UNL     1       5.000   6.232  18.011  0.00  0.00    +0.000 OA
ATOM     20  C   UNL     1       6.328   5.728  17.842  0.00  0.00    +0.000 C 
ENDBRANCH  12  19
ENDBRANCH   1  13
BRANCH   6  21
ATOM     21  N   UNL     1       0.134  11.877  21.322  0.00  0.00    +0.000 N 
ATOM     22  C   UNL     1       0.433  13.326  21.263  0.00  0.00    +0.000 C 
ATOM     23  C   UNL     1      -0.864  14.155  21.372  0.00  0.00    +0.000 C 
ATOM     24  N   UNL     1      -1.594  13.777  22.594  0.00  0.00    +0.000 N 
ATOM     25  C   UNL     1      -1.894  12.336  22.700  0.00  0.00    +0.000 C 
ATOM     26  C   UNL     1      -0.603  11.504  22.555  0.00  0.00    +0.000 C 
BRANCH  24  27
ATOM     27  C   UNL     1      -2.080  14.704  23.484  0.00  0.00    +0.000 A 
ATOM     28  C   UNL     1      -3.377  15.213  23.372  0.00  0.00    +0.000 A 
ATOM     29  C   UNL     1      -3.854  16.121  24.304  0.00  0.00    +0.000 A 
ATOM     30  N   UNL     1      -3.130  16.572  25.345  0.00  0.00    +0.000 NA
ATOM     31  C   UNL     1      -1.872  16.084  25.453  0.00  0.00    +0.000 A 
ATOM     32  C   UNL     1      -1.324  15.162  24.565  0.00  0.00    +0.000 A 
BRANCH  31  33
ATOM     33  C   UNL     1      -1.106  16.568  26.554  0.00  0.00    +0.000 C 
ATOM     34  N   UNL     1      -0.474  17.012  27.430  0.00  0.00    +0.000 NA
ENDBRANCH  31  33
ENDBRANCH  24  27
ENDBRANCH   6  21
TORSDOF 6
ENDMDL
MODEL 8
REMARK VINA RESULT:      -7.2      5.424     12.348
REMARK  Name = 
REMARK  8 active torsions:
REMARK  status: ('A' for Active; 'I' for Inactive)
REMARK    1  A    between atoms: C_1  and  O_2
REMARK    2  A    between atoms: O_2  and  C_3
REMARK    3  A    between atoms: C_5  and  O_6
REMARK    4  A    between atoms: O_6  and  C_7
REMARK    5  A    between atoms: C_8  and  C_9
REMARK    6  A    between atoms: C_14  and  N_15
REMARK    7  A    between atoms: N_18  and  C_19
REMARK    8  A    between atoms: C_23  and  C_24
REMARK                            x       y       z     vdW  Elec       q    Type
REMARK                         _______ _______ _______ _____ _____    ______ ____
ROOT
ATOM      1  C   UNL     1       4.191   6.107  17.639  0.00  0.00    +0.000 A 
ATOM      2  C   UNL     1       3.670   5.341  18.657  0.00  0.00    +0.000 A 
ATOM      3  N   UNL     1       2.804   6.155  19.333  0.00  0.00    +0.000 N 
ATOM      4  C   UNL     1       2.019   5.869  20.437  0.00  0.00    +0.000 A 
ATOM      5  C   UNL     1       1.236   6.830  20.942  0.00  0.00    +0.000 A 
ATOM      6  C   UNL     1       1.217   8.170  20.338  0.00  0.00    +0.000 A 
ATOM      7  C   UNL     1       1.998   8.407  19.253  0.00  0.00    +0.000 A 
ATOM      8  C   UNL     1       2.828   7.388  18.708  0.00  0.00    +0.000 A 
ATOM      9  N   UNL     1       3.656   7.383  17.685  0.00  0.00    +0.000 NA
ENDROOT
BRANCH   1  13
ATOM     10  C   UNL     1       6.908   4.832  14.576  0.00  0.00    +0.000 A 
ATOM     11  C   UNL     1       7.382   5.552  15.673  0.00  0.00    +0.000 A 
ATOM     12  C   UNL     1       6.552   5.977  16.715  0.00  0.00    +0.000 A 
ATOM     13  C   UNL     1       5.176   5.707  16.637  0.00  0.00    +0.000 A 
ATOM     14  C   UNL     1       4.689   5.013  15.505  0.00  0.00    +0.000 A 
ATOM     15  C   UNL     1       5.544   4.574  14.491  0.00  0.00    +0.000 A 
ATOM     16 CL   UNL     1       4.877   3.676  13.177  0.00  0.00    +0.000 Cl
BRANCH  10  18
ATOM     17  C   UNL     1       8.078   5.393  12.610  0.00  0.00    +0.000 C 
ATOM     18  O   UNL     1       7.757   4.399  13.588  0.00  0.00    +0.000 OA
ENDBRANCH  10  18
BRANCH  12  19
ATOM     19  O   UNL     1       7.094   6.600  17.816  0.00  0.00    +0.000 OA
ATOM     20  C   UNL     1       7.719   7.868  17.601  0.00  0.00    +0.000 C 
ENDBRANCH  12  19
ENDBRANCH   1  13
BRANCH   6  21
ATOM     21  N   UNL     1       0.409   9.138  20.923  0.00  0.00    +0.000 N 
ATOM     22  C   UNL     1      -0.515   8.867  22.049  0.00  0.00    +0.000 C 
ATOM     23  C   UNL     1      -0.414   9.978  23.115  0.00  0.00    +0.000 C 
ATOM     24  N   UNL     1      -0.653  11.290  22.489  0.00  0.00    +0.000 N 
ATOM     25  C   UNL     1       0.236  11.588  21.349  0.00  0.00    +0.000 C 
ATOM     26  C   UNL     1       0.164  10.461  20.299  0.00  0.00    +0.000 C 
BRANCH  24  27
ATOM     27  C   UNL     1      -1.525  12.214  23.012  0.00  0.00    +0.000 A 
ATOM     28  C   UNL     1      -2.805  11.849  23.437  0.00  0.00    +0.000 A 
ATOM     29  C   UNL     1      -3.651  12.795  23.994  0.00  0.00    +0.000 A 
ATOM     30  N   UNL     1      -3.322  14.090  24.154  0.00  0.00    +0.000 NA
ATOM     31  C   UNL     1      -2.084  14.447  23.738  0.00  0.00    +0.000 A 
ATOM     32  C   UNL     1      -1.172  13.555  23.179  0.00  0.00    +0.000 A 
BRANCH  31  33
ATOM     33  C   UNL     1      -1.739  15.820  23.904  0.00  0.00    +0.000 C 
ATOM     34  N   UNL     1      -1.440  16.946  23.989  0.00  0.00    +0.000 NA
ENDBRANCH  31  33
ENDBRANCH  24  27
ENDBRANCH   6  21
TORSDOF 6
ENDMDL
MODEL 9
REMARK VINA RESULT:      -7.2      4.736     11.985
REMARK  Name = 
REMARK  8 active torsions:
REMARK  status: ('A' for Active; 'I' for Inactive)
REMARK    1  A    between atoms: C_1  and  O_2
REMARK    2  A    between atoms: O_2  and  C_3
REMARK    3  A    between atoms: C_5  and  O_6
REMARK    4  A    between atoms: O_6  and  C_7
REMARK    5  A    between atoms: C_8  and  C_9
REMARK    6  A    between atoms: C_14  and  N_15
REMARK    7  A    between atoms: N_18  and  C_19
REMARK    8  A    between atoms: C_23  and  C_24
REMARK                            x       y       z     vdW  Elec       q    Type
REMARK                         _______ _______ _______ _____ _____    ______ ____
ROOT
ATOM      1  C   UNL     1       1.998   7.610  19.633  0.00  0.00    +0.000 A 
ATOM      2  C   UNL     1       1.744   8.523  18.636  0.00  0.00    +0.000 A 
ATOM      3  N   UNL     1       1.164   9.598  19.250  0.00  0.00    +0.000 N 
ATOM      4  C   UNL     1       0.722  10.786  18.695  0.00  0.00    +0.000 A 
ATOM      5  C   UNL     1       0.178  11.713  19.494  0.00  0.00    +0.000 A 
ATOM      6  C   UNL     1       0.046  11.466  20.938  0.00  0.00    +0.000 A 
ATOM      7  C   UNL     1       0.497  10.290  21.442  0.00  0.00    +0.000 A 
ATOM      8  C   UNL     1       1.082   9.305  20.599  0.00  0.00    +0.000 A 
ATOM      9  N   UNL     1       1.579   8.113  20.854  0.00  0.00    +0.000 NA
ENDROOT
BRANCH   1  13
ATOM     10  C   UNL     1       3.638   3.653  19.422  0.00  0.00    +0.000 A 
ATOM     11  C   UNL     1       4.031   4.622  18.497  0.00  0.00    +0.000 A 
ATOM     12  C   UNL     1       3.551   5.934  18.525  0.00  0.00    +0.000 A 
ATOM     13  C   UNL     1       2.600   6.286  19.498  0.00  0.00    +0.000 A 
ATOM     14  C   UNL     1       2.170   5.293  20.409  0.00  0.00    +0.000 A 
ATOM     15  C   UNL     1       2.688   3.996  20.377  0.00  0.00    +0.000 A 
ATOM     16 CL   UNL     1       2.160   2.864  21.568  0.00  0.00    +0.000 Cl
BRANCH  10  18
ATOM     17  C   UNL     1       3.523   1.513  18.444  0.00  0.00    +0.000 C 
ATOM     18  O   UNL     1       4.158   2.384  19.386  0.00  0.00    +0.000 OA
ENDBRANCH  10  18
BRANCH  12  19
ATOM     19  O   UNL     1       4.048   6.869  17.646  0.00  0.00    +0.000 OA
ATOM     20  C   UNL     1       4.881   6.385  16.589  0.00  0.00    +0.000 C 
ENDBRANCH  12  19
ENDBRANCH   1  13
BRANCH   6  21
ATOM     21  N   UNL     1      -0.554  12.451  21.714  0.00  0.00    +0.000 N 
ATOM     22  C   UNL     1      -0.080  13.852  21.778  0.00  0.00    +0.000 C 
ATOM     23  C   UNL     1      -1.268  14.834  21.698  0.00  0.00    +0.000 C 
ATOM     24  N   UNL     1      -2.245  14.517  22.754  0.00  0.00    +0.000 N 
ATOM     25  C   UNL     1      -2.727  13.123  22.736  0.00  0.00    +0.000 C 
ATOM     26  C   UNL     1      -1.539  12.140  22.780  0.00  0.00    +0.000 C 
BRANCH  24  27
ATOM     27  C   UNL     1      -2.770  15.474  23.589  0.00  0.00    +0.000 A 
ATOM     28  C   UNL     1      -4.148  15.694  23.671  0.00  0.00    +0.000 A 
ATOM     29  C   UNL     1      -4.652  16.642  24.547  0.00  0.00    +0.000 A 
ATOM     30  N   UNL     1      -3.884  17.401  25.350  0.00  0.00    +0.000 NA
ATOM     31  C   UNL     1      -2.549  17.194  25.268  0.00  0.00    +0.000 A 
ATOM     32  C   UNL     1      -1.965  16.254  24.422  0.00  0.00    +0.000 A 
BRANCH  31  33
ATOM     33  C   UNL     1      -1.737  18.004  26.115  0.00  0.00    +0.000 C 
ATOM     34  N   UNL     1      -1.032  18.630  26.805  0.00  0.00    +0.000 NA
ENDBRANCH  31  33
ENDBRANCH  24  27
ENDBRANCH   6  21
TORSDOF 6
ENDMDL
