MODEL 1
REMARK VINA RESULT:      -8.8      0.000      0.000
REMARK  Name = 
REMARK  4 active torsions:
REMARK  status: ('A' for Active; 'I' for Inactive)
REMARK    1  A    between atoms: C_2  and  C_3
REMARK    2  A    between atoms: C_6  and  C_7
REMARK    3  A    between atoms: N_18  and  C_19
REMARK    4  A    between atoms: C_19  and  C_20
REMARK                            x       y       z     vdW  Elec       q    Type
REMARK                         _______ _______ _______ _____ _____    ______ ____
ROOT
ATOM      1  C   UNL     1       3.377   3.257  20.116  0.00  0.00    +0.000 A 
ATOM      2  C   UNL     1       2.027   3.046  20.237  0.00  0.00    +0.000 A 
ATOM      3  C   UNL     1       1.384   4.275  19.979  0.00  0.00    +0.000 A 
ATOM      4  C   UNL     1       2.343   5.244  19.702  0.00  0.00    +0.000 A 
ATOM      5  N   UNL     1       3.576   4.584  19.762  0.00  0.00    +0.000 N 
ENDROOT
BRANCH   4   6
ATOM      6  C   UNL     1       2.098   6.676  19.414  0.00  0.00    +0.000 A 
ATOM      7  C   UNL     1       2.330   7.202  18.132  0.00  0.00    +0.000 A 
ATOM      8  C   UNL     1       2.091   8.555  17.844  0.00  0.00    +0.000 A 
ATOM      9  C   UNL     1       1.629   9.395  18.854  0.00  0.00    +0.000 A 
ATOM     10  O   UNL     1       1.440  10.757  18.562  0.00  0.00    +0.000 OA
ATOM     11  C   UNL     1       1.019  11.646  19.546  0.00  0.00    +0.000 A 
ATOM     12  O   UNL     1       0.888  12.846  19.333  0.00  0.00    +0.000 OA
ATOM     13  C   UNL     1       0.725  11.089  20.880  0.00  0.00    +0.000 A 
ATOM     14  C   UNL     1       0.874   9.792  21.156  0.00  0.00    +0.000 A 
ATOM     15  C   UNL     1       1.361   8.903  20.117  0.00  0.00    +0.000 A 
ATOM     16  C   UNL     1       1.570   7.551  20.371  0.00  0.00    +0.000 A 
ENDBRANCH   4   6
BRANCH   1  18
ATOM     17  N   UNL     1       5.240   1.512  20.530  0.00  0.00    +0.000 NA
ATOM     18  C   UNL     1       4.404   2.289  20.338  0.00  0.00    +0.000 C 
ENDBRANCH   1  18
BRANCH   5  19
ATOM     19  C   UNL     1       4.905   5.145  19.473  0.00  0.00    +0.000 C 
BRANCH  19  20
ATOM     20  C   UNL     1       5.482   4.726  18.129  0.00  0.00    +0.000 A 
ATOM     21  C   UNL     1       6.866   4.689  17.865  0.00  0.00    +0.000 A 
ATOM     22  C   UNL     1       7.341   4.519  16.564  0.00  0.00    +0.000 A 
ATOM     23  C   UNL     1       6.441   4.334  15.525  0.00  0.00    +0.000 A 
ATOM     24  F   UNL     1       6.898   4.206  14.272  0.00  0.00    +0.000 F 
ATOM     25  C   UNL     1       5.073   4.303  15.764  0.00  0.00    +0.000 A 
ATOM     26  C   UNL     1       4.592   4.497  17.062  0.00  0.00    +0.000 A 
ENDBRANCH  19  20
ENDBRANCH   5  19
TORSDOF 4
ENDMDL
MODEL 2
REMARK VINA RESULT:      -8.7      3.643      6.824
REMARK  Name = 
REMARK  4 active torsions:
REMARK  status: ('A' for Active; 'I' for Inactive)
REMARK    1  A    between atoms: C_2  and  C_3
REMARK    2  A    between atoms: C_6  and  C_7
REMARK    3  A    between atoms: N_18  and  C_19
REMARK    4  A    between atoms: C_19  and  C_20
REMARK                            x       y       z     vdW  Elec       q    Type
REMARK                         _______ _______ _______ _____ _____    ______ ____
ROOT
ATOM      1  C   UNL     1       2.700   2.765  19.735  0.00  0.00    +0.000 A 
ATOM      2  C   UNL     1       2.675   1.651  18.936  0.00  0.00    +0.000 A 
ATOM      3  C   UNL     1       3.581   1.871  17.878  0.00  0.00    +0.000 A 
ATOM      4  C   UNL     1       4.162   3.127  18.026  0.00  0.00    +0.000 A 
ATOM      5  N   UNL     1       3.623   3.655  19.206  0.00  0.00    +0.000 N 
ENDROOT
BRANCH   4   6
ATOM      6  C   UNL     1       5.139   3.764  17.114  0.00  0.00    +0.000 A 
ATOM      7  C   UNL     1       6.137   4.618  17.613  0.00  0.00    +0.000 A 
ATOM      8  C   UNL     1       7.075   5.219  16.759  0.00  0.00    +0.000 A 
ATOM      9  C   UNL     1       7.006   4.976  15.390  0.00  0.00    +0.000 A 
ATOM     10  O   UNL     1       7.923   5.623  14.544  0.00  0.00    +0.000 OA
ATOM     11  C   UNL     1       7.870   5.445  13.165  0.00  0.00    +0.000 A 
ATOM     12  O   UNL     1       8.628   6.030  12.400  0.00  0.00    +0.000 OA
ATOM     13  C   UNL     1       6.857   4.509  12.642  0.00  0.00    +0.000 A 
ATOM     14  C   UNL     1       6.002   3.870  13.442  0.00  0.00    +0.000 A 
ATOM     15  C   UNL     1       6.056   4.117  14.871  0.00  0.00    +0.000 A 
ATOM     16  C   UNL     1       5.159   3.502  15.739  0.00  0.00    +0.000 A 
ENDBRANCH   4   6
BRANCH   1  18
ATOM     17  N   UNL     1       1.257   3.158  21.846  0.00  0.00    +0.000 NA
ATOM     18  C   UNL     1       1.899   2.987  20.897  0.00  0.00    +0.000 C 
ENDBRANCH   1  18
BRANCH   5  19
ATOM     19  C   UNL     1       3.966   4.932  19.850  0.00  0.00    +0.000 C 
BRANCH  19  20
ATOM     20  C   UNL     1       3.146   6.118  19.365  0.00  0.00    +0.000 A 
ATOM     21  C   UNL     1       3.344   6.727  18.110  0.00  0.00    +0.000 A 
ATOM     22  C   UNL     1       2.730   7.942  17.800  0.00  0.00    +0.000 A 
ATOM     23  C   UNL     1       1.876   8.532  18.720  0.00  0.00    +0.000 A 
ATOM     24  F   UNL     1       1.316   9.715  18.436  0.00  0.00    +0.000 F 
ATOM     25  C   UNL     1       1.613   7.923  19.941  0.00  0.00    +0.000 A 
ATOM     26  C   UNL     1       2.244   6.719  20.265  0.00  0.00    +0.000 A 
ENDBRANCH  19  20
ENDBRANCH   5  19
TORSDOF 4
ENDMDL
MODEL 3
REMARK VINA RESULT:      -8.2      0.766      1.775
REMARK  Name = 
REMARK  4 active torsions:
REMARK  status: ('A' for Active; 'I' for Inactive)
REMARK    1  A    between atoms: C_2  and  C_3
REMARK    2  A    between atoms: C_6  and  C_7
REMARK    3  A    between atoms: N_18  and  C_19
REMARK    4  A    between atoms: C_19  and  C_20
REMARK                            x       y       z     vdW  Elec       q    Type
REMARK                         _______ _______ _______ _____ _____    ______ ____
ROOT
ATOM      1  C   UNL     1       3.247   3.118  20.144  0.00  0.00    +0.000 A 
ATOM      2  C   UNL     1       1.917   2.829  20.317  0.00  0.00    +0.000 A 
ATOM      3  C   UNL     1       1.215   4.052  20.306  0.00  0.00    +0.000 A 
ATOM      4  C   UNL     1       2.117   5.096  20.129  0.00  0.00    +0.000 A 
ATOM      5  N   UNL     1       3.374   4.492  19.999  0.00  0.00    +0.000 N 
ENDROOT
BRANCH   4   6
ATOM      6  C   UNL     1       1.802   6.543  20.096  0.00  0.00    +0.000 A 
ATOM      7  C   UNL     1       1.173   7.167  21.186  0.00  0.00    +0.000 A 
ATOM      8  C   UNL     1       0.879   8.540  21.170  0.00  0.00    +0.000 A 
ATOM      9  C   UNL     1       1.204   9.294  20.046  0.00  0.00    +0.000 A 
ATOM     10  O   UNL     1       0.860  10.656  20.027  0.00  0.00    +0.000 OA
ATOM     11  C   UNL     1       1.127  11.444  18.911  0.00  0.00    +0.000 A 
ATOM     12  O   UNL     1       0.800  12.623  18.849  0.00  0.00    +0.000 OA
ATOM     13  C   UNL     1       1.835  10.805  17.786  0.00  0.00    +0.000 A 
ATOM     14  C   UNL     1       2.189   9.520  17.808  0.00  0.00    +0.000 A 
ATOM     15  C   UNL     1       1.852   8.717  18.970  0.00  0.00    +0.000 A 
ATOM     16  C   UNL     1       2.168   7.363  19.021  0.00  0.00    +0.000 A 
ENDBRANCH   4   6
BRANCH   1  18
ATOM     17  N   UNL     1       5.184   1.404  20.142  0.00  0.00    +0.000 NA
ATOM     18  C   UNL     1       4.320   2.175  20.137  0.00  0.00    +0.000 C 
ENDBRANCH   1  18
BRANCH   5  19
ATOM     19  C   UNL     1       4.658   5.153  19.719  0.00  0.00    +0.000 C 
BRANCH  19  20
ATOM     20  C   UNL     1       5.169   4.952  18.301  0.00  0.00    +0.000 A 
ATOM     21  C   UNL     1       4.317   4.711  17.204  0.00  0.00    +0.000 A 
ATOM     22  C   UNL     1       4.836   4.311  15.971  0.00  0.00    +0.000 A 
ATOM     23  C   UNL     1       6.209   4.200  15.809  0.00  0.00    +0.000 A 
ATOM     24  F   UNL     1       6.703   3.782  14.637  0.00  0.00    +0.000 F 
ATOM     25  C   UNL     1       7.076   4.493  16.855  0.00  0.00    +0.000 A 
ATOM     26  C   UNL     1       6.559   4.869  18.098  0.00  0.00    +0.000 A 
ENDBRANCH  19  20
ENDBRANCH   5  19
TORSDOF 4
ENDMDL
MODEL 4
REMARK VINA RESULT:      -8.2      1.616      1.868
REMARK  Name = 
REMARK  4 active torsions:
REMARK  status: ('A' for Active; 'I' for Inactive)
REMARK    1  A    between atoms: C_2  and  C_3
REMARK    2  A    between atoms: C_6  and  C_7
REMARK    3  A    between atoms: N_18  and  C_19
REMARK    4  A    between atoms: C_19  and  C_20
REMARK                            x       y       z     vdW  Elec       q    Type
REMARK                         _______ _______ _______ _____ _____    ______ ____
ROOT
ATOM      1  C   UNL     1       2.895   3.393  19.601  0.00  0.00    +0.000 A 
ATOM      2  C   UNL     1       2.070   3.507  20.691  0.00  0.00    +0.000 A 
ATOM      3  C   UNL     1       1.628   4.845  20.746  0.00  0.00    +0.000 A 
ATOM      4  C   UNL     1       2.187   5.556  19.688  0.00  0.00    +0.000 A 
ATOM      5  N   UNL     1       2.948   4.626  18.969  0.00  0.00    +0.000 N 
ENDROOT
BRANCH   4   6
ATOM      6  C   UNL     1       2.012   6.998  19.399  0.00  0.00    +0.000 A 
ATOM      7  C   UNL     1       2.310   7.518  18.128  0.00  0.00    +0.000 A 
ATOM      8  C   UNL     1       2.138   8.881  17.840  0.00  0.00    +0.000 A 
ATOM      9  C   UNL     1       1.677   9.736  18.836  0.00  0.00    +0.000 A 
ATOM     10  O   UNL     1       1.555  11.106  18.545  0.00  0.00    +0.000 OA
ATOM     11  C   UNL     1       1.138  12.008  19.519  0.00  0.00    +0.000 A 
ATOM     12  O   UNL     1       1.064  13.213  19.307  0.00  0.00    +0.000 OA
ATOM     13  C   UNL     1       0.773  11.459  20.838  0.00  0.00    +0.000 A 
ATOM     14  C   UNL     1       0.859  10.156  21.113  0.00  0.00    +0.000 A 
ATOM     15  C   UNL     1       1.344   9.251  20.087  0.00  0.00    +0.000 A 
ATOM     16  C   UNL     1       1.487   7.891  20.341  0.00  0.00    +0.000 A 
ENDBRANCH   4   6
BRANCH   1  18
ATOM     17  N   UNL     1       4.176   1.264  18.881  0.00  0.00    +0.000 NA
ATOM     18  C   UNL     1       3.599   2.217  19.197  0.00  0.00    +0.000 C 
ENDBRANCH   1  18
BRANCH   5  19
ATOM     19  C   UNL     1       3.682   4.853  17.715  0.00  0.00    +0.000 C 
BRANCH  19  20
ATOM     20  C   UNL     1       5.100   5.373  17.905  0.00  0.00    +0.000 A 
ATOM     21  C   UNL     1       5.918   4.994  18.988  0.00  0.00    +0.000 A 
ATOM     22  C   UNL     1       7.117   5.662  19.245  0.00  0.00    +0.000 A 
ATOM     23  C   UNL     1       7.531   6.677  18.396  0.00  0.00    +0.000 A 
ATOM     24  F   UNL     1       8.663   7.340  18.665  0.00  0.00    +0.000 F 
ATOM     25  C   UNL     1       6.776   7.030  17.285  0.00  0.00    +0.000 A 
ATOM     26  C   UNL     1       5.563   6.380  17.037  0.00  0.00    +0.000 A 
ENDBRANCH  19  20
ENDBRANCH   5  19
TORSDOF 4
ENDMDL
MODEL 5
REMARK VINA RESULT:      -8.1      1.742      2.341
REMARK  Name = 
REMARK  4 active torsions:
REMARK  status: ('A' for Active; 'I' for Inactive)
REMARK    1  A    between atoms: C_2  and  C_3
REMARK    2  A    between atoms: C_6  and  C_7
REMARK    3  A    between atoms: N_18  and  C_19
REMARK    4  A    between atoms: C_19  and  C_20
REMARK                            x       y       z     vdW  Elec       q    Type
REMARK                         _______ _______ _______ _____ _____    ______ ____
ROOT
ATOM      1  C   UNL     1       2.814   2.851  19.506  0.00  0.00    +0.000 A 
ATOM      2  C   UNL     1       2.134   2.723  20.691  0.00  0.00    +0.000 A 
ATOM      3  C   UNL     1       1.661   4.003  21.046  0.00  0.00    +0.000 A 
ATOM      4  C   UNL     1       2.055   4.922  20.077  0.00  0.00    +0.000 A 
ATOM      5  N   UNL     1       2.746   4.179  19.111  0.00  0.00    +0.000 N 
ENDROOT
BRANCH   4   6
ATOM      6  C   UNL     1       1.799   6.380  20.083  0.00  0.00    +0.000 A 
ATOM      7  C   UNL     1       1.245   7.009  21.212  0.00  0.00    +0.000 A 
ATOM      8  C   UNL     1       1.008   8.392  21.233  0.00  0.00    +0.000 A 
ATOM      9  C   UNL     1       1.313   9.153  20.108  0.00  0.00    +0.000 A 
ATOM     10  O   UNL     1       1.025  10.529  20.128  0.00  0.00    +0.000 OA
ATOM     11  C   UNL     1       1.274  11.326  19.015  0.00  0.00    +0.000 A 
ATOM     12  O   UNL     1       0.993  12.519  18.988  0.00  0.00    +0.000 OA
ATOM     13  C   UNL     1       1.903  10.681  17.848  0.00  0.00    +0.000 A 
ATOM     14  C   UNL     1       2.206   9.382  17.832  0.00  0.00    +0.000 A 
ATOM     15  C   UNL     1       1.888   8.572  18.994  0.00  0.00    +0.000 A 
ATOM     16  C   UNL     1       2.149   7.205  19.008  0.00  0.00    +0.000 A 
ENDBRANCH   4   6
BRANCH   1  18
ATOM     17  N   UNL     1       4.045   0.967  18.233  0.00  0.00    +0.000 NA
ATOM     18  C   UNL     1       3.497   1.807  18.810  0.00  0.00    +0.000 C 
ENDBRANCH   1  18
BRANCH   5  19
ATOM     19  C   UNL     1       3.305   4.667  17.842  0.00  0.00    +0.000 C 
BRANCH  19  20
ATOM     20  C   UNL     1       4.732   5.184  17.944  0.00  0.00    +0.000 A 
ATOM     21  C   UNL     1       5.597   4.850  19.005  0.00  0.00    +0.000 A 
ATOM     22  C   UNL     1       6.809   5.520  19.177  0.00  0.00    +0.000 A 
ATOM     23  C   UNL     1       7.191   6.491  18.263  0.00  0.00    +0.000 A 
ATOM     24  F   UNL     1       8.337   7.157  18.449  0.00  0.00    +0.000 F 
ATOM     25  C   UNL     1       6.388   6.797  17.171  0.00  0.00    +0.000 A 
ATOM     26  C   UNL     1       5.162   6.146  17.009  0.00  0.00    +0.000 A 
ENDBRANCH  19  20
ENDBRANCH   5  19
TORSDOF 4
ENDMDL
MODEL 6
REMARK VINA RESULT:      -8.0      2.644      4.276
REMARK  Name = 
REMARK  4 active torsions:
REMARK  status: ('A' for Active; 'I' for Inactive)
REMARK    1  A    between atoms: C_2  and  C_3
REMARK    2  A    between atoms: C_6  and  C_7
REMARK    3  A    between atoms: N_18  and  C_19
REMARK    4  A    between atoms: C_19  and  C_20
REMARK                            x       y       z     vdW  Elec       q    Type
REMARK                         _______ _______ _______ _____ _____    ______ ____
ROOT
ATOM      1  C   UNL     1       5.030   5.239  16.738  0.00  0.00    +0.000 A 
ATOM      2  C   UNL     1       5.913   6.284  16.831  0.00  0.00    +0.000 A 
ATOM      3  C   UNL     1       5.233   7.358  17.441  0.00  0.00    +0.000 A 
ATOM      4  C   UNL     1       3.925   6.972  17.720  0.00  0.00    +0.000 A 
ATOM      5  N   UNL     1       3.828   5.639  17.303  0.00  0.00    +0.000 N 
ENDROOT
BRANCH   4   6
ATOM      6  C   UNL     1       2.864   7.810  18.325  0.00  0.00    +0.000 A 
ATOM      7  C   UNL     1       2.182   8.770  17.560  0.00  0.00    +0.000 A 
ATOM      8  C   UNL     1       1.167   9.562  18.120  0.00  0.00    +0.000 A 
ATOM      9  C   UNL     1       0.841   9.403  19.464  0.00  0.00    +0.000 A 
ATOM     10  O   UNL     1      -0.144  10.237  20.021  0.00  0.00    +0.000 OA
ATOM     11  C   UNL     1      -0.477  10.145  21.369  0.00  0.00    +0.000 A 
ATOM     12  O   UNL     1      -1.300  10.887  21.892  0.00  0.00    +0.000 OA
ATOM     13  C   UNL     1       0.200   9.103  22.164  0.00  0.00    +0.000 A 
ATOM     14  C   UNL     1       1.115   8.289  21.635  0.00  0.00    +0.000 A 
ATOM     15  C   UNL     1       1.471   8.446  20.237  0.00  0.00    +0.000 A 
ATOM     16  C   UNL     1       2.448   7.645  19.652  0.00  0.00    +0.000 A 
ENDBRANCH   4   6
BRANCH   1  18
ATOM     17  N   UNL     1       5.513   2.941  15.655  0.00  0.00    +0.000 NA
ATOM     18  C   UNL     1       5.290   3.967  16.142  0.00  0.00    +0.000 C 
ENDBRANCH   1  18
BRANCH   5  19
ATOM     19  C   UNL     1       2.672   4.741  17.445  0.00  0.00    +0.000 C 
BRANCH  19  20
ATOM     20  C   UNL     1       2.517   4.134  18.831  0.00  0.00    +0.000 A 
ATOM     21  C   UNL     1       3.528   3.375  19.455  0.00  0.00    +0.000 A 
ATOM     22  C   UNL     1       3.263   2.653  20.619  0.00  0.00    +0.000 A 
ATOM     23  C   UNL     1       2.004   2.723  21.198  0.00  0.00    +0.000 A 
ATOM     24  F   UNL     1       1.743   2.002  22.295  0.00  0.00    +0.000 F 
ATOM     25  C   UNL     1       1.007   3.513  20.640  0.00  0.00    +0.000 A 
ATOM     26  C   UNL     1       1.260   4.218  19.460  0.00  0.00    +0.000 A 
ENDBRANCH  19  20
ENDBRANCH   5  19
TORSDOF 4
ENDMDL
MODEL 7
REMARK VINA RESULT:      -7.9      1.663      1.970
REMARK  Name = 
REMARK  4 active torsions:
REMARK  status: ('A' for Active; 'I' for Inactive)
REMARK    1  A    between atoms: C_2  and  C_3
REMARK    2  A    between atoms: C_6  and  C_7
REMARK    3  A    between atoms: N_18  and  C_19
REMARK    4  A    between atoms: C_19  and  C_20
REMARK                            x       y       z     vdW  Elec       q    Type
REMARK                         _______ _______ _______ _____ _____    ______ ____
ROOT
ATOM      1  C   UNL     1       2.775   3.001  19.465  0.00  0.00    +0.000 A 
ATOM      2  C   UNL     1       1.926   2.989  20.542  0.00  0.00    +0.000 A 
ATOM      3  C   UNL     1       1.467   4.309  20.732  0.00  0.00    +0.000 A 
ATOM      4  C   UNL     1       2.041   5.136  19.770  0.00  0.00    +0.000 A 
ATOM      5  N   UNL     1       2.828   4.296  18.972  0.00  0.00    +0.000 N 
ENDROOT
BRANCH   4   6
ATOM      6  C   UNL     1       1.855   6.599  19.635  0.00  0.00    +0.000 A 
ATOM      7  C   UNL     1       2.155   7.253  18.428  0.00  0.00    +0.000 A 
ATOM      8  C   UNL     1       1.973   8.637  18.285  0.00  0.00    +0.000 A 
ATOM      9  C   UNL     1       1.501   9.379  19.364  0.00  0.00    +0.000 A 
ATOM     10  O   UNL     1       1.369  10.770  19.219  0.00  0.00    +0.000 OA
ATOM     11  C   UNL     1       0.941  11.561  20.281  0.00  0.00    +0.000 A 
ATOM     12  O   UNL     1       0.858  12.781  20.198  0.00  0.00    +0.000 OA
ATOM     13  C   UNL     1       0.575  10.872  21.533  0.00  0.00    +0.000 A 
ATOM     14  C   UNL     1       0.670   9.548  21.669  0.00  0.00    +0.000 A 
ATOM     15  C   UNL     1       1.167   8.761  20.555  0.00  0.00    +0.000 A 
ATOM     16  C   UNL     1       1.320   7.382  20.664  0.00  0.00    +0.000 A 
ENDBRANCH   4   6
BRANCH   1  18
ATOM     17  N   UNL     1       4.081   0.975  18.528  0.00  0.00    +0.000 NA
ATOM     18  C   UNL     1       3.502   1.883  18.953  0.00  0.00    +0.000 C 
ENDBRANCH   1  18
BRANCH   5  19
ATOM     19  C   UNL     1       3.587   4.665  17.767  0.00  0.00    +0.000 C 
BRANCH  19  20
ATOM     20  C   UNL     1       4.871   5.432  18.047  0.00  0.00    +0.000 A 
ATOM     21  C   UNL     1       5.401   6.391  17.160  0.00  0.00    +0.000 A 
ATOM     22  C   UNL     1       6.686   6.902  17.347  0.00  0.00    +0.000 A 
ATOM     23  C   UNL     1       7.431   6.500  18.446  0.00  0.00    +0.000 A 
ATOM     24  F   UNL     1       8.677   6.965  18.603  0.00  0.00    +0.000 F 
ATOM     25  C   UNL     1       6.910   5.604  19.371  0.00  0.00    +0.000 A 
ATOM     26  C   UNL     1       5.633   5.071  19.174  0.00  0.00    +0.000 A 
ENDBRANCH  19  20
ENDBRANCH   5  19
TORSDOF 4
ENDMDL
MODEL 8
REMARK VINA RESULT:      -7.8      2.802      4.444
REMARK  Name = 
REMARK  4 active torsions:
REMARK  status: ('A' for Active; 'I' for Inactive)
REMARK    1  A    between atoms: C_2  and  C_3
REMARK    2  A    between atoms: C_6  and  C_7
REMARK    3  A    between atoms: N_18  and  C_19
REMARK    4  A    between atoms: C_19  and  C_20
REMARK                            x       y       z     vdW  Elec       q    Type
REMARK                         _______ _______ _______ _____ _____    ______ ____
ROOT
ATOM      1  C   UNL     1       4.353   5.366  17.143  0.00  0.00    +0.000 A 
ATOM      2  C   UNL     1       5.305   6.348  17.250  0.00  0.00    +0.000 A 
ATOM      3  C   UNL     1       4.680   7.481  17.812  0.00  0.00    +0.000 A 
ATOM      4  C   UNL     1       3.339   7.195  18.047  0.00  0.00    +0.000 A 
ATOM      5  N   UNL     1       3.162   5.863  17.652  0.00  0.00    +0.000 N 
ENDROOT
BRANCH   4   6
ATOM      6  C   UNL     1       2.318   8.119  18.594  0.00  0.00    +0.000 A 
ATOM      7  C   UNL     1       1.628   9.007  17.752  0.00  0.00    +0.000 A 
ATOM      8  C   UNL     1       0.651   9.879  18.257  0.00  0.00    +0.000 A 
ATOM      9  C   UNL     1       0.373   9.875  19.621  0.00  0.00    +0.000 A 
ATOM     10  O   UNL     1      -0.574  10.788  20.118  0.00  0.00    +0.000 OA
ATOM     11  C   UNL     1      -0.858  10.851  21.478  0.00  0.00    +0.000 A 
ATOM     12  O   UNL     1      -1.645  11.666  21.946  0.00  0.00    +0.000 OA
ATOM     13  C   UNL     1      -0.174   9.885  22.358  0.00  0.00    +0.000 A 
ATOM     14  C   UNL     1       0.705   8.997  21.890  0.00  0.00    +0.000 A 
ATOM     15  C   UNL     1       1.011   8.992  20.471  0.00  0.00    +0.000 A 
ATOM     16  C   UNL     1       1.950   8.110  19.944  0.00  0.00    +0.000 A 
ENDBRANCH   4   6
BRANCH   1  18
ATOM     17  N   UNL     1       4.684   3.010  16.129  0.00  0.00    +0.000 NA
ATOM     18  C   UNL     1       4.543   4.066  16.582  0.00  0.00    +0.000 C 
ENDBRANCH   1  18
BRANCH   5  19
ATOM     19  C   UNL     1       1.940   5.052  17.767  0.00  0.00    +0.000 C 
BRANCH  19  20
ATOM     20  C   UNL     1       1.891   4.163  19.000  0.00  0.00    +0.000 A 
ATOM     21  C   UNL     1       1.310   2.879  19.000  0.00  0.00    +0.000 A 
ATOM     22  C   UNL     1       1.086   2.196  20.196  0.00  0.00    +0.000 A 
ATOM     23  C   UNL     1       1.487   2.766  21.396  0.00  0.00    +0.000 A 
ATOM     24  F   UNL     1       1.240   2.124  22.545  0.00  0.00    +0.000 F 
ATOM     25  C   UNL     1       2.120   4.002  21.421  0.00  0.00    +0.000 A 
ATOM     26  C   UNL     1       2.323   4.701  20.227  0.00  0.00    +0.000 A 
ENDBRANCH  19  20
ENDBRANCH   5  19
TORSDOF 4
ENDMDL
MODEL 9
REMARK VINA RESULT:      -7.8      1.355      1.763
REMARK  Name = 
REMARK  4 active torsions:
REMARK  status: ('A' for Active; 'I' for Inactive)
REMARK    1  A    between atoms: C_2  and  C_3
REMARK    2  A    between atoms: C_6  and  C_7
REMARK    3  A    between atoms: N_18  and  C_19
REMARK    4  A    between atoms: C_19  and  C_20
REMARK                            x       y       z     vdW  Elec       q    Type
REMARK                         _______ _______ _______ _____ _____    ______ ____
ROOT
ATOM      1  C   UNL     1       2.798   3.041  19.741  0.00  0.00    +0.000 A 
ATOM      2  C   UNL     1       2.493   3.010  21.078  0.00  0.00    +0.000 A 
ATOM      3  C   UNL     1       2.060   4.302  21.442  0.00  0.00    +0.000 A 
ATOM      4  C   UNL     1       2.103   5.130  20.324  0.00  0.00    +0.000 A 
ATOM      5  N   UNL     1       2.535   4.318  19.268  0.00  0.00    +0.000 N 
ENDROOT
BRANCH   4   6
ATOM      6  C   UNL     1       1.766   6.572  20.276  0.00  0.00    +0.000 A 
ATOM      7  C   UNL     1       2.151   7.365  19.182  0.00  0.00    +0.000 A 
ATOM      8  C   UNL     1       1.829   8.729  19.121  0.00  0.00    +0.000 A 
ATOM      9  C   UNL     1       1.126   9.311  20.173  0.00  0.00    +0.000 A 
ATOM     10  O   UNL     1       0.853  10.689  20.118  0.00  0.00    +0.000 OA
ATOM     11  C   UNL     1       0.190  11.326  21.162  0.00  0.00    +0.000 A 
ATOM     12  O   UNL     1      -0.024  12.533  21.163  0.00  0.00    +0.000 OA
ATOM     13  C   UNL     1      -0.263  10.488  22.288  0.00  0.00    +0.000 A 
ATOM     14  C   UNL     1      -0.032   9.175  22.334  0.00  0.00    +0.000 A 
ATOM     15  C   UNL     1       0.705   8.553  21.249  0.00  0.00    +0.000 A 
ATOM     16  C   UNL     1       1.003   7.194  21.272  0.00  0.00    +0.000 A 
ENDBRANCH   4   6
BRANCH   1  18
ATOM     17  N   UNL     1       3.753   1.083  18.347  0.00  0.00    +0.000 NA
ATOM     18  C   UNL     1       3.318   1.956  18.970  0.00  0.00    +0.000 C 
ENDBRANCH   1  18
BRANCH   5  19
ATOM     19  C   UNL     1       2.676   4.694  17.853  0.00  0.00    +0.000 C 
BRANCH  19  20
ATOM     20  C   UNL     1       4.115   4.758  17.363  0.00  0.00    +0.000 A 
ATOM     21  C   UNL     1       4.569   4.068  16.221  0.00  0.00    +0.000 A 
ATOM     22  C   UNL     1       5.933   3.973  15.939  0.00  0.00    +0.000 A 
ATOM     23  C   UNL     1       6.849   4.609  16.765  0.00  0.00    +0.000 A 
ATOM     24  F   UNL     1       8.158   4.487  16.512  0.00  0.00    +0.000 F 
ATOM     25  C   UNL     1       6.426   5.348  17.862  0.00  0.00    +0.000 A 
ATOM     26  C   UNL     1       5.063   5.425  18.162  0.00  0.00    +0.000 A 
ENDBRANCH  19  20
ENDBRANCH   5  19
TORSDOF 4
ENDMDL
