MODEL 1
REMARK VINA RESULT:      -7.0      0.000      0.000
REMARK  Name = 
REMARK  6 active torsions:
REMARK  status: ('A' for Active; 'I' for Inactive)
REMARK    1  A    between atoms: N_1  and  C_2
REMARK    2  A    between atoms: C_2  and  C_3
REMARK    3  A    between atoms: N_5  and  C_6
REMARK    4  A    between atoms: C_6  and  C_7
REMARK    5  A    between atoms: C_6  and  C_14
REMARK    6  A    between atoms: C_7  and  C_8
REMARK                            x       y       z     vdW  Elec       q    Type
REMARK                         _______ _______ _______ _____ _____    ______ ____
ROOT
ATOM      1  C   UNL     1       5.983   4.236  16.248  0.00  0.00    +0.000 C 
ENDROOT
BRANCH   1   2
ATOM      2  C   UNL     1       6.698   4.464  14.900  0.00  0.00    +0.000 C 
ATOM      3  N   UNL     1       6.337   3.603  13.901  0.00  0.00    +0.000 N 
ATOM      4  O   UNL     1       7.479   5.383  14.675  0.00  0.00    +0.000 OA
ATOM      5  H   UNL     1       5.610   2.905  14.049  0.00  0.00    +0.000 HD
ATOM      6  H   UNL     1       6.714   3.741  12.975  0.00  0.00    +0.000 HD
ENDBRANCH   1   2
BRANCH   1   9
ATOM      7  C   UNL     1       7.619   4.989  17.980  0.00  0.00    +0.000 C 
ATOM      8  O   UNL     1       8.388   4.051  17.771  0.00  0.00    +0.000 OA
ATOM      9  N   UNL     1       6.472   5.183  17.252  0.00  0.00    +0.000 N 
ATOM     10  H   UNL     1       5.968   6.048  17.431  0.00  0.00    +0.000 HD
BRANCH   7  11
ATOM     11  C   UNL     1       7.890   6.062  19.040  0.00  0.00    +0.000 C 
BRANCH  11  12
ATOM     12  N   UNL     1       7.947   5.475  20.394  0.00  0.00    +0.000 NA
ATOM     13  H   UNL     1       7.155   5.837  20.929  0.00  0.00    +0.000 HD
ATOM     14  H   UNL     1       8.777   5.839  20.868  0.00  0.00    +0.000 HD
ENDBRANCH  11  12
ENDBRANCH   7  11
ENDBRANCH   1   9
BRANCH   1  15
ATOM     15  C   UNL     1       4.457   4.329  16.064  0.00  0.00    +0.000 C 
BRANCH  15  16
ATOM     16  C   UNL     1       3.613   3.892  17.245  0.00  0.00    +0.000 A 
ATOM     17  C   UNL     1       3.615   2.537  17.611  0.00  0.00    +0.000 A 
ATOM     18  C   UNL     1       2.818   2.080  18.662  0.00  0.00    +0.000 A 
ATOM     19  C   UNL     1       2.022   2.973  19.372  0.00  0.00    +0.000 A 
ATOM     20  C   UNL     1       2.048   4.329  19.054  0.00  0.00    +0.000 A 
ATOM     21  C   UNL     1       2.849   4.788  18.007  0.00  0.00    +0.000 A 
ENDBRANCH  15  16
ENDBRANCH   1  15
TORSDOF 6
ENDMDL
MODEL 2
REMARK VINA RESULT:      -6.8      1.169      1.663
REMARK  Name = 
REMARK  6 active torsions:
REMARK  status: ('A' for Active; 'I' for Inactive)
REMARK    1  A    between atoms: N_1  and  C_2
REMARK    2  A    between atoms: C_2  and  C_3
REMARK    3  A    between atoms: N_5  and  C_6
REMARK    4  A    between atoms: C_6  and  C_7
REMARK    5  A    between atoms: C_6  and  C_14
REMARK    6  A    between atoms: C_7  and  C_8
REMARK                            x       y       z     vdW  Elec       q    Type
REMARK                         _______ _______ _______ _____ _____    ______ ____
ROOT
ATOM      1  C   UNL     1       5.869   4.475  16.355  0.00  0.00    +0.000 C 
ENDROOT
BRANCH   1   2
ATOM      2  C   UNL     1       6.305   4.579  14.878  0.00  0.00    +0.000 C 
ATOM      3  N   UNL     1       7.449   5.296  14.664  0.00  0.00    +0.000 N 
ATOM      4  O   UNL     1       5.743   4.014  13.946  0.00  0.00    +0.000 OA
ATOM      5  H   UNL     1       7.982   5.678  15.443  0.00  0.00    +0.000 HD
ATOM      6  H   UNL     1       7.829   5.345  13.729  0.00  0.00    +0.000 HD
ENDBRANCH   1   2
BRANCH   1   9
ATOM      7  C   UNL     1       6.883   4.980  18.581  0.00  0.00    +0.000 C 
ATOM      8  O   UNL     1       6.188   4.153  19.172  0.00  0.00    +0.000 OA
ATOM      9  N   UNL     1       6.833   5.155  17.222  0.00  0.00    +0.000 N 
ATOM     10  H   UNL     1       7.527   5.784  16.824  0.00  0.00    +0.000 HD
BRANCH   7  11
ATOM     11  C   UNL     1       7.910   5.862  19.299  0.00  0.00    +0.000 C 
BRANCH  11  12
ATOM     12  N   UNL     1       8.210   5.345  20.650  0.00  0.00    +0.000 NA
ATOM     13  H   UNL     1       7.426   4.760  20.946  0.00  0.00    +0.000 HD
ATOM     14  H   UNL     1       8.216   6.132  21.302  0.00  0.00    +0.000 HD
ENDBRANCH  11  12
ENDBRANCH   7  11
ENDBRANCH   1   9
BRANCH   1  15
ATOM     15  C   UNL     1       4.445   5.032  16.530  0.00  0.00    +0.000 C 
BRANCH  15  16
ATOM     16  C   UNL     1       3.457   4.132  17.246  0.00  0.00    +0.000 A 
ATOM     17  C   UNL     1       2.292   4.700  17.783  0.00  0.00    +0.000 A 
ATOM     18  C   UNL     1       1.376   3.920  18.490  0.00  0.00    +0.000 A 
ATOM     19  C   UNL     1       1.604   2.557  18.657  0.00  0.00    +0.000 A 
ATOM     20  C   UNL     1       2.730   1.969  18.086  0.00  0.00    +0.000 A 
ATOM     21  C   UNL     1       3.644   2.747  17.373  0.00  0.00    +0.000 A 
ENDBRANCH  15  16
ENDBRANCH   1  15
TORSDOF 6
ENDMDL
MODEL 3
REMARK VINA RESULT:      -6.8      1.776      2.165
REMARK  Name = 
REMARK  6 active torsions:
REMARK  status: ('A' for Active; 'I' for Inactive)
REMARK    1  A    between atoms: N_1  and  C_2
REMARK    2  A    between atoms: C_2  and  C_3
REMARK    3  A    between atoms: N_5  and  C_6
REMARK    4  A    between atoms: C_6  and  C_7
REMARK    5  A    between atoms: C_6  and  C_14
REMARK    6  A    between atoms: C_7  and  C_8
REMARK                            x       y       z     vdW  Elec       q    Type
REMARK                         _______ _______ _______ _____ _____    ______ ____
ROOT
ATOM      1  C   UNL     1       5.081   5.580  17.057  0.00  0.00    +0.000 C 
ENDROOT
BRANCH   1   2
ATOM      2  C   UNL     1       5.254   5.883  15.554  0.00  0.00    +0.000 C 
ATOM      3  N   UNL     1       5.535   4.795  14.774  0.00  0.00    +0.000 N 
ATOM      4  O   UNL     1       5.084   6.986  15.043  0.00  0.00    +0.000 OA
ATOM      5  H   UNL     1       5.571   3.859  15.174  0.00  0.00    +0.000 HD
ATOM      6  H   UNL     1       5.591   4.912  13.773  0.00  0.00    +0.000 HD
ENDBRANCH   1   2
BRANCH   1   9
ATOM      7  C   UNL     1       6.695   5.282  18.940  0.00  0.00    +0.000 C 
ATOM      8  O   UNL     1       6.104   4.302  19.394  0.00  0.00    +0.000 OA
ATOM      9  N   UNL     1       6.303   5.917  17.790  0.00  0.00    +0.000 N 
ATOM     10  H   UNL     1       6.925   6.645  17.444  0.00  0.00    +0.000 HD
BRANCH   7  11
ATOM     11  C   UNL     1       7.958   5.860  19.588  0.00  0.00    +0.000 C 
BRANCH  11  12
ATOM     12  N   UNL     1       8.221   5.236  20.901  0.00  0.00    +0.000 NA
ATOM     13  H   UNL     1       9.228   5.271  21.071  0.00  0.00    +0.000 HD
ATOM     14  H   UNL     1       7.997   4.240  20.835  0.00  0.00    +0.000 HD
ENDBRANCH  11  12
ENDBRANCH   7  11
ENDBRANCH   1   9
BRANCH   1  15
ATOM     15  C   UNL     1       3.853   6.325  17.612  0.00  0.00    +0.000 C 
BRANCH  15  16
ATOM     16  C   UNL     1       2.863   5.488  18.399  0.00  0.00    +0.000 A 
ATOM     17  C   UNL     1       2.647   5.793  19.751  0.00  0.00    +0.000 A 
ATOM     18  C   UNL     1       1.780   5.023  20.528  0.00  0.00    +0.000 A 
ATOM     19  C   UNL     1       1.104   3.948  19.960  0.00  0.00    +0.000 A 
ATOM     20  C   UNL     1       1.269   3.664  18.606  0.00  0.00    +0.000 A 
ATOM     21  C   UNL     1       2.131   4.437  17.827  0.00  0.00    +0.000 A 
ENDBRANCH  15  16
ENDBRANCH   1  15
TORSDOF 6
ENDMDL
MODEL 4
REMARK VINA RESULT:      -6.7      1.208      1.682
REMARK  Name = 
REMARK  6 active torsions:
REMARK  status: ('A' for Active; 'I' for Inactive)
REMARK    1  A    between atoms: N_1  and  C_2
REMARK    2  A    between atoms: C_2  and  C_3
REMARK    3  A    between atoms: N_5  and  C_6
REMARK    4  A    between atoms: C_6  and  C_7
REMARK    5  A    between atoms: C_6  and  C_14
REMARK    6  A    between atoms: C_7  and  C_8
REMARK                            x       y       z     vdW  Elec       q    Type
REMARK                         _______ _______ _______ _____ _____    ______ ____
ROOT
ATOM      1  C   UNL     1       5.216   5.143  16.935  0.00  0.00    +0.000 C 
ENDROOT
BRANCH   1   2
ATOM      2  C   UNL     1       5.480   5.706  15.522  0.00  0.00    +0.000 C 
ATOM      3  N   UNL     1       6.089   4.838  14.659  0.00  0.00    +0.000 N 
ATOM      4  O   UNL     1       5.118   6.813  15.137  0.00  0.00    +0.000 OA
ATOM      5  H   UNL     1       6.296   3.881  14.938  0.00  0.00    +0.000 HD
ATOM      6  H   UNL     1       6.228   5.119  13.699  0.00  0.00    +0.000 HD
ENDBRANCH   1   2
BRANCH   1   9
ATOM      7  C   UNL     1       7.407   5.327  18.121  0.00  0.00    +0.000 C 
ATOM      8  O   UNL     1       7.939   4.454  17.435  0.00  0.00    +0.000 OA
ATOM      9  N   UNL     1       6.122   5.758  17.907  0.00  0.00    +0.000 N 
ATOM     10  H   UNL     1       5.820   6.559  18.456  0.00  0.00    +0.000 HD
BRANCH   7  11
ATOM     11  C   UNL     1       8.143   6.056  19.250  0.00  0.00    +0.000 C 
BRANCH  11  12
ATOM     12  N   UNL     1       8.085   5.290  20.511  0.00  0.00    +0.000 NA
ATOM     13  H   UNL     1       7.129   5.343  20.870  0.00  0.00    +0.000 HD
ATOM     14  H   UNL     1       8.658   5.770  21.208  0.00  0.00    +0.000 HD
ENDBRANCH  11  12
ENDBRANCH   7  11
ENDBRANCH   1   9
BRANCH   1  15
ATOM     15  C   UNL     1       3.739   5.341  17.320  0.00  0.00    +0.000 C 
BRANCH  15  16
ATOM     16  C   UNL     1       3.021   4.123  17.867  0.00  0.00    +0.000 A 
ATOM     17  C   UNL     1       1.638   4.199  18.090  0.00  0.00    +0.000 A 
ATOM     18  C   UNL     1       0.942   3.119  18.636  0.00  0.00    +0.000 A 
ATOM     19  C   UNL     1       1.616   1.943  18.951  0.00  0.00    +0.000 A 
ATOM     20  C   UNL     1       2.979   1.835  18.689  0.00  0.00    +0.000 A 
ATOM     21  C   UNL     1       3.675   2.912  18.137  0.00  0.00    +0.000 A 
ENDBRANCH  15  16
ENDBRANCH   1  15
TORSDOF 6
ENDMDL
MODEL 5
REMARK VINA RESULT:      -6.6      1.895      3.570
REMARK  Name = 
REMARK  6 active torsions:
REMARK  status: ('A' for Active; 'I' for Inactive)
REMARK    1  A    between atoms: N_1  and  C_2
REMARK    2  A    between atoms: C_2  and  C_3
REMARK    3  A    between atoms: N_5  and  C_6
REMARK    4  A    between atoms: C_6  and  C_7
REMARK    5  A    between atoms: C_6  and  C_14
REMARK    6  A    between atoms: C_7  and  C_8
REMARK                            x       y       z     vdW  Elec       q    Type
REMARK                         _______ _______ _______ _____ _____    ______ ____
ROOT
ATOM      1  C   UNL     1       4.719   4.287  17.387  0.00  0.00    +0.000 C 
ENDROOT
BRANCH   1   2
ATOM      2  C   UNL     1       5.599   4.766  18.561  0.00  0.00    +0.000 C 
ATOM      3  N   UNL     1       6.878   4.284  18.558  0.00  0.00    +0.000 N 
ATOM      4  O   UNL     1       5.243   5.576  19.411  0.00  0.00    +0.000 OA
ATOM      5  H   UNL     1       7.214   3.695  17.797  0.00  0.00    +0.000 HD
ATOM      6  H   UNL     1       7.527   4.612  19.258  0.00  0.00    +0.000 HD
ENDBRANCH   1   2
BRANCH   1   9
ATOM      7  C   UNL     1       5.801   5.079  15.280  0.00  0.00    +0.000 C 
ATOM      8  O   UNL     1       5.465   6.250  15.456  0.00  0.00    +0.000 OA
ATOM      9  N   UNL     1       5.533   4.086  16.187  0.00  0.00    +0.000 N 
ATOM     10  H   UNL     1       5.952   3.178  15.997  0.00  0.00    +0.000 HD
BRANCH   7  11
ATOM     11  C   UNL     1       6.596   4.622  14.052  0.00  0.00    +0.000 C 
BRANCH  11  12
ATOM     12  N   UNL     1       7.785   5.471  13.836  0.00  0.00    +0.000 NA
ATOM     13  H   UNL     1       8.614   4.874  13.889  0.00  0.00    +0.000 HD
ATOM     14  H   UNL     1       7.869   6.115  14.626  0.00  0.00    +0.000 HD
ENDBRANCH  11  12
ENDBRANCH   7  11
ENDBRANCH   1   9
BRANCH   1  15
ATOM     15  C   UNL     1       3.952   3.012  17.782  0.00  0.00    +0.000 C 
BRANCH  15  16
ATOM     16  C   UNL     1       3.012   3.137  18.966  0.00  0.00    +0.000 A 
ATOM     17  C   UNL     1       3.404   2.595  20.199  0.00  0.00    +0.000 A 
ATOM     18  C   UNL     1       2.553   2.644  21.305  0.00  0.00    +0.000 A 
ATOM     19  C   UNL     1       1.306   3.251  21.197  0.00  0.00    +0.000 A 
ATOM     20  C   UNL     1       0.923   3.839  19.994  0.00  0.00    +0.000 A 
ATOM     21  C   UNL     1       1.776   3.795  18.889  0.00  0.00    +0.000 A 
ENDBRANCH  15  16
ENDBRANCH   1  15
TORSDOF 6
ENDMDL
MODEL 6
REMARK VINA RESULT:      -6.6      1.592      2.018
REMARK  Name = 
REMARK  6 active torsions:
REMARK  status: ('A' for Active; 'I' for Inactive)
REMARK    1  A    between atoms: N_1  and  C_2
REMARK    2  A    between atoms: C_2  and  C_3
REMARK    3  A    between atoms: N_5  and  C_6
REMARK    4  A    between atoms: C_6  and  C_7
REMARK    5  A    between atoms: C_6  and  C_14
REMARK    6  A    between atoms: C_7  and  C_8
REMARK                            x       y       z     vdW  Elec       q    Type
REMARK                         _______ _______ _______ _____ _____    ______ ____
ROOT
ATOM      1  C   UNL     1       4.852   5.011  17.331  0.00  0.00    +0.000 C 
ENDROOT
BRANCH   1   2
ATOM      2  C   UNL     1       5.199   5.178  15.836  0.00  0.00    +0.000 C 
ATOM      3  N   UNL     1       5.514   6.453  15.455  0.00  0.00    +0.000 N 
ATOM      4  O   UNL     1       5.273   4.254  15.033  0.00  0.00    +0.000 OA
ATOM      5  H   UNL     1       5.559   7.208  16.138  0.00  0.00    +0.000 HD
ATOM      6  H   UNL     1       5.818   6.620  14.507  0.00  0.00    +0.000 HD
ENDBRANCH   1   2
BRANCH   1   9
ATOM      7  C   UNL     1       7.198   5.311  18.136  0.00  0.00    +0.000 C 
ATOM      8  O   UNL     1       7.661   4.508  17.326  0.00  0.00    +0.000 OA
ATOM      9  N   UNL     1       5.870   5.653  18.165  0.00  0.00    +0.000 N 
ATOM     10  H   UNL     1       5.614   6.407  18.799  0.00  0.00    +0.000 HD
BRANCH   7  11
ATOM     11  C   UNL     1       8.068   6.048  19.160  0.00  0.00    +0.000 C 
BRANCH  11  12
ATOM     12  N   UNL     1       8.045   5.368  20.471  0.00  0.00    +0.000 NA
ATOM     13  H   UNL     1       7.772   6.055  21.178  0.00  0.00    +0.000 HD
ATOM     14  H   UNL     1       9.002   5.103  20.713  0.00  0.00    +0.000 HD
ENDBRANCH  11  12
ENDBRANCH   7  11
ENDBRANCH   1   9
BRANCH   1  15
ATOM     15  C   UNL     1       3.444   5.562  17.616  0.00  0.00    +0.000 C 
BRANCH  15  16
ATOM     16  C   UNL     1       2.555   4.704  18.496  0.00  0.00    +0.000 A 
ATOM     17  C   UNL     1       2.477   4.997  19.865  0.00  0.00    +0.000 A 
ATOM     18  C   UNL     1       1.709   4.208  20.723  0.00  0.00    +0.000 A 
ATOM     19  C   UNL     1       0.995   3.124  20.220  0.00  0.00    +0.000 A 
ATOM     20  C   UNL     1       1.022   2.851  18.855  0.00  0.00    +0.000 A 
ATOM     21  C   UNL     1       1.785   3.644  17.995  0.00  0.00    +0.000 A 
ENDBRANCH  15  16
ENDBRANCH   1  15
TORSDOF 6
ENDMDL
MODEL 7
REMARK VINA RESULT:      -6.5      1.894      3.724
REMARK  Name = 
REMARK  6 active torsions:
REMARK  status: ('A' for Active; 'I' for Inactive)
REMARK    1  A    between atoms: N_1  and  C_2
REMARK    2  A    between atoms: C_2  and  C_3
REMARK    3  A    between atoms: N_5  and  C_6
REMARK    4  A    between atoms: C_6  and  C_7
REMARK    5  A    between atoms: C_6  and  C_14
REMARK    6  A    between atoms: C_7  and  C_8
REMARK                            x       y       z     vdW  Elec       q    Type
REMARK                         _______ _______ _______ _____ _____    ______ ____
ROOT
ATOM      1  C   UNL     1       5.286   5.742  17.652  0.00  0.00    +0.000 C 
ENDROOT
BRANCH   1   2
ATOM      2  C   UNL     1       5.807   4.889  18.828  0.00  0.00    +0.000 C 
ATOM      3  N   UNL     1       5.631   3.541  18.686  0.00  0.00    +0.000 N 
ATOM      4  O   UNL     1       6.408   5.338  19.798  0.00  0.00    +0.000 OA
ATOM      5  H   UNL     1       5.229   3.152  17.835  0.00  0.00    +0.000 HD
ATOM      6  H   UNL     1       6.011   2.921  19.386  0.00  0.00    +0.000 HD
ENDBRANCH   1   2
BRANCH   1   9
ATOM      7  C   UNL     1       6.151   4.973  15.438  0.00  0.00    +0.000 C 
ATOM      8  O   UNL     1       7.199   5.611  15.539  0.00  0.00    +0.000 OA
ATOM      9  N   UNL     1       5.207   4.936  16.432  0.00  0.00    +0.000 N 
ATOM     10  H   UNL     1       4.432   4.291  16.292  0.00  0.00    +0.000 HD
BRANCH   7  11
ATOM     11  C   UNL     1       5.818   4.117  14.211  0.00  0.00    +0.000 C 
BRANCH  11  12
ATOM     12  N   UNL     1       6.865   4.233  13.176  0.00  0.00    +0.000 NA
ATOM     13  H   UNL     1       6.488   4.791  12.407  0.00  0.00    +0.000 HD
ATOM     14  H   UNL     1       7.029   3.306  12.777  0.00  0.00    +0.000 HD
ENDBRANCH  11  12
ENDBRANCH   7  11
ENDBRANCH   1   9
BRANCH   1  15
ATOM     15  C   UNL     1       3.930   6.374  18.013  0.00  0.00    +0.000 C 
BRANCH  15  16
ATOM     16  C   UNL     1       2.884   5.435  18.582  0.00  0.00    +0.000 A 
ATOM     17  C   UNL     1       2.537   5.554  19.936  0.00  0.00    +0.000 A 
ATOM     18  C   UNL     1       1.614   4.682  20.517  0.00  0.00    +0.000 A 
ATOM     19  C   UNL     1       1.013   3.691  19.747  0.00  0.00    +0.000 A 
ATOM     20  C   UNL     1       1.309   3.593  18.390  0.00  0.00    +0.000 A 
ATOM     21  C   UNL     1       2.228   4.468  17.807  0.00  0.00    +0.000 A 
ENDBRANCH  15  16
ENDBRANCH   1  15
TORSDOF 6
ENDMDL
MODEL 8
REMARK VINA RESULT:      -6.5      1.915      3.827
REMARK  Name = 
REMARK  6 active torsions:
REMARK  status: ('A' for Active; 'I' for Inactive)
REMARK    1  A    between atoms: N_1  and  C_2
REMARK    2  A    between atoms: C_2  and  C_3
REMARK    3  A    between atoms: N_5  and  C_6
REMARK    4  A    between atoms: C_6  and  C_7
REMARK    5  A    between atoms: C_6  and  C_14
REMARK    6  A    between atoms: C_7  and  C_8
REMARK                            x       y       z     vdW  Elec       q    Type
REMARK                         _______ _______ _______ _____ _____    ______ ____
ROOT
ATOM      1  C   UNL     1       4.509   4.382  17.188  0.00  0.00    +0.000 C 
ENDROOT
BRANCH   1   2
ATOM      2  C   UNL     1       5.246   4.778  18.485  0.00  0.00    +0.000 C 
ATOM      3  N   UNL     1       6.415   4.107  18.714  0.00  0.00    +0.000 N 
ATOM      4  O   UNL     1       4.887   5.675  19.242  0.00  0.00    +0.000 OA
ATOM      5  H   UNL     1       6.776   3.438  18.036  0.00  0.00    +0.000 HD
ATOM      6  H   UNL     1       6.982   4.367  19.508  0.00  0.00    +0.000 HD
ENDBRANCH   1   2
BRANCH   1   9
ATOM      7  C   UNL     1       5.801   5.042  15.154  0.00  0.00    +0.000 C 
ATOM      8  O   UNL     1       5.394   6.203  15.179  0.00  0.00    +0.000 OA
ATOM      9  N   UNL     1       5.471   4.120  16.115  0.00  0.00    +0.000 N 
ATOM     10  H   UNL     1       5.949   3.224  16.061  0.00  0.00    +0.000 HD
BRANCH   7  11
ATOM     11  C   UNL     1       6.757   4.522  14.075  0.00  0.00    +0.000 C 
BRANCH  11  12
ATOM     12  N   UNL     1       6.140   3.432  13.292  0.00  0.00    +0.000 NA
ATOM     13  H   UNL     1       6.212   3.675  12.302  0.00  0.00    +0.000 HD
ATOM     14  H   UNL     1       5.138   3.419  13.491  0.00  0.00    +0.000 HD
ENDBRANCH  11  12
ENDBRANCH   7  11
ENDBRANCH   1   9
BRANCH   1  15
ATOM     15  C   UNL     1       3.591   3.173  17.446  0.00  0.00    +0.000 C 
BRANCH  15  16
ATOM     16  C   UNL     1       2.830   3.179  18.757  0.00  0.00    +0.000 A 
ATOM     17  C   UNL     1       1.604   3.859  18.822  0.00  0.00    +0.000 A 
ATOM     18  C   UNL     1       0.889   3.931  20.019  0.00  0.00    +0.000 A 
ATOM     19  C   UNL     1       1.381   3.310  21.163  0.00  0.00    +0.000 A 
ATOM     20  C   UNL     1       2.571   2.589  21.102  0.00  0.00    +0.000 A 
ATOM     21  C   UNL     1       3.284   2.511  19.904  0.00  0.00    +0.000 A 
ENDBRANCH  15  16
ENDBRANCH   1  15
TORSDOF 6
ENDMDL
MODEL 9
REMARK VINA RESULT:      -6.5      1.811      3.356
REMARK  Name = 
REMARK  6 active torsions:
REMARK  status: ('A' for Active; 'I' for Inactive)
REMARK    1  A    between atoms: N_1  and  C_2
REMARK    2  A    between atoms: C_2  and  C_3
REMARK    3  A    between atoms: N_5  and  C_6
REMARK    4  A    between atoms: C_6  and  C_7
REMARK    5  A    between atoms: C_6  and  C_14
REMARK    6  A    between atoms: C_7  and  C_8
REMARK                            x       y       z     vdW  Elec       q    Type
REMARK                         _______ _______ _______ _____ _____    ______ ____
ROOT
ATOM      1  C   UNL     1       6.125   6.598  17.401  0.00  0.00    +0.000 C 
ENDROOT
BRANCH   1   2
ATOM      2  C   UNL     1       7.470   7.225  17.824  0.00  0.00    +0.000 C 
ATOM      3  N   UNL     1       8.114   6.579  18.842  0.00  0.00    +0.000 N 
ATOM      4  O   UNL     1       7.996   8.184  17.267  0.00  0.00    +0.000 OA
ATOM      5  H   UNL     1       7.737   5.720  19.239  0.00  0.00    +0.000 HD
ATOM      6  H   UNL     1       9.032   6.896  19.121  0.00  0.00    +0.000 HD
ENDBRANCH   1   2
BRANCH   1   9
ATOM      7  C   UNL     1       7.074   5.104  15.637  0.00  0.00    +0.000 C 
ATOM      8  O   UNL     1       7.781   4.486  16.432  0.00  0.00    +0.000 OA
ATOM      9  N   UNL     1       6.207   6.093  16.029  0.00  0.00    +0.000 N 
ATOM     10  H   UNL     1       5.591   6.461  15.308  0.00  0.00    +0.000 HD
BRANCH   7  11
ATOM     11  C   UNL     1       7.054   4.798  14.136  0.00  0.00    +0.000 C 
BRANCH  11  12
ATOM     12  N   UNL     1       8.075   5.585  13.414  0.00  0.00    +0.000 NA
ATOM     13  H   UNL     1       7.693   6.517  13.243  0.00  0.00    +0.000 HD
ATOM     14  H   UNL     1       8.203   5.174  12.487  0.00  0.00    +0.000 HD
ENDBRANCH  11  12
ENDBRANCH   7  11
ENDBRANCH   1   9
BRANCH   1  15
ATOM     15  C   UNL     1       5.715   5.497  18.396  0.00  0.00    +0.000 C 
BRANCH  15  16
ATOM     16  C   UNL     1       4.355   4.865  18.170  0.00  0.00    +0.000 A 
ATOM     17  C   UNL     1       4.284   3.482  17.942  0.00  0.00    +0.000 A 
ATOM     18  C   UNL     1       3.060   2.863  17.684  0.00  0.00    +0.000 A 
ATOM     19  C   UNL     1       1.889   3.614  17.667  0.00  0.00    +0.000 A 
ATOM     20  C   UNL     1       1.937   4.978  17.942  0.00  0.00    +0.000 A 
ATOM     21  C   UNL     1       3.160   5.598  18.207  0.00  0.00    +0.000 A 
ENDBRANCH  15  16
ENDBRANCH   1  15
TORSDOF 6
ENDMDL
