MODEL 1
REMARK VINA RESULT:      -6.5      0.000      0.000
REMARK  Name = 
REMARK  1 active torsions:
REMARK  status: ('A' for Active; 'I' for Inactive)
REMARK    1  A    between atoms: C_1  and  C_2
REMARK                            x       y       z     vdW  Elec       q    Type
REMARK                         _______ _______ _______ _____ _____    ______ ____
ROOT
ATOM      1  C   UNL     1       1.730   2.782  20.313  0.00  0.00    +0.000 C 
ATOM      2  C   UNL     1       2.493   3.694  19.385  0.00  0.00    +0.000 C 
ATOM      3  C   UNL     1       3.287   3.245  18.384  0.00  0.00    +0.000 C 
ATOM      4 CL   UNL     1       3.524   1.566  18.041  0.00  0.00    +0.000 Cl
ATOM      5  C   UNL     1       4.048   4.251  17.511  0.00  0.00    +0.000 C 
ATOM      6  N   UNL     1       4.800   3.736  16.596  0.00  0.00    +0.000 NA
ATOM      7  S   UNL     1       5.756   4.563  15.629  0.00  0.00    +0.000 S 
ATOM      8  O   UNL     1       5.375   4.273  14.261  0.00  0.00    +0.000 OA
ATOM      9  O   UNL     1       7.125   4.344  16.058  0.00  0.00    +0.000 OA
ATOM     10  C   UNL     1       5.440   6.257  15.868  0.00  0.00    +0.000 C 
ATOM     11  C   UNL     1       4.562   6.651  17.013  0.00  0.00    +0.000 C 
ATOM     12  N   UNL     1       3.887   5.608  17.772  0.00  0.00    +0.000 N 
ATOM     13  C   UNL     1       3.039   5.992  18.813  0.00  0.00    +0.000 C 
ATOM     14  C   UNL     1       2.363   5.138  19.597  0.00  0.00    +0.000 C 
ATOM     15 CL   UNL     1       1.345   5.772  20.841  0.00  0.00    +0.000 Cl
ENDROOT
TORSDOF 0
ENDMDL
MODEL 2
REMARK VINA RESULT:      -6.5      1.738      3.004
REMARK  Name = 
REMARK  1 active torsions:
REMARK  status: ('A' for Active; 'I' for Inactive)
REMARK    1  A    between atoms: C_1  and  C_2
REMARK                            x       y       z     vdW  Elec       q    Type
REMARK                         _______ _______ _______ _____ _____    ______ ____
ROOT
ATOM      1  C   UNL     1       1.050   4.457  20.316  0.00  0.00    +0.000 C 
ATOM      2  C   UNL     1       2.174   4.395  19.311  0.00  0.00    +0.000 C 
ATOM      3  C   UNL     1       2.845   5.487  18.873  0.00  0.00    +0.000 C 
ATOM      4 CL   UNL     1       2.498   7.093  19.413  0.00  0.00    +0.000 Cl
ATOM      5  C   UNL     1       3.953   5.326  17.825  0.00  0.00    +0.000 C 
ATOM      6  N   UNL     1       4.523   6.420  17.446  0.00  0.00    +0.000 NA
ATOM      7  S   UNL     1       5.631   6.524  16.308  0.00  0.00    +0.000 S 
ATOM      8  O   UNL     1       6.817   7.125  16.886  0.00  0.00    +0.000 OA
ATOM      9  O   UNL     1       5.017   7.125  15.139  0.00  0.00    +0.000 OA
ATOM     10  C   UNL     1       6.087   4.912  15.841  0.00  0.00    +0.000 C 
ATOM     11  C   UNL     1       5.271   3.774  16.368  0.00  0.00    +0.000 C 
ATOM     12  N   UNL     1       4.245   4.046  17.363  0.00  0.00    +0.000 N 
ATOM     13  C   UNL     1       3.518   2.969  17.875  0.00  0.00    +0.000 C 
ATOM     14  C   UNL     1       2.541   3.077  18.788  0.00  0.00    +0.000 C 
ATOM     15 CL   UNL     1       1.739   1.644  19.328  0.00  0.00    +0.000 Cl
ENDROOT
TORSDOF 0
ENDMDL
MODEL 3
REMARK VINA RESULT:      -6.4      3.222      4.496
REMARK  Name = 
REMARK  1 active torsions:
REMARK  status: ('A' for Active; 'I' for Inactive)
REMARK    1  A    between atoms: C_1  and  C_2
REMARK                            x       y       z     vdW  Elec       q    Type
REMARK                         _______ _______ _______ _____ _____    ______ ____
ROOT
ATOM      1  C   UNL     1       2.722   8.550  17.817  0.00  0.00    +0.000 C 
ATOM      2  C   UNL     1       2.653   7.319  18.687  0.00  0.00    +0.000 C 
ATOM      3  C   UNL     1       3.298   6.164  18.398  0.00  0.00    +0.000 C 
ATOM      4 CL   UNL     1       4.286   5.955  16.993  0.00  0.00    +0.000 Cl
ATOM      5  C   UNL     1       3.143   4.955  19.328  0.00  0.00    +0.000 C 
ATOM      6  N   UNL     1       3.772   3.888  18.964  0.00  0.00    +0.000 NA
ATOM      7  S   UNL     1       3.693   2.484  19.710  0.00  0.00    +0.000 S 
ATOM      8  O   UNL     1       5.037   2.101  20.094  0.00  0.00    +0.000 OA
ATOM      9  O   UNL     1       2.895   1.588  18.893  0.00  0.00    +0.000 OA
ATOM     10  C   UNL     1       2.811   2.702  21.193  0.00  0.00    +0.000 C 
ATOM     11  C   UNL     1       2.120   4.011  21.410  0.00  0.00    +0.000 C 
ATOM     12  N   UNL     1       2.344   5.090  20.460  0.00  0.00    +0.000 N 
ATOM     13  C   UNL     1       1.723   6.319  20.696  0.00  0.00    +0.000 C 
ATOM     14  C   UNL     1       1.836   7.393  19.900  0.00  0.00    +0.000 C 
ATOM     15 CL   UNL     1       1.010   8.848  20.336  0.00  0.00    +0.000 Cl
ENDROOT
TORSDOF 0
ENDMDL
MODEL 4
REMARK VINA RESULT:      -6.3      2.120      3.091
REMARK  Name = 
REMARK  1 active torsions:
REMARK  status: ('A' for Active; 'I' for Inactive)
REMARK    1  A    between atoms: C_1  and  C_2
REMARK                            x       y       z     vdW  Elec       q    Type
REMARK                         _______ _______ _______ _____ _____    ______ ____
ROOT
ATOM      1  C   UNL     1       1.338   5.240  20.608  0.00  0.00    +0.000 C 
ATOM      2  C   UNL     1       2.640   5.083  19.861  0.00  0.00    +0.000 C 
ATOM      3  C   UNL     1       3.150   6.034  19.044  0.00  0.00    +0.000 C 
ATOM      4 CL   UNL     1       2.374   7.553  18.754  0.00  0.00    +0.000 Cl
ATOM      5  C   UNL     1       4.467   5.770  18.303  0.00  0.00    +0.000 C 
ATOM      6  N   UNL     1       4.869   6.721  17.526  0.00  0.00    +0.000 NA
ATOM      7  S   UNL     1       6.150   6.648  16.585  0.00  0.00    +0.000 S 
ATOM      8  O   UNL     1       7.034   7.740  16.942  0.00  0.00    +0.000 OA
ATOM      9  O   UNL     1       5.692   6.512  15.215  0.00  0.00    +0.000 OA
ATOM     10  C   UNL     1       7.017   5.186  16.954  0.00  0.00    +0.000 C 
ATOM     11  C   UNL     1       6.358   4.191  17.856  0.00  0.00    +0.000 C 
ATOM     12  N   UNL     1       5.108   4.552  18.508  0.00  0.00    +0.000 N 
ATOM     13  C   UNL     1       4.525   3.629  19.378  0.00  0.00    +0.000 C 
ATOM     14  C   UNL     1       3.373   3.827  20.037  0.00  0.00    +0.000 C 
ATOM     15 CL   UNL     1       2.785   2.587  21.087  0.00  0.00    +0.000 Cl
ENDROOT
TORSDOF 0
ENDMDL
MODEL 5
REMARK VINA RESULT:      -6.2      1.382      1.468
REMARK  Name = 
REMARK  1 active torsions:
REMARK  status: ('A' for Active; 'I' for Inactive)
REMARK    1  A    between atoms: C_1  and  C_2
REMARK                            x       y       z     vdW  Elec       q    Type
REMARK                         _______ _______ _______ _____ _____    ______ ____
ROOT
ATOM      1  C   UNL     1       2.321   4.915  21.003  0.00  0.00    +0.000 C 
ATOM      2  C   UNL     1       3.063   5.280  19.741  0.00  0.00    +0.000 C 
ATOM      3  C   UNL     1       3.921   4.442  19.112  0.00  0.00    +0.000 C 
ATOM      4 CL   UNL     1       4.273   2.845  19.676  0.00  0.00    +0.000 Cl
ATOM      5  C   UNL     1       4.653   4.914  17.849  0.00  0.00    +0.000 C 
ATOM      6  N   UNL     1       5.469   4.060  17.328  0.00  0.00    +0.000 NA
ATOM      7  S   UNL     1       6.409   4.346  16.076  0.00  0.00    +0.000 S 
ATOM      8  O   UNL     1       6.101   3.372  15.047  0.00  0.00    +0.000 OA
ATOM      9  O   UNL     1       7.772   4.476  16.559  0.00  0.00    +0.000 OA
ATOM     10  C   UNL     1       5.982   5.897  15.414  0.00  0.00    +0.000 C 
ATOM     11  C   UNL     1       5.037   6.755  16.196  0.00  0.00    +0.000 C 
ATOM     12  N   UNL     1       4.398   6.199  17.379  0.00  0.00    +0.000 N 
ATOM     13  C   UNL     1       3.489   6.997  18.076  0.00  0.00    +0.000 C 
ATOM     14  C   UNL     1       2.837   6.615  19.185  0.00  0.00    +0.000 C 
ATOM     15 CL   UNL     1       1.734   7.720  19.929  0.00  0.00    +0.000 Cl
ENDROOT
TORSDOF 0
ENDMDL
MODEL 6
REMARK VINA RESULT:      -6.2      3.753      5.431
REMARK  Name = 
REMARK  1 active torsions:
REMARK  status: ('A' for Active; 'I' for Inactive)
REMARK    1  A    between atoms: C_1  and  C_2
REMARK                            x       y       z     vdW  Elec       q    Type
REMARK                         _______ _______ _______ _____ _____    ______ ____
ROOT
ATOM      1  C   UNL     1       5.210   6.733  15.792  0.00  0.00    +0.000 C 
ATOM      2  C   UNL     1       4.629   5.623  16.632  0.00  0.00    +0.000 C 
ATOM      3  C   UNL     1       3.731   5.830  17.625  0.00  0.00    +0.000 C 
ATOM      4 CL   UNL     1       3.134   7.396  18.053  0.00  0.00    +0.000 Cl
ATOM      5  C   UNL     1       3.221   4.639  18.446  0.00  0.00    +0.000 C 
ATOM      6  N   UNL     1       2.386   4.930  19.387  0.00  0.00    +0.000 NA
ATOM      7  S   UNL     1       1.788   3.887  20.430  0.00  0.00    +0.000 S 
ATOM      8  O   UNL     1       0.343   3.919  20.323  0.00  0.00    +0.000 OA
ATOM      9  O   UNL     1       2.421   4.125  21.714  0.00  0.00    +0.000 OA
ATOM     10  C   UNL     1       2.272   2.289  19.941  0.00  0.00    +0.000 C 
ATOM     11  C   UNL     1       3.283   2.168  18.845  0.00  0.00    +0.000 C 
ATOM     12  N   UNL     1       3.693   3.369  18.132  0.00  0.00    +0.000 N 
ATOM     13  C   UNL     1       4.607   3.236  17.085  0.00  0.00    +0.000 C 
ATOM     14  C   UNL     1       5.076   4.257  16.351  0.00  0.00    +0.000 C 
ATOM     15 CL   UNL     1       6.200   3.927  15.080  0.00  0.00    +0.000 Cl
ENDROOT
TORSDOF 0
ENDMDL
MODEL 7
REMARK VINA RESULT:      -6.1      3.913      4.893
REMARK  Name = 
REMARK  1 active torsions:
REMARK  status: ('A' for Active; 'I' for Inactive)
REMARK    1  A    between atoms: C_1  and  C_2
REMARK                            x       y       z     vdW  Elec       q    Type
REMARK                         _______ _______ _______ _____ _____    ______ ____
ROOT
ATOM      1  C   UNL     1       5.540   3.597  15.619  0.00  0.00    +0.000 C 
ATOM      2  C   UNL     1       4.720   4.174  16.746  0.00  0.00    +0.000 C 
ATOM      3  C   UNL     1       4.110   3.417  17.688  0.00  0.00    +0.000 C 
ATOM      4 CL   UNL     1       4.195   1.689  17.718  0.00  0.00    +0.000 Cl
ATOM      5  C   UNL     1       3.271   4.094  18.779  0.00  0.00    +0.000 C 
ATOM      6  N   UNL     1       2.704   3.296  19.621  0.00  0.00    +0.000 NA
ATOM      7  S   UNL     1       1.714   3.748  20.782  0.00  0.00    +0.000 S 
ATOM      8  O   UNL     1       2.261   3.296  22.045  0.00  0.00    +0.000 OA
ATOM      9  O   UNL     1       0.369   3.359  20.399  0.00  0.00    +0.000 OA
ATOM     10  C   UNL     1       1.713   5.487  20.852  0.00  0.00    +0.000 C 
ATOM     11  C   UNL     1       2.403   6.231  19.753  0.00  0.00    +0.000 C 
ATOM     12  N   UNL     1       3.174   5.482  18.772  0.00  0.00    +0.000 N 
ATOM     13  C   UNL     1       3.845   6.193  17.775  0.00  0.00    +0.000 C 
ATOM     14  C   UNL     1       4.583   5.631  16.806  0.00  0.00    +0.000 C 
ATOM     15 CL   UNL     1       5.360   6.652  15.647  0.00  0.00    +0.000 Cl
ENDROOT
TORSDOF 0
ENDMDL
MODEL 8
REMARK VINA RESULT:      -6.0      3.218      4.521
REMARK  Name = 
REMARK  1 active torsions:
REMARK  status: ('A' for Active; 'I' for Inactive)
REMARK    1  A    between atoms: C_1  and  C_2
REMARK                            x       y       z     vdW  Elec       q    Type
REMARK                         _______ _______ _______ _____ _____    ______ ____
ROOT
ATOM      1  C   UNL     1       5.287   7.408  16.629  0.00  0.00    +0.000 C 
ATOM      2  C   UNL     1       4.617   6.447  17.580  0.00  0.00    +0.000 C 
ATOM      3  C   UNL     1       5.153   5.256  17.938  0.00  0.00    +0.000 C 
ATOM      4 CL   UNL     1       6.676   4.685  17.348  0.00  0.00    +0.000 Cl
ATOM      5  C   UNL     1       4.381   4.333  18.889  0.00  0.00    +0.000 C 
ATOM      6  N   UNL     1       4.954   3.207  19.157  0.00  0.00    +0.000 NA
ATOM      7  S   UNL     1       4.315   2.047  20.040  0.00  0.00    +0.000 S 
ATOM      8  O   UNL     1       5.211   1.775  21.146  0.00  0.00    +0.000 OA
ATOM      9  O   UNL     1       3.925   0.969  19.148  0.00  0.00    +0.000 OA
ATOM     10  C   UNL     1       2.843   2.646  20.747  0.00  0.00    +0.000 C 
ATOM     11  C   UNL     1       2.326   3.967  20.272  0.00  0.00    +0.000 C 
ATOM     12  N   UNL     1       3.147   4.760  19.369  0.00  0.00    +0.000 N 
ATOM     13  C   UNL     1       2.670   6.008  18.965  0.00  0.00    +0.000 C 
ATOM     14  C   UNL     1       3.317   6.837  18.132  0.00  0.00    +0.000 C 
ATOM     15 CL   UNL     1       2.595   8.356  17.734  0.00  0.00    +0.000 Cl
ENDROOT
TORSDOF 0
ENDMDL
MODEL 9
REMARK VINA RESULT:      -6.0      3.746      5.065
REMARK  Name = 
REMARK  1 active torsions:
REMARK  status: ('A' for Active; 'I' for Inactive)
REMARK    1  A    between atoms: C_1  and  C_2
REMARK                            x       y       z     vdW  Elec       q    Type
REMARK                         _______ _______ _______ _____ _____    ______ ____
ROOT
ATOM      1  C   UNL     1       7.218   7.148  17.263  0.00  0.00    +0.000 C 
ATOM      2  C   UNL     1       6.222   6.039  17.495  0.00  0.00    +0.000 C 
ATOM      3  C   UNL     1       6.208   5.271  18.610  0.00  0.00    +0.000 C 
ATOM      4 CL   UNL     1       7.330   5.466  19.912  0.00  0.00    +0.000 Cl
ATOM      5  C   UNL     1       5.174   4.145  18.742  0.00  0.00    +0.000 C 
ATOM      6  N   UNL     1       5.247   3.447  19.825  0.00  0.00    +0.000 NA
ATOM      7  S   UNL     1       4.350   2.173  20.151  0.00  0.00    +0.000 S 
ATOM      8  O   UNL     1       3.641   2.425  21.390  0.00  0.00    +0.000 OA
ATOM      9  O   UNL     1       5.186   0.993  20.027  0.00  0.00    +0.000 OA
ATOM     10  C   UNL     1       3.130   2.034  18.918  0.00  0.00    +0.000 C 
ATOM     11  C   UNL     1       3.246   2.919  17.717  0.00  0.00    +0.000 C 
ATOM     12  N   UNL     1       4.266   3.957  17.704  0.00  0.00    +0.000 N 
ATOM     13  C   UNL     1       4.337   4.800  16.594  0.00  0.00    +0.000 C 
ATOM     14  C   UNL     1       5.231   5.790  16.447  0.00  0.00    +0.000 C 
ATOM     15 CL   UNL     1       5.183   6.755  15.013  0.00  0.00    +0.000 Cl
ENDROOT
TORSDOF 0
ENDMDL
