MODEL 1
REMARK VINA RESULT:      -6.5      0.000      0.000
REMARK  Name = 
REMARK  4 active torsions:
REMARK  status: ('A' for Active; 'I' for Inactive)
REMARK    1  A    between atoms: C_2  and  O_3
REMARK    2  A    between atoms: C_2  and  C_4
REMARK    3  A    between atoms: C_4  and  N_5
REMARK    4  A    between atoms: C_8  and  C_9
REMARK                            x       y       z     vdW  Elec       q    Type
REMARK                         _______ _______ _______ _____ _____    ______ ____
ROOT
ATOM      1  N   UNL     1       5.617   5.835  18.077  0.00  0.00    +0.000 NA
ATOM      2  C   UNL     1       5.665   4.404  17.706  0.00  0.00    +0.000 C 
ATOM      3  C   UNL     1       4.428   4.129  16.871  0.00  0.00    +0.000 C 
ATOM      4  C   UNL     1       3.366   5.063  17.445  0.00  0.00    +0.000 C 
ATOM      5  C   UNL     1       4.174   6.218  18.048  0.00  0.00    +0.000 C 
ENDROOT
BRANCH   4   6
ATOM      6  C   UNL     1       2.432   4.399  18.442  0.00  0.00    +0.000 A 
ATOM      7  C   UNL     1       2.160   4.956  19.700  0.00  0.00    +0.000 A 
ATOM      8  C   UNL     1       1.297   4.325  20.596  0.00  0.00    +0.000 A 
ATOM      9  C   UNL     1       0.679   3.129  20.240  0.00  0.00    +0.000 A 
ATOM     10  C   UNL     1       0.922   2.568  18.991  0.00  0.00    +0.000 A 
ATOM     11  C   UNL     1       1.795   3.196  18.098  0.00  0.00    +0.000 A 
ENDBRANCH   4   6
BRANCH   1  12
ATOM     12  C   UNL     1       6.401   6.631  17.092  0.00  0.00    +0.000 C 
BRANCH  12  14
ATOM     13  O   UNL     1       8.195   6.819  18.729  0.00  0.00    +0.000 OA
ATOM     14  C   UNL     1       7.593   7.295  17.779  0.00  0.00    +0.000 C 
BRANCH  14  15
ATOM     15  O   UNL     1       7.890   8.505  17.241  0.00  0.00    +0.000 OA
ATOM     16  H   UNL     1       8.845   8.670  17.431  0.00  0.00    +0.000 HD
ENDBRANCH  14  15
ENDBRANCH  12  14
ENDBRANCH   1  12
TORSDOF 4
ENDMDL
MODEL 2
REMARK VINA RESULT:      -6.5      0.260      1.516
REMARK  Name = 
REMARK  4 active torsions:
REMARK  status: ('A' for Active; 'I' for Inactive)
REMARK    1  A    between atoms: C_2  and  O_3
REMARK    2  A    between atoms: C_2  and  C_4
REMARK    3  A    between atoms: C_4  and  N_5
REMARK    4  A    between atoms: C_8  and  C_9
REMARK                            x       y       z     vdW  Elec       q    Type
REMARK                         _______ _______ _______ _____ _____    ______ ____
ROOT
ATOM      1  N   UNL     1       5.872   5.705  18.091  0.00  0.00    +0.000 NA
ATOM      2  C   UNL     1       5.796   4.307  17.615  0.00  0.00    +0.000 C 
ATOM      3  C   UNL     1       4.536   4.201  16.776  0.00  0.00    +0.000 C 
ATOM      4  C   UNL     1       3.560   5.176  17.428  0.00  0.00    +0.000 C 
ATOM      5  C   UNL     1       4.467   6.210  18.105  0.00  0.00    +0.000 C 
ENDROOT
BRANCH   4   6
ATOM      6  C   UNL     1       2.577   4.522  18.382  0.00  0.00    +0.000 A 
ATOM      7  C   UNL     1       1.917   3.323  18.074  0.00  0.00    +0.000 A 
ATOM      8  C   UNL     1       1.019   2.744  18.971  0.00  0.00    +0.000 A 
ATOM      9  C   UNL     1       0.776   3.351  20.201  0.00  0.00    +0.000 A 
ATOM     10  C   UNL     1       1.432   4.532  20.532  0.00  0.00    +0.000 A 
ATOM     11  C   UNL     1       2.325   5.116  19.629  0.00  0.00    +0.000 A 
ENDBRANCH   4   6
BRANCH   1  12
ATOM     12  C   UNL     1       6.718   6.502  17.159  0.00  0.00    +0.000 C 
BRANCH  12  14
ATOM     13  O   UNL     1       7.995   8.515  17.659  0.00  0.00    +0.000 OA
ATOM     14  C   UNL     1       7.701   7.365  17.947  0.00  0.00    +0.000 C 
BRANCH  14  15
ATOM     15  O   UNL     1       8.253   6.696  18.991  0.00  0.00    +0.000 OA
ATOM     16  H   UNL     1       7.962   5.756  18.907  0.00  0.00    +0.000 HD
ENDBRANCH  14  15
ENDBRANCH  12  14
ENDBRANCH   1  12
TORSDOF 4
ENDMDL
MODEL 3
REMARK VINA RESULT:      -6.4      1.173      1.767
REMARK  Name = 
REMARK  4 active torsions:
REMARK  status: ('A' for Active; 'I' for Inactive)
REMARK    1  A    between atoms: C_2  and  O_3
REMARK    2  A    between atoms: C_2  and  C_4
REMARK    3  A    between atoms: C_4  and  N_5
REMARK    4  A    between atoms: C_8  and  C_9
REMARK                            x       y       z     vdW  Elec       q    Type
REMARK                         _______ _______ _______ _____ _____    ______ ____
ROOT
ATOM      1  N   UNL     1       6.197   4.493  18.322  0.00  0.00    +0.000 NA
ATOM      2  C   UNL     1       5.485   3.987  17.128  0.00  0.00    +0.000 C 
ATOM      3  C   UNL     1       4.295   4.903  16.910  0.00  0.00    +0.000 C 
ATOM      4  C   UNL     1       3.881   5.331  18.314  0.00  0.00    +0.000 C 
ATOM      5  C   UNL     1       5.173   5.216  19.132  0.00  0.00    +0.000 C 
ENDROOT
BRANCH   4   6
ATOM      6  C   UNL     1       2.731   4.527  18.893  0.00  0.00    +0.000 A 
ATOM      7  C   UNL     1       1.920   3.700  18.101  0.00  0.00    +0.000 A 
ATOM      8  C   UNL     1       0.870   2.971  18.659  0.00  0.00    +0.000 A 
ATOM      9  C   UNL     1       0.621   3.047  20.027  0.00  0.00    +0.000 A 
ATOM     10  C   UNL     1       1.423   3.849  20.834  0.00  0.00    +0.000 A 
ATOM     11  C   UNL     1       2.470   4.586  20.271  0.00  0.00    +0.000 A 
ENDBRANCH   4   6
BRANCH   1  12
ATOM     12  C   UNL     1       7.290   5.412  17.897  0.00  0.00    +0.000 C 
BRANCH  12  14
ATOM     13  O   UNL     1       8.310   5.215  20.100  0.00  0.00    +0.000 OA
ATOM     14  C   UNL     1       8.073   5.897  19.115  0.00  0.00    +0.000 C 
BRANCH  14  15
ATOM     15  O   UNL     1       8.448   7.196  19.002  0.00  0.00    +0.000 OA
ATOM     16  H   UNL     1       9.430   7.216  19.107  0.00  0.00    +0.000 HD
ENDBRANCH  14  15
ENDBRANCH  12  14
ENDBRANCH   1  12
TORSDOF 4
ENDMDL
MODEL 4
REMARK VINA RESULT:      -6.4      0.574      1.001
REMARK  Name = 
REMARK  4 active torsions:
REMARK  status: ('A' for Active; 'I' for Inactive)
REMARK    1  A    between atoms: C_2  and  O_3
REMARK    2  A    between atoms: C_2  and  C_4
REMARK    3  A    between atoms: C_4  and  N_5
REMARK    4  A    between atoms: C_8  and  C_9
REMARK                            x       y       z     vdW  Elec       q    Type
REMARK                         _______ _______ _______ _____ _____    ______ ____
ROOT
ATOM      1  N   UNL     1       6.180   5.206  17.908  0.00  0.00    +0.000 NA
ATOM      2  C   UNL     1       5.706   4.002  17.191  0.00  0.00    +0.000 C 
ATOM      3  C   UNL     1       4.389   4.376  16.536  0.00  0.00    +0.000 C 
ATOM      4  C   UNL     1       3.759   5.382  17.495  0.00  0.00    +0.000 C 
ATOM      5  C   UNL     1       4.958   6.005  18.219  0.00  0.00    +0.000 C 
ENDROOT
BRANCH   4   6
ATOM      6  C   UNL     1       2.734   4.780  18.439  0.00  0.00    +0.000 A 
ATOM      7  C   UNL     1       2.455   5.335  19.697  0.00  0.00    +0.000 A 
ATOM      8  C   UNL     1       1.507   4.761  20.544  0.00  0.00    +0.000 A 
ATOM      9  C   UNL     1       0.811   3.625  20.139  0.00  0.00    +0.000 A 
ATOM     10  C   UNL     1       1.061   3.067  18.890  0.00  0.00    +0.000 A 
ATOM     11  C   UNL     1       2.018   3.638  18.045  0.00  0.00    +0.000 A 
ENDBRANCH   4   6
BRANCH   1  12
ATOM     12  C   UNL     1       7.111   5.972  17.033  0.00  0.00    +0.000 C 
BRANCH  12  14
ATOM     13  O   UNL     1       7.559   8.344  17.355  0.00  0.00    +0.000 OA
ATOM     14  C   UNL     1       7.641   7.199  17.772  0.00  0.00    +0.000 C 
BRANCH  14  15
ATOM     15  O   UNL     1       8.256   6.873  18.937  0.00  0.00    +0.000 OA
ATOM     16  H   UNL     1       8.293   7.699  19.476  0.00  0.00    +0.000 HD
ENDBRANCH  14  15
ENDBRANCH  12  14
ENDBRANCH   1  12
TORSDOF 4
ENDMDL
MODEL 5
REMARK VINA RESULT:      -6.4      1.168      1.312
REMARK  Name = 
REMARK  4 active torsions:
REMARK  status: ('A' for Active; 'I' for Inactive)
REMARK    1  A    between atoms: C_2  and  O_3
REMARK    2  A    between atoms: C_2  and  C_4
REMARK    3  A    between atoms: C_4  and  N_5
REMARK    4  A    between atoms: C_8  and  C_9
REMARK                            x       y       z     vdW  Elec       q    Type
REMARK                         _______ _______ _______ _____ _____    ______ ____
ROOT
ATOM      1  N   UNL     1       6.205   4.539  18.322  0.00  0.00    +0.000 NA
ATOM      2  C   UNL     1       5.489   4.051  17.124  0.00  0.00    +0.000 C 
ATOM      3  C   UNL     1       4.290   4.963  16.932  0.00  0.00    +0.000 C 
ATOM      4  C   UNL     1       3.884   5.361  18.348  0.00  0.00    +0.000 C 
ATOM      5  C   UNL     1       5.182   5.239  19.154  0.00  0.00    +0.000 C 
ENDROOT
BRANCH   4   6
ATOM      6  C   UNL     1       2.743   4.537  18.918  0.00  0.00    +0.000 A 
ATOM      7  C   UNL     1       2.324   4.659  20.252  0.00  0.00    +0.000 A 
ATOM      8  C   UNL     1       1.272   3.890  20.750  0.00  0.00    +0.000 A 
ATOM      9  C   UNL     1       0.611   2.992  19.915  0.00  0.00    +0.000 A 
ATOM     10  C   UNL     1       1.000   2.867  18.585  0.00  0.00    +0.000 A 
ATOM     11  C   UNL     1       2.061   3.632  18.090  0.00  0.00    +0.000 A 
ENDBRANCH   4   6
BRANCH   1  12
ATOM     12  C   UNL     1       7.289   5.473  17.908  0.00  0.00    +0.000 C 
BRANCH  12  14
ATOM     13  O   UNL     1       8.329   5.207  20.094  0.00  0.00    +0.000 OA
ATOM     14  C   UNL     1       8.099   5.914  19.126  0.00  0.00    +0.000 C 
BRANCH  14  15
ATOM     15  O   UNL     1       8.506   7.205  19.034  0.00  0.00    +0.000 OA
ATOM     16  H   UNL     1       7.744   7.762  19.323  0.00  0.00    +0.000 HD
ENDBRANCH  14  15
ENDBRANCH  12  14
ENDBRANCH   1  12
TORSDOF 4
ENDMDL
MODEL 6
REMARK VINA RESULT:      -6.3      2.330      2.831
REMARK  Name = 
REMARK  4 active torsions:
REMARK  status: ('A' for Active; 'I' for Inactive)
REMARK    1  A    between atoms: C_2  and  O_3
REMARK    2  A    between atoms: C_2  and  C_4
REMARK    3  A    between atoms: C_4  and  N_5
REMARK    4  A    between atoms: C_8  and  C_9
REMARK                            x       y       z     vdW  Elec       q    Type
REMARK                         _______ _______ _______ _____ _____    ______ ____
ROOT
ATOM      1  N   UNL     1       5.575   4.429  16.854  0.00  0.00    +0.000 NA
ATOM      2  C   UNL     1       4.534   5.466  16.687  0.00  0.00    +0.000 C 
ATOM      3  C   UNL     1       4.440   6.206  18.009  0.00  0.00    +0.000 C 
ATOM      4  C   UNL     1       4.751   5.146  19.061  0.00  0.00    +0.000 C 
ATOM      5  C   UNL     1       5.621   4.127  18.316  0.00  0.00    +0.000 C 
ENDROOT
BRANCH   4   6
ATOM      6  C   UNL     1       3.520   4.530  19.702  0.00  0.00    +0.000 A 
ATOM      7  C   UNL     1       3.460   3.174  20.060  0.00  0.00    +0.000 A 
ATOM      8  C   UNL     1       2.316   2.635  20.648  0.00  0.00    +0.000 A 
ATOM      9  C   UNL     1       1.214   3.448  20.900  0.00  0.00    +0.000 A 
ATOM     10  C   UNL     1       1.259   4.798  20.568  0.00  0.00    +0.000 A 
ATOM     11  C   UNL     1       2.403   5.336  19.970  0.00  0.00    +0.000 A 
ENDBRANCH   4   6
BRANCH   1  12
ATOM     12  C   UNL     1       6.883   4.956  16.375  0.00  0.00    +0.000 C 
BRANCH  12  14
ATOM     13  O   UNL     1       6.476   3.817  14.260  0.00  0.00    +0.000 OA
ATOM     14  C   UNL     1       7.030   4.716  14.874  0.00  0.00    +0.000 C 
BRANCH  14  15
ATOM     15  O   UNL     1       7.885   5.596  14.293  0.00  0.00    +0.000 OA
ATOM     16  H   UNL     1       7.329   6.304  13.889  0.00  0.00    +0.000 HD
ENDBRANCH  14  15
ENDBRANCH  12  14
ENDBRANCH   1  12
TORSDOF 4
ENDMDL
MODEL 7
REMARK VINA RESULT:      -6.3      3.693      6.075
REMARK  Name = 
REMARK  4 active torsions:
REMARK  status: ('A' for Active; 'I' for Inactive)
REMARK    1  A    between atoms: C_2  and  O_3
REMARK    2  A    between atoms: C_2  and  C_4
REMARK    3  A    between atoms: C_4  and  N_5
REMARK    4  A    between atoms: C_8  and  C_9
REMARK                            x       y       z     vdW  Elec       q    Type
REMARK                         _______ _______ _______ _____ _____    ______ ____
ROOT
ATOM      1  N   UNL     1       2.552   5.074  20.410  0.00  0.00    +0.000 NA
ATOM      2  C   UNL     1       2.372   6.396  19.769  0.00  0.00    +0.000 C 
ATOM      3  C   UNL     1       2.744   6.225  18.308  0.00  0.00    +0.000 C 
ATOM      4  C   UNL     1       3.845   5.169  18.316  0.00  0.00    +0.000 C 
ATOM      5  C   UNL     1       3.570   4.356  19.586  0.00  0.00    +0.000 C 
ENDROOT
BRANCH   4   6
ATOM      6  C   UNL     1       5.250   5.739  18.261  0.00  0.00    +0.000 A 
ATOM      7  C   UNL     1       5.626   6.722  17.332  0.00  0.00    +0.000 A 
ATOM      8  C   UNL     1       6.924   7.229  17.304  0.00  0.00    +0.000 A 
ATOM      9  C   UNL     1       7.870   6.769  18.218  0.00  0.00    +0.000 A 
ATOM     10  C   UNL     1       7.515   5.807  19.157  0.00  0.00    +0.000 A 
ATOM     11  C   UNL     1       6.215   5.292  19.178  0.00  0.00    +0.000 A 
ENDBRANCH   4   6
BRANCH   1  12
ATOM     12  C   UNL     1       1.255   4.343  20.416  0.00  0.00    +0.000 C 
BRANCH  12  14
ATOM     13  O   UNL     1       1.684   2.652  22.116  0.00  0.00    +0.000 OA
ATOM     14  C   UNL     1       1.452   2.925  20.949  0.00  0.00    +0.000 C 
BRANCH  14  15
ATOM     15  O   UNL     1       1.381   1.991  19.967  0.00  0.00    +0.000 OA
ATOM     16  H   UNL     1       0.524   2.138  19.499  0.00  0.00    +0.000 HD
ENDBRANCH  14  15
ENDBRANCH  12  14
ENDBRANCH   1  12
TORSDOF 4
ENDMDL
MODEL 8
REMARK VINA RESULT:      -6.2      1.652      2.236
REMARK  Name = 
REMARK  4 active torsions:
REMARK  status: ('A' for Active; 'I' for Inactive)
REMARK    1  A    between atoms: C_2  and  O_3
REMARK    2  A    between atoms: C_2  and  C_4
REMARK    3  A    between atoms: C_4  and  N_5
REMARK    4  A    between atoms: C_8  and  C_9
REMARK                            x       y       z     vdW  Elec       q    Type
REMARK                         _______ _______ _______ _____ _____    ______ ____
ROOT
ATOM      1  N   UNL     1       5.490   4.968  17.641  0.00  0.00    +0.000 NA
ATOM      2  C   UNL     1       4.908   3.770  16.997  0.00  0.00    +0.000 C 
ATOM      3  C   UNL     1       3.439   4.074  16.760  0.00  0.00    +0.000 C 
ATOM      4  C   UNL     1       3.044   4.975  17.926  0.00  0.00    +0.000 C 
ATOM      5  C   UNL     1       4.358   5.651  18.334  0.00  0.00    +0.000 C 
ENDROOT
BRANCH   4   6
ATOM      6  C   UNL     1       2.363   4.245  19.070  0.00  0.00    +0.000 A 
ATOM      7  C   UNL     1       1.340   3.308  18.859  0.00  0.00    +0.000 A 
ATOM      8  C   UNL     1       0.733   2.651  19.929  0.00  0.00    +0.000 A 
ATOM      9  C   UNL     1       1.150   2.912  21.232  0.00  0.00    +0.000 A 
ATOM     10  C   UNL     1       2.173   3.826  21.463  0.00  0.00    +0.000 A 
ATOM     11  C   UNL     1       2.775   4.491  20.389  0.00  0.00    +0.000 A 
ENDBRANCH   4   6
BRANCH   1  12
ATOM     12  C   UNL     1       6.090   5.849  16.601  0.00  0.00    +0.000 C 
BRANCH  12  14
ATOM     13  O   UNL     1       7.545   5.195  14.760  0.00  0.00    +0.000 OA
ATOM     14  C   UNL     1       7.289   5.159  15.953  0.00  0.00    +0.000 C 
BRANCH  14  15
ATOM     15  O   UNL     1       8.027   4.459  16.851  0.00  0.00    +0.000 OA
ATOM     16  H   UNL     1       8.708   5.082  17.202  0.00  0.00    +0.000 HD
ENDBRANCH  14  15
ENDBRANCH  12  14
ENDBRANCH   1  12
TORSDOF 4
ENDMDL
MODEL 9
REMARK VINA RESULT:      -6.2      2.273      2.611
REMARK  Name = 
REMARK  4 active torsions:
REMARK  status: ('A' for Active; 'I' for Inactive)
REMARK    1  A    between atoms: C_2  and  O_3
REMARK    2  A    between atoms: C_2  and  C_4
REMARK    3  A    between atoms: C_4  and  N_5
REMARK    4  A    between atoms: C_8  and  C_9
REMARK                            x       y       z     vdW  Elec       q    Type
REMARK                         _______ _______ _______ _____ _____    ______ ____
ROOT
ATOM      1  N   UNL     1       5.678   4.319  17.002  0.00  0.00    +0.000 NA
ATOM      2  C   UNL     1       4.560   5.219  16.645  0.00  0.00    +0.000 C 
ATOM      3  C   UNL     1       4.321   6.114  17.848  0.00  0.00    +0.000 C 
ATOM      4  C   UNL     1       4.663   5.238  19.049  0.00  0.00    +0.000 C 
ATOM      5  C   UNL     1       5.664   4.219  18.492  0.00  0.00    +0.000 C 
ENDROOT
BRANCH   4   6
ATOM      6  C   UNL     1       3.457   4.596  19.710  0.00  0.00    +0.000 A 
ATOM      7  C   UNL     1       2.302   5.323  20.032  0.00  0.00    +0.000 A 
ATOM      8  C   UNL     1       1.207   4.706  20.638  0.00  0.00    +0.000 A 
ATOM      9  C   UNL     1       1.246   3.343  20.921  0.00  0.00    +0.000 A 
ATOM     10  C   UNL     1       2.375   2.600  20.595  0.00  0.00    +0.000 A 
ATOM     11  C   UNL     1       3.476   3.221  19.996  0.00  0.00    +0.000 A 
ENDBRANCH   4   6
BRANCH   1  12
ATOM     12  C   UNL     1       6.960   4.902  16.517  0.00  0.00    +0.000 C 
BRANCH  12  14
ATOM     13  O   UNL     1       6.545   3.816  14.376  0.00  0.00    +0.000 OA
ATOM     14  C   UNL     1       7.089   4.709  15.007  0.00  0.00    +0.000 C 
BRANCH  14  15
ATOM     15  O   UNL     1       7.917   5.623  14.440  0.00  0.00    +0.000 OA
ATOM     16  H   UNL     1       8.829   5.250  14.498  0.00  0.00    +0.000 HD
ENDBRANCH  14  15
ENDBRANCH  12  14
ENDBRANCH   1  12
TORSDOF 4
ENDMDL
