MODEL 1
REMARK VINA RESULT:      -7.4      0.000      0.000
REMARK  Name = 
REMARK  4 active torsions:
REMARK  status: ('A' for Active; 'I' for Inactive)
REMARK    1  A    between atoms: C_1  and  C_2
REMARK    2  A    between atoms: C_7  and  C_8
REMARK    3  A    between atoms: C_13  and  N_14
REMARK    4  A    between atoms: N_14  and  C_15
REMARK                            x       y       z     vdW  Elec       q    Type
REMARK                         _______ _______ _______ _____ _____    ______ ____
ROOT
ATOM      1  C   UNL     1       2.179   7.360  19.783  0.00  0.00    +0.000 A 
ATOM      2  N   UNL     1       1.553   7.888  20.881  0.00  0.00    +0.000 NA
ATOM      3  C   UNL     1       0.904   8.921  20.382  0.00  0.00    +0.000 A 
ATOM      4  C   UNL     1       0.059   9.893  20.977  0.00  0.00    +0.000 A 
ATOM      5  C   UNL     1      -0.482  10.857  20.206  0.00  0.00    +0.000 A 
ATOM      6  C   UNL     1      -0.250  10.926  18.758  0.00  0.00    +0.000 A 
ATOM      7  C   UNL     1       0.556   9.995  18.218  0.00  0.00    +0.000 A 
ATOM      8  N   UNL     1       1.130   9.008  19.012  0.00  0.00    +0.000 N 
ATOM      9  N   UNL     1       1.960   8.000  18.638  0.00  0.00    +0.000 NA
ENDROOT
BRANCH   1  16
ATOM     10  C   UNL     1       3.048   2.036  17.604  0.00  0.00    +0.000 C 
ATOM     11  C   UNL     1       2.079   2.400  18.698  0.00  0.00    +0.000 C 
ATOM     12  O   UNL     1       1.626   1.515  19.416  0.00  0.00    +0.000 OA
ATOM     13  N   UNL     1       1.718   3.734  18.854  0.00  0.00    +0.000 N 
ATOM     14  C   UNL     1       2.094   4.785  17.914  0.00  0.00    +0.000 C 
ATOM     15  C   UNL     1       3.302   5.531  18.466  0.00  0.00    +0.000 C 
ATOM     16  C   UNL     1       3.020   6.122  19.859  0.00  0.00    +0.000 C 
ATOM     17  C   UNL     1       2.430   5.065  20.808  0.00  0.00    +0.000 C 
ATOM     18  C   UNL     1       1.307   4.256  20.168  0.00  0.00    +0.000 C 
ENDBRANCH   1  16
BRANCH   6  19
ATOM     19  N   UNL     1      -0.837  11.958  18.046  0.00  0.00    +0.000 N 
ATOM     20  H   UNL     1      -0.791  12.845  18.538  0.00  0.00    +0.000 HD
BRANCH  19  21
ATOM     21  C   UNL     1      -2.092  11.798  17.349  0.00  0.00    +0.000 C 
ATOM     22  C   UNL     1      -2.298  10.354  16.832  0.00  0.00    +0.000 C 
ATOM     23  C   UNL     1      -3.683  10.347  17.498  0.00  0.00    +0.000 C 
ATOM     24  C   UNL     1      -3.259  11.567  18.331  0.00  0.00    +0.000 C 
ENDBRANCH  19  21
ENDBRANCH   6  19
TORSDOF 3
ENDMDL
MODEL 2
REMARK VINA RESULT:      -7.4      2.294      3.270
REMARK  Name = 
REMARK  4 active torsions:
REMARK  status: ('A' for Active; 'I' for Inactive)
REMARK    1  A    between atoms: C_1  and  C_2
REMARK    2  A    between atoms: C_7  and  C_8
REMARK    3  A    between atoms: C_13  and  N_14
REMARK    4  A    between atoms: N_14  and  C_15
REMARK                            x       y       z     vdW  Elec       q    Type
REMARK                         _______ _______ _______ _____ _____    ______ ____
ROOT
ATOM      1  C   UNL     1       2.404   7.335  18.453  0.00  0.00    +0.000 A 
ATOM      2  N   UNL     1       2.080   8.466  17.753  0.00  0.00    +0.000 NA
ATOM      3  C   UNL     1       1.516   9.228  18.667  0.00  0.00    +0.000 A 
ATOM      4  C   UNL     1       0.958  10.531  18.609  0.00  0.00    +0.000 A 
ATOM      5  C   UNL     1       0.439  11.077  19.727  0.00  0.00    +0.000 A 
ATOM      6  C   UNL     1       0.452  10.380  21.019  0.00  0.00    +0.000 A 
ATOM      7  C   UNL     1       0.984   9.145  21.047  0.00  0.00    +0.000 A 
ATOM      8  N   UNL     1       1.505   8.571  19.893  0.00  0.00    +0.000 N 
ATOM      9  N   UNL     1       2.074   7.347  19.742  0.00  0.00    +0.000 NA
ENDROOT
BRANCH   1  16
ATOM     10  C   UNL     1       3.272   1.585  18.636  0.00  0.00    +0.000 C 
ATOM     11  C   UNL     1       4.008   2.619  19.444  0.00  0.00    +0.000 C 
ATOM     12  O   UNL     1       5.071   2.318  19.979  0.00  0.00    +0.000 OA
ATOM     13  N   UNL     1       3.453   3.888  19.570  0.00  0.00    +0.000 N 
ATOM     14  C   UNL     1       2.115   4.231  19.102  0.00  0.00    +0.000 C 
ATOM     15  C   UNL     1       2.227   4.923  17.749  0.00  0.00    +0.000 C 
ATOM     16  C   UNL     1       3.117   6.177  17.822  0.00  0.00    +0.000 C 
ATOM     17  C   UNL     1       4.463   5.872  18.502  0.00  0.00    +0.000 C 
ATOM     18  C   UNL     1       4.308   5.067  19.787  0.00  0.00    +0.000 C 
ENDBRANCH   1  16
BRANCH   6  19
ATOM     19  N   UNL     1      -0.114  11.011  22.113  0.00  0.00    +0.000 N 
ATOM     20  H   UNL     1      -0.261  10.378  22.894  0.00  0.00    +0.000 HD
BRANCH  19  21
ATOM     21  C   UNL     1      -1.196  11.959  21.982  0.00  0.00    +0.000 C 
ATOM     22  C   UNL     1      -2.219  11.847  23.137  0.00  0.00    +0.000 C 
ATOM     23  C   UNL     1      -2.096  13.364  23.352  0.00  0.00    +0.000 C 
ATOM     24  C   UNL     1      -0.801  13.348  22.525  0.00  0.00    +0.000 C 
ENDBRANCH  19  21
ENDBRANCH   6  19
TORSDOF 3
ENDMDL
MODEL 3
REMARK VINA RESULT:      -7.4      1.806      2.926
REMARK  Name = 
REMARK  4 active torsions:
REMARK  status: ('A' for Active; 'I' for Inactive)
REMARK    1  A    between atoms: C_1  and  C_2
REMARK    2  A    between atoms: C_7  and  C_8
REMARK    3  A    between atoms: C_13  and  N_14
REMARK    4  A    between atoms: N_14  and  C_15
REMARK                            x       y       z     vdW  Elec       q    Type
REMARK                         _______ _______ _______ _____ _____    ______ ____
ROOT
ATOM      1  C   UNL     1       2.135   7.437  19.743  0.00  0.00    +0.000 A 
ATOM      2  N   UNL     1       2.066   8.246  18.640  0.00  0.00    +0.000 NA
ATOM      3  C   UNL     1       1.297   9.235  19.048  0.00  0.00    +0.000 A 
ATOM      4  C   UNL     1       0.827  10.407  18.400  0.00  0.00    +0.000 A 
ATOM      5  C   UNL     1       0.037  11.263  19.077  0.00  0.00    +0.000 A 
ATOM      6  C   UNL     1      -0.340  11.043  20.477  0.00  0.00    +0.000 A 
ATOM      7  C   UNL     1       0.114   9.923  21.069  0.00  0.00    +0.000 A 
ATOM      8  N   UNL     1       0.916   9.028  20.370  0.00  0.00    +0.000 N 
ATOM      9  N   UNL     1       1.458   7.861  20.806  0.00  0.00    +0.000 NA
ENDROOT
BRANCH   1  16
ATOM     10  C   UNL     1       2.796   2.130  17.453  0.00  0.00    +0.000 C 
ATOM     11  C   UNL     1       1.883   2.497  18.592  0.00  0.00    +0.000 C 
ATOM     12  O   UNL     1       1.442   1.611  19.317  0.00  0.00    +0.000 OA
ATOM     13  N   UNL     1       1.558   3.836  18.782  0.00  0.00    +0.000 N 
ATOM     14  C   UNL     1       1.916   4.893  17.843  0.00  0.00    +0.000 C 
ATOM     15  C   UNL     1       3.162   5.605  18.353  0.00  0.00    +0.000 C 
ATOM     16  C   UNL     1       2.952   6.180  19.765  0.00  0.00    +0.000 C 
ATOM     17  C   UNL     1       2.380   5.121  20.723  0.00  0.00    +0.000 C 
ATOM     18  C   UNL     1       1.215   4.346  20.120  0.00  0.00    +0.000 C 
ENDBRANCH   1  16
BRANCH   6  19
ATOM     19  N   UNL     1      -1.166  11.969  21.091  0.00  0.00    +0.000 N 
ATOM     20  H   UNL     1      -1.155  12.870  20.623  0.00  0.00    +0.000 HD
BRANCH  19  21
ATOM     21  C   UNL     1      -1.228  12.114  22.527  0.00  0.00    +0.000 C 
ATOM     22  C   UNL     1      -0.977  13.571  22.983  0.00  0.00    +0.000 C 
ATOM     23  C   UNL     1      -2.262  13.496  23.823  0.00  0.00    +0.000 C 
ATOM     24  C   UNL     1      -2.684  12.256  23.018  0.00  0.00    +0.000 C 
ENDBRANCH  19  21
ENDBRANCH   6  19
TORSDOF 3
ENDMDL
MODEL 4
REMARK VINA RESULT:      -7.2      3.874      8.354
REMARK  Name = 
REMARK  4 active torsions:
REMARK  status: ('A' for Active; 'I' for Inactive)
REMARK    1  A    between atoms: C_1  and  C_2
REMARK    2  A    between atoms: C_7  and  C_8
REMARK    3  A    between atoms: C_13  and  N_14
REMARK    4  A    between atoms: N_14  and  C_15
REMARK                            x       y       z     vdW  Elec       q    Type
REMARK                         _______ _______ _______ _____ _____    ______ ____
ROOT
ATOM      1  C   UNL     1       0.318  10.625  19.613  0.00  0.00    +0.000 A 
ATOM      2  N   UNL     1       0.889  10.279  18.417  0.00  0.00    +0.000 NA
ATOM      3  C   UNL     1       1.459   9.123  18.685  0.00  0.00    +0.000 A 
ATOM      4  C   UNL     1       2.215   8.225  17.888  0.00  0.00    +0.000 A 
ATOM      5  C   UNL     1       2.685   7.088  18.439  0.00  0.00    +0.000 A 
ATOM      6  C   UNL     1       2.421   6.727  19.836  0.00  0.00    +0.000 A 
ATOM      7  C   UNL     1       1.705   7.595  20.572  0.00  0.00    +0.000 A 
ATOM      8  N   UNL     1       1.232   8.777  20.013  0.00  0.00    +0.000 N 
ATOM      9  N   UNL     1       0.501   9.757  20.604  0.00  0.00    +0.000 NA
ENDROOT
BRANCH   1  16
ATOM     10  C   UNL     1       0.183  16.379  18.770  0.00  0.00    +0.000 C 
ATOM     11  C   UNL     1       0.796  15.670  19.947  0.00  0.00    +0.000 C 
ATOM     12  O   UNL     1       1.040  16.303  20.969  0.00  0.00    +0.000 OA
ATOM     13  N   UNL     1       1.078  14.312  19.835  0.00  0.00    +0.000 N 
ATOM     14  C   UNL     1       0.968  13.567  18.587  0.00  0.00    +0.000 C 
ATOM     15  C   UNL     1      -0.358  12.817  18.574  0.00  0.00    +0.000 C 
ATOM     16  C   UNL     1      -0.491  11.875  19.784  0.00  0.00    +0.000 C 
ATOM     17  C   UNL     1      -0.178  12.605  21.101  0.00  0.00    +0.000 C 
ATOM     18  C   UNL     1       1.092  13.444  21.025  0.00  0.00    +0.000 C 
ENDBRANCH   1  16
BRANCH   6  19
ATOM     19  N   UNL     1       2.953   5.545  20.322  0.00  0.00    +0.000 N 
ATOM     20  H   UNL     1       3.555   5.083  19.647  0.00  0.00    +0.000 HD
BRANCH  19  21
ATOM     21  C   UNL     1       2.164   4.595  21.071  0.00  0.00    +0.000 C 
ATOM     22  C   UNL     1       0.930   4.101  20.281  0.00  0.00    +0.000 C 
ATOM     23  C   UNL     1       1.349   2.655  20.591  0.00  0.00    +0.000 C 
ATOM     24  C   UNL     1       2.747   3.170  20.970  0.00  0.00    +0.000 C 
ENDBRANCH  19  21
ENDBRANCH   6  19
TORSDOF 3
ENDMDL
MODEL 5
REMARK VINA RESULT:      -7.2      3.415      8.096
REMARK  Name = 
REMARK  4 active torsions:
REMARK  status: ('A' for Active; 'I' for Inactive)
REMARK    1  A    between atoms: C_1  and  C_2
REMARK    2  A    between atoms: C_7  and  C_8
REMARK    3  A    between atoms: C_13  and  N_14
REMARK    4  A    between atoms: N_14  and  C_15
REMARK                            x       y       z     vdW  Elec       q    Type
REMARK                         _______ _______ _______ _____ _____    ______ ____
ROOT
ATOM      1  C   UNL     1       0.682  11.024  19.390  0.00  0.00    +0.000 A 
ATOM      2  N   UNL     1       1.200  10.545  18.216  0.00  0.00    +0.000 NA
ATOM      3  C   UNL     1       1.611   9.338  18.546  0.00  0.00    +0.000 A 
ATOM      4  C   UNL     1       2.240   8.308  17.800  0.00  0.00    +0.000 A 
ATOM      5  C   UNL     1       2.554   7.148  18.410  0.00  0.00    +0.000 A 
ATOM      6  C   UNL     1       2.246   6.897  19.823  0.00  0.00    +0.000 A 
ATOM      7  C   UNL     1       1.653   7.889  20.510  0.00  0.00    +0.000 A 
ATOM      8  N   UNL     1       1.342   9.094  19.889  0.00  0.00    +0.000 N 
ATOM      9  N   UNL     1       0.748  10.192  20.425  0.00  0.00    +0.000 NA
ENDROOT
BRANCH   1  16
ATOM     10  C   UNL     1      -3.449  14.176  22.008  0.00  0.00    +0.000 C 
ATOM     11  C   UNL     1      -3.632  13.309  20.791  0.00  0.00    +0.000 C 
ATOM     12  O   UNL     1      -4.625  13.464  20.088  0.00  0.00    +0.000 OA
ATOM     13  N   UNL     1      -2.669  12.346  20.506  0.00  0.00    +0.000 N 
ATOM     14  C   UNL     1      -1.573  12.012  21.408  0.00  0.00    +0.000 C 
ATOM     15  C   UNL     1      -0.315  12.736  20.945  0.00  0.00    +0.000 C 
ATOM     16  C   UNL     1       0.047  12.378  19.492  0.00  0.00    +0.000 C 
ATOM     17  C   UNL     1      -1.165  12.533  18.558  0.00  0.00    +0.000 C 
ATOM     18  C   UNL     1      -2.433  11.902  19.122  0.00  0.00    +0.000 C 
ENDBRANCH   1  16
BRANCH   6  19
ATOM     19  N   UNL     1       2.616   5.681  20.371  0.00  0.00    +0.000 N 
ATOM     20  H   UNL     1       3.299   5.190  19.803  0.00  0.00    +0.000 HD
BRANCH  19  21
ATOM     21  C   UNL     1       1.655   4.774  20.954  0.00  0.00    +0.000 C 
ATOM     22  C   UNL     1       0.997   3.855  19.898  0.00  0.00    +0.000 C 
ATOM     23  C   UNL     1       1.346   2.645  20.780  0.00  0.00    +0.000 C 
ATOM     24  C   UNL     1       2.342   3.527  21.549  0.00  0.00    +0.000 C 
ENDBRANCH  19  21
ENDBRANCH   6  19
TORSDOF 3
ENDMDL
MODEL 6
REMARK VINA RESULT:      -7.1      1.427      2.169
REMARK  Name = 
REMARK  4 active torsions:
REMARK  status: ('A' for Active; 'I' for Inactive)
REMARK    1  A    between atoms: C_1  and  C_2
REMARK    2  A    between atoms: C_7  and  C_8
REMARK    3  A    between atoms: C_13  and  N_14
REMARK    4  A    between atoms: N_14  and  C_15
REMARK                            x       y       z     vdW  Elec       q    Type
REMARK                         _______ _______ _______ _____ _____    ______ ____
ROOT
ATOM      1  C   UNL     1       2.179   7.426  19.728  0.00  0.00    +0.000 A 
ATOM      2  N   UNL     1       1.455   7.851  20.810  0.00  0.00    +0.000 NA
ATOM      3  C   UNL     1       0.872   8.945  20.364  0.00  0.00    +0.000 A 
ATOM      4  C   UNL     1      -0.014   9.870  20.974  0.00  0.00    +0.000 A 
ATOM      5  C   UNL     1      -0.464  10.922  20.261  0.00  0.00    +0.000 A 
ATOM      6  C   UNL     1      -0.090  11.136  18.859  0.00  0.00    +0.000 A 
ATOM      7  C   UNL     1       0.753  10.247  18.303  0.00  0.00    +0.000 A 
ATOM      8  N   UNL     1       1.233   9.170  19.039  0.00  0.00    +0.000 N 
ATOM      9  N   UNL     1       2.083   8.187  18.642  0.00  0.00    +0.000 NA
ENDROOT
BRANCH   1  16
ATOM     10  C   UNL     1       2.819   2.109  17.455  0.00  0.00    +0.000 C 
ATOM     11  C   UNL     1       1.910   2.483  18.594  0.00  0.00    +0.000 C 
ATOM     12  O   UNL     1       1.468   1.601  19.323  0.00  0.00    +0.000 OA
ATOM     13  N   UNL     1       1.589   3.824  18.781  0.00  0.00    +0.000 N 
ATOM     14  C   UNL     1       1.948   4.876  17.837  0.00  0.00    +0.000 C 
ATOM     15  C   UNL     1       3.197   5.586  18.342  0.00  0.00    +0.000 C 
ATOM     16  C   UNL     1       2.992   6.167  19.753  0.00  0.00    +0.000 C 
ATOM     17  C   UNL     1       2.419   5.113  20.715  0.00  0.00    +0.000 C 
ATOM     18  C   UNL     1       1.250   4.339  20.117  0.00  0.00    +0.000 C 
ENDBRANCH   1  16
BRANCH   6  19
ATOM     19  N   UNL     1      -0.590  12.250  18.207  0.00  0.00    +0.000 N 
ATOM     20  H   UNL     1      -0.969  12.027  17.291  0.00  0.00    +0.000 HD
BRANCH  19  21
ATOM     21  C   UNL     1       0.104  13.517  18.203  0.00  0.00    +0.000 C 
ATOM     22  C   UNL     1      -0.409  14.473  19.305  0.00  0.00    +0.000 C 
ATOM     23  C   UNL     1       1.045  14.684  19.755  0.00  0.00    +0.000 C 
ATOM     24  C   UNL     1       1.445  13.430  18.962  0.00  0.00    +0.000 C 
ENDBRANCH  19  21
ENDBRANCH   6  19
TORSDOF 3
ENDMDL
MODEL 7
REMARK VINA RESULT:      -7.1      1.334      1.617
REMARK  Name = 
REMARK  4 active torsions:
REMARK  status: ('A' for Active; 'I' for Inactive)
REMARK    1  A    between atoms: C_1  and  C_2
REMARK    2  A    between atoms: C_7  and  C_8
REMARK    3  A    between atoms: C_13  and  N_14
REMARK    4  A    between atoms: N_14  and  C_15
REMARK                            x       y       z     vdW  Elec       q    Type
REMARK                         _______ _______ _______ _____ _____    ______ ____
ROOT
ATOM      1  C   UNL     1       2.855   7.040  18.451  0.00  0.00    +0.000 A 
ATOM      2  N   UNL     1       2.442   7.151  19.752  0.00  0.00    +0.000 NA
ATOM      3  C   UNL     1       1.658   8.209  19.723  0.00  0.00    +0.000 A 
ATOM      4  C   UNL     1       0.908   8.868  20.732  0.00  0.00    +0.000 A 
ATOM      5  C   UNL     1       0.177   9.953  20.408  0.00  0.00    +0.000 A 
ATOM      6  C   UNL     1       0.106  10.470  19.037  0.00  0.00    +0.000 A 
ATOM      7  C   UNL     1       0.828   9.831  18.099  0.00  0.00    +0.000 A 
ATOM      8  N   UNL     1       1.596   8.721  18.431  0.00  0.00    +0.000 N 
ATOM      9  N   UNL     1       2.379   7.962  17.620  0.00  0.00    +0.000 NA
ENDROOT
BRANCH   1  16
ATOM     10  C   UNL     1       3.669   1.280  18.358  0.00  0.00    +0.000 C 
ATOM     11  C   UNL     1       4.081   2.216  19.463  0.00  0.00    +0.000 C 
ATOM     12  O   UNL     1       4.906   1.842  20.290  0.00  0.00    +0.000 OA
ATOM     13  N   UNL     1       3.503   3.480  19.516  0.00  0.00    +0.000 N 
ATOM     14  C   UNL     1       2.397   3.897  18.663  0.00  0.00    +0.000 C 
ATOM     15  C   UNL     1       2.949   4.710  17.500  0.00  0.00    +0.000 C 
ATOM     16  C   UNL     1       3.750   5.931  17.987  0.00  0.00    +0.000 C 
ATOM     17  C   UNL     1       4.793   5.532  19.045  0.00  0.00    +0.000 C 
ATOM     18  C   UNL     1       4.224   4.614  20.120  0.00  0.00    +0.000 C 
ENDBRANCH   1  16
BRANCH   6  19
ATOM     19  N   UNL     1      -0.660  11.598  18.797  0.00  0.00    +0.000 N 
ATOM     20  H   UNL     1      -0.884  12.104  19.649  0.00  0.00    +0.000 HD
BRANCH  19  21
ATOM     21  C   UNL     1      -1.769  11.594  17.871  0.00  0.00    +0.000 C 
ATOM     22  C   UNL     1      -2.202  10.162  17.478  0.00  0.00    +0.000 C 
ATOM     23  C   UNL     1      -3.650  10.537  17.832  0.00  0.00    +0.000 C 
ATOM     24  C   UNL     1      -3.117  11.756  18.603  0.00  0.00    +0.000 C 
ENDBRANCH  19  21
ENDBRANCH   6  19
TORSDOF 3
ENDMDL
MODEL 8
REMARK VINA RESULT:      -7.1      2.153      2.872
REMARK  Name = 
REMARK  4 active torsions:
REMARK  status: ('A' for Active; 'I' for Inactive)
REMARK    1  A    between atoms: C_1  and  C_2
REMARK    2  A    between atoms: C_7  and  C_8
REMARK    3  A    between atoms: C_13  and  N_14
REMARK    4  A    between atoms: N_14  and  C_15
REMARK                            x       y       z     vdW  Elec       q    Type
REMARK                         _______ _______ _______ _____ _____    ______ ____
ROOT
ATOM      1  C   UNL     1       2.419   7.383  18.498  0.00  0.00    +0.000 A 
ATOM      2  N   UNL     1       2.066   7.383  19.821  0.00  0.00    +0.000 NA
ATOM      3  C   UNL     1       1.540   8.580  19.986  0.00  0.00    +0.000 A 
ATOM      4  C   UNL     1       0.977   9.226  21.117  0.00  0.00    +0.000 A 
ATOM      5  C   UNL     1       0.502  10.481  20.991  0.00  0.00    +0.000 A 
ATOM      6  C   UNL     1       0.522  11.203  19.714  0.00  0.00    +0.000 A 
ATOM      7  C   UNL     1       1.064  10.571  18.657  0.00  0.00    +0.000 A 
ATOM      8  N   UNL     1       1.570   9.282  18.785  0.00  0.00    +0.000 N 
ATOM      9  N   UNL     1       2.146   8.502  17.834  0.00  0.00    +0.000 NA
ENDROOT
BRANCH   1  16
ATOM     10  C   UNL     1       3.116   1.612  18.742  0.00  0.00    +0.000 C 
ATOM     11  C   UNL     1       3.957   2.638  19.454  0.00  0.00    +0.000 C 
ATOM     12  O   UNL     1       5.055   2.312  19.895  0.00  0.00    +0.000 OA
ATOM     13  N   UNL     1       3.457   3.928  19.598  0.00  0.00    +0.000 N 
ATOM     14  C   UNL     1       2.093   4.306  19.247  0.00  0.00    +0.000 C 
ATOM     15  C   UNL     1       2.101   4.964  17.873  0.00  0.00    +0.000 C 
ATOM     16  C   UNL     1       3.033   6.188  17.832  0.00  0.00    +0.000 C 
ATOM     17  C   UNL     1       4.426   5.852  18.393  0.00  0.00    +0.000 C 
ATOM     18  C   UNL     1       4.365   5.081  19.706  0.00  0.00    +0.000 C 
ENDBRANCH   1  16
BRANCH   6  19
ATOM     19  N   UNL     1       0.025  12.494  19.679  0.00  0.00    +0.000 N 
ATOM     20  H   UNL     1      -0.983  12.526  19.806  0.00  0.00    +0.000 HD
BRANCH  19  21
ATOM     21  C   UNL     1       0.472  13.466  18.709  0.00  0.00    +0.000 C 
ATOM     22  C   UNL     1      -0.223  14.837  18.887  0.00  0.00    +0.000 C 
ATOM     23  C   UNL     1       1.162  15.504  18.879  0.00  0.00    +0.000 C 
ATOM     24  C   UNL     1       1.796  14.129  19.142  0.00  0.00    +0.000 C 
ENDBRANCH  19  21
ENDBRANCH   6  19
TORSDOF 3
ENDMDL
MODEL 9
REMARK VINA RESULT:      -7.0      3.343      7.866
REMARK  Name = 
REMARK  4 active torsions:
REMARK  status: ('A' for Active; 'I' for Inactive)
REMARK    1  A    between atoms: C_1  and  C_2
REMARK    2  A    between atoms: C_7  and  C_8
REMARK    3  A    between atoms: C_13  and  N_14
REMARK    4  A    between atoms: N_14  and  C_15
REMARK                            x       y       z     vdW  Elec       q    Type
REMARK                         _______ _______ _______ _____ _____    ______ ____
ROOT
ATOM      1  C   UNL     1       1.106   9.895  18.750  0.00  0.00    +0.000 A 
ATOM      2  N   UNL     1       1.896   9.597  17.672  0.00  0.00    +0.000 NA
ATOM      3  C   UNL     1       2.434   8.443  18.010  0.00  0.00    +0.000 A 
ATOM      4  C   UNL     1       3.346   7.585  17.343  0.00  0.00    +0.000 A 
ATOM      5  C   UNL     1       3.732   6.440  17.941  0.00  0.00    +0.000 A 
ATOM      6  C   UNL     1       3.223   6.031  19.254  0.00  0.00    +0.000 A 
ATOM      7  C   UNL     1       2.362   6.862  19.868  0.00  0.00    +0.000 A 
ATOM      8  N   UNL     1       1.973   8.053  19.263  0.00  0.00    +0.000 N 
ATOM      9  N   UNL     1       1.122   9.001  19.734  0.00  0.00    +0.000 NA
ENDROOT
BRANCH   1  16
ATOM     10  C   UNL     1       0.421  15.142  21.169  0.00  0.00    +0.000 C 
ATOM     11  C   UNL     1      -0.044  13.831  21.746  0.00  0.00    +0.000 C 
ATOM     12  O   UNL     1      -0.885  13.834  22.639  0.00  0.00    +0.000 OA
ATOM     13  N   UNL     1       0.504  12.652  21.252  0.00  0.00    +0.000 N 
ATOM     14  C   UNL     1       1.626  12.614  20.322  0.00  0.00    +0.000 C 
ATOM     15  C   UNL     1       1.091  12.409  18.910  0.00  0.00    +0.000 C 
ATOM     16  C   UNL     1       0.249  11.124  18.801  0.00  0.00    +0.000 C 
ATOM     17  C   UNL     1      -0.816  11.056  19.909  0.00  0.00    +0.000 C 
ATOM     18  C   UNL     1      -0.259  11.393  21.287  0.00  0.00    +0.000 C 
ENDBRANCH   1  16
BRANCH   6  19
ATOM     19  N   UNL     1       3.683   4.844  19.799  0.00  0.00    +0.000 N 
ATOM     20  H   UNL     1       4.663   4.677  19.593  0.00  0.00    +0.000 HD
BRANCH  19  21
ATOM     21  C   UNL     1       2.911   3.624  19.752  0.00  0.00    +0.000 C 
ATOM     22  C   UNL     1       2.012   3.448  20.998  0.00  0.00    +0.000 C 
ATOM     23  C   UNL     1       0.819   3.193  20.063  0.00  0.00    +0.000 C 
ATOM     24  C   UNL     1       1.632   3.796  18.906  0.00  0.00    +0.000 C 
ENDBRANCH  19  21
ENDBRANCH   6  19
TORSDOF 3
ENDMDL
