MODEL 1
REMARK VINA RESULT:      -7.0      0.000      0.000
REMARK  Name = 
REMARK  11 active torsions:
REMARK  status: ('A' for Active; 'I' for Inactive)
REMARK    1  A    between atoms: C_1  and  C_2
REMARK    2  A    between atoms: C_2  and  N_3
REMARK    3  A    between atoms: N_3  and  C_4
REMARK    4  A    between atoms: C_4  and  C_5
REMARK    5  A    between atoms: C_5  and  C_6
REMARK    6  A    between atoms: C_10  and  C_11
REMARK    7  A    between atoms: C_16  and  C_18
REMARK    8  A    between atoms: C_18  and  N_19
REMARK    9  A    between atoms: C_18  and  C_20
REMARK   10  A    between atoms: C_20  and  O_21
REMARK   11  A    between atoms: O_21  and  C_22
REMARK                            x       y       z     vdW  Elec       q    Type
REMARK                         _______ _______ _______ _____ _____    ______ ____
ROOT
ATOM      1  C   UNL     1       5.949   7.016  17.081  0.00  0.00    +0.000 C 
ENDROOT
BRANCH   1   2
ATOM      2  N   UNL     1       6.720   5.787  17.349  0.00  0.00    +0.000 N 
ATOM      3  C   UNL     1       7.163   4.945  16.315  0.00  0.00    +0.000 C 
ATOM      4  O   UNL     1       7.916   3.993  16.554  0.00  0.00    +0.000 OA
BRANCH   2   6
ATOM      5  C   UNL     1       8.037   6.012  19.469  0.00  0.00    +0.000 C 
ATOM      6  C   UNL     1       6.920   5.301  18.719  0.00  0.00    +0.000 C 
ENDBRANCH   2   6
BRANCH   3   7
ATOM      7  C   UNL     1       6.759   5.278  14.848  0.00  0.00    +0.000 C 
BRANCH   7   8
ATOM      8  N   UNL     1       7.985   5.532  14.048  0.00  0.00    +0.000 NA
ATOM      9  H   UNL     1       7.745   6.187  13.302  0.00  0.00    +0.000 HD
ATOM     10  H   UNL     1       8.272   4.672  13.584  0.00  0.00    +0.000 HD
ENDBRANCH   7   8
BRANCH   7  11
ATOM     11  C   UNL     1       5.987   4.097  14.236  0.00  0.00    +0.000 C 
BRANCH  11  12
ATOM     12  O   UNL     1       6.573   3.722  12.982  0.00  0.00    +0.000 OA
ATOM     13  C   UNL     1       5.605   3.137  12.118  0.00  0.00    +0.000 C 
ENDBRANCH  11  12
ENDBRANCH   7  11
ENDBRANCH   3   7
ENDBRANCH   1   2
BRANCH   1  14
ATOM     14  C   UNL     1       4.457   6.903  16.738  0.00  0.00    +0.000 C 
BRANCH  14  15
ATOM     15  C   UNL     1       3.785   5.865  17.586  0.00  0.00    +0.000 A 
ATOM     16  N   UNL     1       3.396   5.995  18.838  0.00  0.00    +0.000 NA
ATOM     17  C   UNL     1       2.872   4.777  19.200  0.00  0.00    +0.000 A 
ATOM     18  C   UNL     1       2.333   4.355  20.426  0.00  0.00    +0.000 A 
ATOM     19  C   UNL     1       1.872   3.034  20.553  0.00  0.00    +0.000 A 
ATOM     20  C   UNL     1       1.283   2.557  21.852  0.00  0.00    +0.000 C 
ATOM     21  C   UNL     1       1.951   2.160  19.459  0.00  0.00    +0.000 A 
ATOM     22  C   UNL     1       2.480   2.562  18.228  0.00  0.00    +0.000 A 
ATOM     23  C   UNL     1       2.932   3.879  18.142  0.00  0.00    +0.000 A 
ATOM     24  N   UNL     1       3.499   4.602  17.119  0.00  0.00    +0.000 N 
ATOM     25  H   UNL     1       3.693   4.256  16.191  0.00  0.00    +0.000 HD
ENDBRANCH  14  15
ENDBRANCH   1  14
TORSDOF 8
ENDMDL
MODEL 2
REMARK VINA RESULT:      -7.0      3.089      4.918
REMARK  Name = 
REMARK  11 active torsions:
REMARK  status: ('A' for Active; 'I' for Inactive)
REMARK    1  A    between atoms: C_1  and  C_2
REMARK    2  A    between atoms: C_2  and  N_3
REMARK    3  A    between atoms: N_3  and  C_4
REMARK    4  A    between atoms: C_4  and  C_5
REMARK    5  A    between atoms: C_5  and  C_6
REMARK    6  A    between atoms: C_10  and  C_11
REMARK    7  A    between atoms: C_16  and  C_18
REMARK    8  A    between atoms: C_18  and  N_19
REMARK    9  A    between atoms: C_18  and  C_20
REMARK   10  A    between atoms: C_20  and  O_21
REMARK   11  A    between atoms: O_21  and  C_22
REMARK                            x       y       z     vdW  Elec       q    Type
REMARK                         _______ _______ _______ _____ _____    ______ ____
ROOT
ATOM      1  C   UNL     1       4.784   5.553  16.868  0.00  0.00    +0.000 C 
ENDROOT
BRANCH   1   2
ATOM      2  N   UNL     1       5.994   4.735  16.657  0.00  0.00    +0.000 N 
ATOM      3  C   UNL     1       7.172   4.944  17.394  0.00  0.00    +0.000 C 
ATOM      4  O   UNL     1       8.128   4.165  17.292  0.00  0.00    +0.000 OA
BRANCH   2   6
ATOM      5  C   UNL     1       6.465   4.392  14.219  0.00  0.00    +0.000 C 
ATOM      6  C   UNL     1       6.074   3.772  15.554  0.00  0.00    +0.000 C 
ENDBRANCH   2   6
BRANCH   3   7
ATOM      7  C   UNL     1       7.227   6.126  18.406  0.00  0.00    +0.000 C 
BRANCH   7   8
ATOM      8  N   UNL     1       8.105   5.755  19.547  0.00  0.00    +0.000 NA
ATOM      9  H   UNL     1       8.624   6.588  19.830  0.00  0.00    +0.000 HD
ATOM     10  H   UNL     1       8.804   5.083  19.232  0.00  0.00    +0.000 HD
ENDBRANCH   7   8
BRANCH   7  11
ATOM     11  C   UNL     1       7.792   7.380  17.717  0.00  0.00    +0.000 C 
BRANCH  11  12
ATOM     12  O   UNL     1       8.494   8.192  18.668  0.00  0.00    +0.000 OA
ATOM     13  C   UNL     1       8.525   9.554  18.256  0.00  0.00    +0.000 C 
ENDBRANCH  11  12
ENDBRANCH   7  11
ENDBRANCH   3   7
ENDBRANCH   1   2
BRANCH   1  14
ATOM     14  C   UNL     1       3.692   5.040  17.817  0.00  0.00    +0.000 C 
BRANCH  14  15
ATOM     15  C   UNL     1       3.000   6.175  18.510  0.00  0.00    +0.000 A 
ATOM     16  N   UNL     1       2.591   6.208  19.762  0.00  0.00    +0.000 NA
ATOM     17  C   UNL     1       1.983   7.429  19.929  0.00  0.00    +0.000 A 
ATOM     18  C   UNL     1       1.356   7.977  21.060  0.00  0.00    +0.000 A 
ATOM     19  C   UNL     1       0.785   9.258  20.973  0.00  0.00    +0.000 A 
ATOM     20  C   UNL     1       0.113   9.873  22.170  0.00  0.00    +0.000 C 
ATOM     21  C   UNL     1       0.852   9.971  19.766  0.00  0.00    +0.000 A 
ATOM     22  C   UNL     1       1.477   9.444  18.631  0.00  0.00    +0.000 A 
ATOM     23  C   UNL     1       2.027   8.168  18.754  0.00  0.00    +0.000 A 
ATOM     24  N   UNL     1       2.698   7.356  17.871  0.00  0.00    +0.000 N 
ATOM     25  H   UNL     1       2.911   7.581  16.910  0.00  0.00    +0.000 HD
ENDBRANCH  14  15
ENDBRANCH   1  14
TORSDOF 8
ENDMDL
MODEL 3
REMARK VINA RESULT:      -7.0      1.161      1.439
REMARK  Name = 
REMARK  11 active torsions:
REMARK  status: ('A' for Active; 'I' for Inactive)
REMARK    1  A    between atoms: C_1  and  C_2
REMARK    2  A    between atoms: C_2  and  N_3
REMARK    3  A    between atoms: N_3  and  C_4
REMARK    4  A    between atoms: C_4  and  C_5
REMARK    5  A    between atoms: C_5  and  C_6
REMARK    6  A    between atoms: C_10  and  C_11
REMARK    7  A    between atoms: C_16  and  C_18
REMARK    8  A    between atoms: C_18  and  N_19
REMARK    9  A    between atoms: C_18  and  C_20
REMARK   10  A    between atoms: C_20  and  O_21
REMARK   11  A    between atoms: O_21  and  C_22
REMARK                            x       y       z     vdW  Elec       q    Type
REMARK                         _______ _______ _______ _____ _____    ______ ____
ROOT
ATOM      1  C   UNL     1       5.385   6.507  16.481  0.00  0.00    +0.000 C 
ENDROOT
BRANCH   1   2
ATOM      2  N   UNL     1       6.620   5.935  17.050  0.00  0.00    +0.000 N 
ATOM      3  C   UNL     1       7.053   4.636  16.737  0.00  0.00    +0.000 C 
ATOM      4  O   UNL     1       8.155   4.227  17.122  0.00  0.00    +0.000 OA
BRANCH   2   6
ATOM      5  C   UNL     1       7.887   8.007  17.670  0.00  0.00    +0.000 C 
ATOM      6  C   UNL     1       7.369   6.640  18.096  0.00  0.00    +0.000 C 
ENDBRANCH   2   6
BRANCH   3   7
ATOM      7  C   UNL     1       6.159   3.744  15.825  0.00  0.00    +0.000 C 
BRANCH   7   8
ATOM      8  N   UNL     1       4.939   3.345  16.574  0.00  0.00    +0.000 NA
ATOM      9  H   UNL     1       4.260   2.985  15.901  0.00  0.00    +0.000 HD
ATOM     10  H   UNL     1       4.510   4.171  16.989  0.00  0.00    +0.000 HD
ENDBRANCH   7   8
BRANCH   7  11
ATOM     11  C   UNL     1       5.751   4.528  14.566  0.00  0.00    +0.000 C 
BRANCH  11  12
ATOM     12  O   UNL     1       6.605   4.178  13.469  0.00  0.00    +0.000 OA
ATOM     13  C   UNL     1       5.908   3.400  12.503  0.00  0.00    +0.000 C 
ENDBRANCH  11  12
ENDBRANCH   7  11
ENDBRANCH   3   7
ENDBRANCH   1   2
BRANCH   1  14
ATOM     14  C   UNL     1       4.375   7.185  17.418  0.00  0.00    +0.000 C 
BRANCH  14  15
ATOM     15  C   UNL     1       3.589   6.169  18.192  0.00  0.00    +0.000 A 
ATOM     16  N   UNL     1       3.657   5.933  19.486  0.00  0.00    +0.000 NA
ATOM     17  C   UNL     1       2.788   4.896  19.727  0.00  0.00    +0.000 A 
ATOM     18  C   UNL     1       2.484   4.235  20.929  0.00  0.00    +0.000 A 
ATOM     19  C   UNL     1       1.560   3.177  20.913  0.00  0.00    +0.000 A 
ATOM     20  C   UNL     1       1.210   2.456  22.186  0.00  0.00    +0.000 C 
ATOM     21  C   UNL     1       0.952   2.800  19.707  0.00  0.00    +0.000 A 
ATOM     22  C   UNL     1       1.237   3.450  18.501  0.00  0.00    +0.000 A 
ATOM     23  C   UNL     1       2.163   4.491  18.555  0.00  0.00    +0.000 A 
ATOM     24  N   UNL     1       2.676   5.330  17.594  0.00  0.00    +0.000 N 
ATOM     25  H   UNL     1       2.437   5.317  16.613  0.00  0.00    +0.000 HD
ENDBRANCH  14  15
ENDBRANCH   1  14
TORSDOF 8
ENDMDL
MODEL 4
REMARK VINA RESULT:      -6.8      1.853      2.678
REMARK  Name = 
REMARK  11 active torsions:
REMARK  status: ('A' for Active; 'I' for Inactive)
REMARK    1  A    between atoms: C_1  and  C_2
REMARK    2  A    between atoms: C_2  and  N_3
REMARK    3  A    between atoms: N_3  and  C_4
REMARK    4  A    between atoms: C_4  and  C_5
REMARK    5  A    between atoms: C_5  and  C_6
REMARK    6  A    between atoms: C_10  and  C_11
REMARK    7  A    between atoms: C_16  and  C_18
REMARK    8  A    between atoms: C_18  and  N_19
REMARK    9  A    between atoms: C_18  and  C_20
REMARK   10  A    between atoms: C_20  and  O_21
REMARK   11  A    between atoms: O_21  and  C_22
REMARK                            x       y       z     vdW  Elec       q    Type
REMARK                         _______ _______ _______ _____ _____    ______ ____
ROOT
ATOM      1  C   UNL     1       7.738   5.780  18.160  0.00  0.00    +0.000 C 
ENDROOT
BRANCH   1   2
ATOM      2  N   UNL     1       6.884   6.572  17.253  0.00  0.00    +0.000 N 
ATOM      3  C   UNL     1       6.278   6.007  16.118  0.00  0.00    +0.000 C 
ATOM      4  O   UNL     1       5.465   6.654  15.447  0.00  0.00    +0.000 OA
BRANCH   2   6
ATOM      5  C   UNL     1       8.046   8.713  17.842  0.00  0.00    +0.000 C 
ATOM      6  C   UNL     1       6.760   8.025  17.406  0.00  0.00    +0.000 C 
ENDBRANCH   2   6
BRANCH   3   7
ATOM      7  C   UNL     1       6.583   4.521  15.763  0.00  0.00    +0.000 C 
BRANCH   7   8
ATOM      8  N   UNL     1       5.412   3.681  16.125  0.00  0.00    +0.000 NA
ATOM      9  H   UNL     1       5.624   3.205  17.004  0.00  0.00    +0.000 HD
ATOM     10  H   UNL     1       5.294   2.945  15.430  0.00  0.00    +0.000 HD
ENDBRANCH   7   8
BRANCH   7  11
ATOM     11  C   UNL     1       6.857   4.388  14.255  0.00  0.00    +0.000 C 
BRANCH  11  12
ATOM     12  O   UNL     1       7.831   5.357  13.845  0.00  0.00    +0.000 OA
ATOM     13  C   UNL     1       7.932   5.414  12.426  0.00  0.00    +0.000 C 
ENDBRANCH  11  12
ENDBRANCH   7  11
ENDBRANCH   3   7
ENDBRANCH   1   2
BRANCH   1  14
ATOM     14  C   UNL     1       7.216   5.430  19.560  0.00  0.00    +0.000 C 
BRANCH  14  15
ATOM     15  C   UNL     1       5.794   4.958  19.505  0.00  0.00    +0.000 A 
ATOM     16  N   UNL     1       5.375   3.733  19.260  0.00  0.00    +0.000 NA
ATOM     17  C   UNL     1       4.002   3.794  19.274  0.00  0.00    +0.000 A 
ATOM     18  C   UNL     1       3.052   2.782  19.052  0.00  0.00    +0.000 A 
ATOM     19  C   UNL     1       1.685   3.104  19.105  0.00  0.00    +0.000 A 
ATOM     20  C   UNL     1       0.646   2.040  18.880  0.00  0.00    +0.000 C 
ATOM     21  C   UNL     1       1.289   4.421  19.381  0.00  0.00    +0.000 A 
ATOM     22  C   UNL     1       2.219   5.440  19.610  0.00  0.00    +0.000 A 
ATOM     23  C   UNL     1       3.567   5.084  19.544  0.00  0.00    +0.000 A 
ATOM     24  N   UNL     1       4.727   5.803  19.707  0.00  0.00    +0.000 N 
ATOM     25  H   UNL     1       4.784   6.789  19.917  0.00  0.00    +0.000 HD
ENDBRANCH  14  15
ENDBRANCH   1  14
TORSDOF 8
ENDMDL
MODEL 5
REMARK VINA RESULT:      -6.6      3.584      5.560
REMARK  Name = 
REMARK  11 active torsions:
REMARK  status: ('A' for Active; 'I' for Inactive)
REMARK    1  A    between atoms: C_1  and  C_2
REMARK    2  A    between atoms: C_2  and  N_3
REMARK    3  A    between atoms: N_3  and  C_4
REMARK    4  A    between atoms: C_4  and  C_5
REMARK    5  A    between atoms: C_5  and  C_6
REMARK    6  A    between atoms: C_10  and  C_11
REMARK    7  A    between atoms: C_16  and  C_18
REMARK    8  A    between atoms: C_18  and  N_19
REMARK    9  A    between atoms: C_18  and  C_20
REMARK   10  A    between atoms: C_20  and  O_21
REMARK   11  A    between atoms: O_21  and  C_22
REMARK                            x       y       z     vdW  Elec       q    Type
REMARK                         _______ _______ _______ _____ _____    ______ ____
ROOT
ATOM      1  C   UNL     1       4.220   5.041  17.273  0.00  0.00    +0.000 C 
ENDROOT
BRANCH   1   2
ATOM      2  N   UNL     1       4.979   4.435  18.383  0.00  0.00    +0.000 N 
ATOM      3  C   UNL     1       4.501   3.320  19.093  0.00  0.00    +0.000 C 
ATOM      4  O   UNL     1       5.212   2.751  19.930  0.00  0.00    +0.000 OA
BRANCH   2   6
ATOM      5  C   UNL     1       7.439   4.799  18.066  0.00  0.00    +0.000 C 
ATOM      6  C   UNL     1       6.196   5.068  18.904  0.00  0.00    +0.000 C 
ENDBRANCH   2   6
BRANCH   3   7
ATOM      7  C   UNL     1       3.090   2.758  18.748  0.00  0.00    +0.000 C 
BRANCH   7   8
ATOM      8  N   UNL     1       3.239   1.502  17.969  0.00  0.00    +0.000 NA
ATOM      9  H   UNL     1       2.323   1.256  17.589  0.00  0.00    +0.000 HD
ATOM     10  H   UNL     1       3.495   0.741  18.597  0.00  0.00    +0.000 HD
ENDBRANCH   7   8
BRANCH   7  11
ATOM     11  C   UNL     1       2.313   2.465  20.043  0.00  0.00    +0.000 C 
BRANCH  11  12
ATOM     12  O   UNL     1       2.196   3.658  20.829  0.00  0.00    +0.000 OA
ATOM     13  C   UNL     1       1.007   4.372  20.506  0.00  0.00    +0.000 C 
ENDBRANCH  11  12
ENDBRANCH   7  11
ENDBRANCH   3   7
ENDBRANCH   1   2
BRANCH   1  14
ATOM     14  C   UNL     1       4.331   6.553  17.030  0.00  0.00    +0.000 C 
BRANCH  14  15
ATOM     15  C   UNL     1       3.297   7.304  17.813  0.00  0.00    +0.000 A 
ATOM     16  N   UNL     1       2.581   8.330  17.400  0.00  0.00    +0.000 NA
ATOM     17  C   UNL     1       1.804   8.704  18.470  0.00  0.00    +0.000 A 
ATOM     18  C   UNL     1       0.873   9.750  18.587  0.00  0.00    +0.000 A 
ATOM     19  C   UNL     1       0.209   9.942  19.811  0.00  0.00    +0.000 A 
ATOM     20  C   UNL     1      -0.797  11.049  19.963  0.00  0.00    +0.000 C 
ATOM     21  C   UNL     1       0.478   9.088  20.891  0.00  0.00    +0.000 A 
ATOM     22  C   UNL     1       1.397   8.038  20.792  0.00  0.00    +0.000 A 
ATOM     23  C   UNL     1       2.040   7.883  19.564  0.00  0.00    +0.000 A 
ATOM     24  N   UNL     1       2.981   6.987  19.114  0.00  0.00    +0.000 N 
ATOM     25  H   UNL     1       3.386   6.237  19.656  0.00  0.00    +0.000 HD
ENDBRANCH  14  15
ENDBRANCH   1  14
TORSDOF 8
ENDMDL
MODEL 6
REMARK VINA RESULT:      -6.6      1.582      3.494
REMARK  Name = 
REMARK  11 active torsions:
REMARK  status: ('A' for Active; 'I' for Inactive)
REMARK    1  A    between atoms: C_1  and  C_2
REMARK    2  A    between atoms: C_2  and  N_3
REMARK    3  A    between atoms: N_3  and  C_4
REMARK    4  A    between atoms: C_4  and  C_5
REMARK    5  A    between atoms: C_5  and  C_6
REMARK    6  A    between atoms: C_10  and  C_11
REMARK    7  A    between atoms: C_16  and  C_18
REMARK    8  A    between atoms: C_18  and  N_19
REMARK    9  A    between atoms: C_18  and  C_20
REMARK   10  A    between atoms: C_20  and  O_21
REMARK   11  A    between atoms: O_21  and  C_22
REMARK                            x       y       z     vdW  Elec       q    Type
REMARK                         _______ _______ _______ _____ _____    ______ ____
ROOT
ATOM      1  C   UNL     1       5.211   6.043  16.089  0.00  0.00    +0.000 C 
ENDROOT
BRANCH   1   2
ATOM      2  N   UNL     1       6.350   5.109  16.161  0.00  0.00    +0.000 N 
ATOM      3  C   UNL     1       7.235   5.097  17.254  0.00  0.00    +0.000 C 
ATOM      4  O   UNL     1       8.103   4.220  17.354  0.00  0.00    +0.000 OA
BRANCH   2   6
ATOM      5  C   UNL     1       5.623   4.168  13.955  0.00  0.00    +0.000 C 
ATOM      6  C   UNL     1       6.708   4.259  15.020  0.00  0.00    +0.000 C 
ENDBRANCH   2   6
BRANCH   3   7
ATOM      7  C   UNL     1       7.052   6.154  18.382  0.00  0.00    +0.000 C 
BRANCH   7   8
ATOM      8  N   UNL     1       7.082   5.473  19.702  0.00  0.00    +0.000 NA
ATOM      9  H   UNL     1       6.370   5.904  20.295  0.00  0.00    +0.000 HD
ATOM     10  H   UNL     1       7.975   5.655  20.158  0.00  0.00    +0.000 HD
ENDBRANCH   7   8
BRANCH   7  11
ATOM     11  C   UNL     1       8.189   7.189  18.318  0.00  0.00    +0.000 C 
BRANCH  11  12
ATOM     12  O   UNL     1       7.850   8.237  17.400  0.00  0.00    +0.000 OA
ATOM     13  C   UNL     1       8.230   9.510  17.912  0.00  0.00    +0.000 C 
ENDBRANCH  11  12
ENDBRANCH   7  11
ENDBRANCH   3   7
ENDBRANCH   1   2
BRANCH   1  14
ATOM     14  C   UNL     1       4.713   6.716  17.376  0.00  0.00    +0.000 C 
BRANCH  14  15
ATOM     15  C   UNL     1       3.832   5.793  18.162  0.00  0.00    +0.000 A 
ATOM     16  N   UNL     1       3.876   5.568  19.460  0.00  0.00    +0.000 NA
ATOM     17  C   UNL     1       2.909   4.625  19.714  0.00  0.00    +0.000 A 
ATOM     18  C   UNL     1       2.543   4.012  20.924  0.00  0.00    +0.000 A 
ATOM     19  C   UNL     1       1.519   3.050  20.921  0.00  0.00    +0.000 A 
ATOM     20  C   UNL     1       1.100   2.383  22.202  0.00  0.00    +0.000 C 
ATOM     21  C   UNL     1       0.876   2.719  19.718  0.00  0.00    +0.000 A 
ATOM     22  C   UNL     1       1.223   3.322  18.505  0.00  0.00    +0.000 A 
ATOM     23  C   UNL     1       2.248   4.268  18.546  0.00  0.00    +0.000 A 
ATOM     24  N   UNL     1       2.840   5.040  17.575  0.00  0.00    +0.000 N 
ATOM     25  H   UNL     1       2.601   5.038  16.594  0.00  0.00    +0.000 HD
ENDBRANCH  14  15
ENDBRANCH   1  14
TORSDOF 8
ENDMDL
MODEL 7
REMARK VINA RESULT:      -6.6      4.198      5.569
REMARK  Name = 
REMARK  11 active torsions:
REMARK  status: ('A' for Active; 'I' for Inactive)
REMARK    1  A    between atoms: C_1  and  C_2
REMARK    2  A    between atoms: C_2  and  N_3
REMARK    3  A    between atoms: N_3  and  C_4
REMARK    4  A    between atoms: C_4  and  C_5
REMARK    5  A    between atoms: C_5  and  C_6
REMARK    6  A    between atoms: C_10  and  C_11
REMARK    7  A    between atoms: C_16  and  C_18
REMARK    8  A    between atoms: C_18  and  N_19
REMARK    9  A    between atoms: C_18  and  C_20
REMARK   10  A    between atoms: C_20  and  O_21
REMARK   11  A    between atoms: O_21  and  C_22
REMARK                            x       y       z     vdW  Elec       q    Type
REMARK                         _______ _______ _______ _____ _____    ______ ____
ROOT
ATOM      1  C   UNL     1       3.383   6.144  19.066  0.00  0.00    +0.000 C 
ENDROOT
BRANCH   1   2
ATOM      2  N   UNL     1       3.034   4.763  18.682  0.00  0.00    +0.000 N 
ATOM      3  C   UNL     1       3.933   3.932  17.992  0.00  0.00    +0.000 C 
ATOM      4  O   UNL     1       3.667   2.739  17.796  0.00  0.00    +0.000 OA
BRANCH   2   6
ATOM      5  C   UNL     1       1.227   4.169  20.314  0.00  0.00    +0.000 C 
ATOM      6  C   UNL     1       1.672   4.248  18.860  0.00  0.00    +0.000 C 
ENDBRANCH   2   6
BRANCH   3   7
ATOM      7  C   UNL     1       5.308   4.513  17.550  0.00  0.00    +0.000 C 
BRANCH   7   8
ATOM      8  N   UNL     1       6.360   4.059  18.497  0.00  0.00    +0.000 NA
ATOM      9  H   UNL     1       6.101   4.380  19.432  0.00  0.00    +0.000 HD
ATOM     10  H   UNL     1       7.239   4.523  18.275  0.00  0.00    +0.000 HD
ENDBRANCH   7   8
BRANCH   7  11
ATOM     11  C   UNL     1       5.653   4.023  16.134  0.00  0.00    +0.000 C 
BRANCH  11  12
ATOM     12  O   UNL     1       6.880   4.619  15.690  0.00  0.00    +0.000 OA
ATOM     13  C   UNL     1       6.901   4.756  14.274  0.00  0.00    +0.000 C 
ENDBRANCH  11  12
ENDBRANCH   7  11
ENDBRANCH   3   7
ENDBRANCH   1   2
BRANCH   1  14
ATOM     14  C   UNL     1       2.696   7.315  18.350  0.00  0.00    +0.000 C 
BRANCH  14  15
ATOM     15  C   UNL     1       1.879   8.130  19.307  0.00  0.00    +0.000 A 
ATOM     16  N   UNL     1       1.200   9.226  19.035  0.00  0.00    +0.000 NA
ATOM     17  C   UNL     1       0.650   9.635  20.226  0.00  0.00    +0.000 A 
ATOM     18  C   UNL     1      -0.149  10.754  20.513  0.00  0.00    +0.000 A 
ATOM     19  C   UNL     1      -0.580  10.967  21.834  0.00  0.00    +0.000 A 
ATOM     20  C   UNL     1      -1.442  12.152  22.170  0.00  0.00    +0.000 C 
ATOM     21  C   UNL     1      -0.212  10.062  22.841  0.00  0.00    +0.000 A 
ATOM     22  C   UNL     1       0.578   8.939  22.574  0.00  0.00    +0.000 A 
ATOM     23  C   UNL     1       0.991   8.765  21.253  0.00  0.00    +0.000 A 
ATOM     24  N   UNL     1       1.758   7.804  20.638  0.00  0.00    +0.000 N 
ATOM     25  H   UNL     1       2.178   7.006  21.093  0.00  0.00    +0.000 HD
ENDBRANCH  14  15
ENDBRANCH   1  14
TORSDOF 8
ENDMDL
MODEL 8
REMARK VINA RESULT:      -6.6      3.208      5.188
REMARK  Name = 
REMARK  11 active torsions:
REMARK  status: ('A' for Active; 'I' for Inactive)
REMARK    1  A    between atoms: C_1  and  C_2
REMARK    2  A    between atoms: C_2  and  N_3
REMARK    3  A    between atoms: N_3  and  C_4
REMARK    4  A    between atoms: C_4  and  C_5
REMARK    5  A    between atoms: C_5  and  C_6
REMARK    6  A    between atoms: C_10  and  C_11
REMARK    7  A    between atoms: C_16  and  C_18
REMARK    8  A    between atoms: C_18  and  N_19
REMARK    9  A    between atoms: C_18  and  C_20
REMARK   10  A    between atoms: C_20  and  O_21
REMARK   11  A    between atoms: O_21  and  C_22
REMARK                            x       y       z     vdW  Elec       q    Type
REMARK                         _______ _______ _______ _____ _____    ______ ____
ROOT
ATOM      1  C   UNL     1       4.434   4.663  19.169  0.00  0.00    +0.000 C 
ENDROOT
BRANCH   1   2
ATOM      2  N   UNL     1       4.442   4.068  17.819  0.00  0.00    +0.000 N 
ATOM      3  C   UNL     1       5.547   4.190  16.958  0.00  0.00    +0.000 C 
ATOM      4  O   UNL     1       5.582   3.575  15.885  0.00  0.00    +0.000 OA
BRANCH   2   6
ATOM      5  C   UNL     1       2.983   2.032  17.720  0.00  0.00    +0.000 C 
ATOM      6  C   UNL     1       3.235   3.459  17.251  0.00  0.00    +0.000 C 
ENDBRANCH   2   6
BRANCH   3   7
ATOM      7  C   UNL     1       6.765   5.046  17.414  0.00  0.00    +0.000 C 
BRANCH   7   8
ATOM      8  N   UNL     1       7.975   4.186  17.472  0.00  0.00    +0.000 NA
ATOM      9  H   UNL     1       8.615   4.491  16.736  0.00  0.00    +0.000 HD
ATOM     10  H   UNL     1       7.721   3.226  17.241  0.00  0.00    +0.000 HD
ENDBRANCH   7   8
BRANCH   7  11
ATOM     11  C   UNL     1       7.003   6.191  16.414  0.00  0.00    +0.000 C 
BRANCH  11  12
ATOM     12  O   UNL     1       6.675   7.449  17.019  0.00  0.00    +0.000 OA
ATOM     13  C   UNL     1       7.806   8.014  17.674  0.00  0.00    +0.000 C 
ENDBRANCH  11  12
ENDBRANCH   7  11
ENDBRANCH   3   7
ENDBRANCH   1   2
BRANCH   1  14
ATOM     14  C   UNL     1       3.117   4.708  19.956  0.00  0.00    +0.000 C 
BRANCH  14  15
ATOM     15  C   UNL     1       2.506   6.076  19.911  0.00  0.00    +0.000 A 
ATOM     16  N   UNL     1       2.449   6.885  18.872  0.00  0.00    +0.000 NA
ATOM     17  C   UNL     1       1.838   8.032  19.319  0.00  0.00    +0.000 A 
ATOM     18  C   UNL     1       1.543   9.221  18.633  0.00  0.00    +0.000 A 
ATOM     19  C   UNL     1       0.919  10.274  19.326  0.00  0.00    +0.000 A 
ATOM     20  C   UNL     1       0.585  11.556  18.615  0.00  0.00    +0.000 C 
ATOM     21  C   UNL     1       0.598  10.121  20.682  0.00  0.00    +0.000 A 
ATOM     22  C   UNL     1       0.878   8.942  21.381  0.00  0.00    +0.000 A 
ATOM     23  C   UNL     1       1.502   7.922  20.662  0.00  0.00    +0.000 A 
ATOM     24  N   UNL     1       1.920   6.660  21.011  0.00  0.00    +0.000 N 
ATOM     25  H   UNL     1       1.831   6.243  21.926  0.00  0.00    +0.000 HD
ENDBRANCH  14  15
ENDBRANCH   1  14
TORSDOF 8
ENDMDL
MODEL 9
REMARK VINA RESULT:      -6.6      2.881      3.686
REMARK  Name = 
REMARK  11 active torsions:
REMARK  status: ('A' for Active; 'I' for Inactive)
REMARK    1  A    between atoms: C_1  and  C_2
REMARK    2  A    between atoms: C_2  and  N_3
REMARK    3  A    between atoms: N_3  and  C_4
REMARK    4  A    between atoms: C_4  and  C_5
REMARK    5  A    between atoms: C_5  and  C_6
REMARK    6  A    between atoms: C_10  and  C_11
REMARK    7  A    between atoms: C_16  and  C_18
REMARK    8  A    between atoms: C_18  and  N_19
REMARK    9  A    between atoms: C_18  and  C_20
REMARK   10  A    between atoms: C_20  and  O_21
REMARK   11  A    between atoms: O_21  and  C_22
REMARK                            x       y       z     vdW  Elec       q    Type
REMARK                         _______ _______ _______ _____ _____    ______ ____
ROOT
ATOM      1  C   UNL     1       4.900   6.055  17.084  0.00  0.00    +0.000 C 
ENDROOT
BRANCH   1   2
ATOM      2  N   UNL     1       6.101   5.267  17.420  0.00  0.00    +0.000 N 
ATOM      3  C   UNL     1       6.964   4.765  16.431  0.00  0.00    +0.000 C 
ATOM      4  O   UNL     1       8.031   4.221  16.740  0.00  0.00    +0.000 OA
BRANCH   2   6
ATOM      5  C   UNL     1       7.364   5.705  19.540  0.00  0.00    +0.000 C 
ATOM      6  C   UNL     1       6.361   4.832  18.797  0.00  0.00    +0.000 C 
ENDBRANCH   2   6
BRANCH   3   7
ATOM      7  C   UNL     1       6.596   4.981  14.933  0.00  0.00    +0.000 C 
BRANCH   7   8
ATOM      8  N   UNL     1       7.783   5.505  14.208  0.00  0.00    +0.000 NA
ATOM      9  H   UNL     1       8.237   4.721  13.736  0.00  0.00    +0.000 HD
ATOM     10  H   UNL     1       8.462   5.860  14.879  0.00  0.00    +0.000 HD
ENDBRANCH   7   8
BRANCH   7  11
ATOM     11  C   UNL     1       6.164   3.646  14.302  0.00  0.00    +0.000 C 
BRANCH  11  12
ATOM     12  O   UNL     1       5.532   3.880  13.037  0.00  0.00    +0.000 OA
ATOM     13  C   UNL     1       5.875   2.867  12.097  0.00  0.00    +0.000 C 
ENDBRANCH  11  12
ENDBRANCH   7  11
ENDBRANCH   3   7
ENDBRANCH   1   2
BRANCH   1  14
ATOM     14  C   UNL     1       3.528   5.575  17.581  0.00  0.00    +0.000 C 
BRANCH  14  15
ATOM     15  C   UNL     1       2.841   6.639  18.383  0.00  0.00    +0.000 A 
ATOM     16  N   UNL     1       2.491   6.573  19.652  0.00  0.00    +0.000 NA
ATOM     17  C   UNL     1       1.860   7.762  19.932  0.00  0.00    +0.000 A 
ATOM     18  C   UNL     1       1.274   8.211  21.126  0.00  0.00    +0.000 A 
ATOM     19  C   UNL     1       0.666   9.478  21.155  0.00  0.00    +0.000 A 
ATOM     20  C   UNL     1       0.037   9.989  22.422  0.00  0.00    +0.000 C 
ATOM     21  C   UNL     1       0.657  10.274  20.000  0.00  0.00    +0.000 A 
ATOM     22  C   UNL     1       1.241   9.846  18.803  0.00  0.00    +0.000 A 
ATOM     23  C   UNL     1       1.829   8.581  18.811  0.00  0.00    +0.000 A 
ATOM     24  N   UNL     1       2.477   7.852  17.843  0.00  0.00    +0.000 N 
ATOM     25  H   UNL     1       2.639   8.149  16.892  0.00  0.00    +0.000 HD
ENDBRANCH  14  15
ENDBRANCH   1  14
TORSDOF 8
ENDMDL
