MODEL 1
REMARK VINA RESULT:      -8.4      0.000      0.000
REMARK  Name = 
REMARK  5 active torsions:
REMARK  status: ('A' for Active; 'I' for Inactive)
REMARK    1  A    between atoms: C_2  and  C_17
REMARK    2  A    between atoms: N_3  and  C_4
REMARK    3  A    between atoms: N_7  and  C_8
REMARK    4  A    between atoms: C_8  and  C_9
REMARK    5  A    between atoms: C_21  and  C_22
REMARK                            x       y       z     vdW  Elec       q    Type
REMARK                         _______ _______ _______ _____ _____    ______ ____
ROOT
ATOM      1  O   UNL     1       1.034   3.916  17.550  0.00  0.00    +0.000 OA
ATOM      2  C   UNL     1       2.019   4.442  18.066  0.00  0.00    +0.000 C 
ATOM      3  N   UNL     1       2.140   5.806  17.940  0.00  0.00    +0.000 N 
ATOM      4  H   UNL     1       1.301   6.167  17.497  0.00  0.00    +0.000 HD
ENDROOT
BRANCH   3   5
ATOM      5  C   UNL     1       3.079   6.820  18.456  0.00  0.00    +0.000 C 
ATOM      6  C   UNL     1       2.768   7.103  19.933  0.00  0.00    +0.000 C 
ATOM      7  C   UNL     1       1.453   7.889  20.093  0.00  0.00    +0.000 C 
ATOM      8  N   UNL     1       1.329   9.091  19.240  0.00  0.00    +0.000 NA
ATOM      9  C   UNL     1       1.710   8.828  17.847  0.00  0.00    +0.000 C 
ATOM     10  C   UNL     1       3.086   8.193  17.783  0.00  0.00    +0.000 C 
BRANCH   8  11
ATOM     11  C   UNL     1      -0.062   9.594  19.307  0.00  0.00    +0.000 C 
BRANCH  11  12
ATOM     12  C   UNL     1      -0.416  10.369  20.563  0.00  0.00    +0.000 A 
ATOM     13  C   UNL     1      -0.493   9.710  21.801  0.00  0.00    +0.000 A 
ATOM     14  C   UNL     1      -0.790  10.417  22.967  0.00  0.00    +0.000 A 
ATOM     15  C   UNL     1      -1.024  11.790  22.908  0.00  0.00    +0.000 A 
ATOM     16  C   UNL     1      -0.973  12.453  21.684  0.00  0.00    +0.000 A 
ATOM     17  C   UNL     1      -0.669  11.748  20.515  0.00  0.00    +0.000 A 
ENDBRANCH  11  12
ENDBRANCH   8  11
ENDBRANCH   3   5
BRANCH   2  18
ATOM     18  C   UNL     1       3.053   3.679  18.726  0.00  0.00    +0.000 A 
ATOM     19  C   UNL     1       2.909   2.756  19.787  0.00  0.00    +0.000 A 
ATOM     20  N   UNL     1       4.073   2.273  20.219  0.00  0.00    +0.000 NA
ATOM     21  N   UNL     1       4.962   2.830  19.384  0.00  0.00    +0.000 N 
ATOM     22  C   UNL     1       4.406   3.607  18.394  0.00  0.00    +0.000 A 
ATOM     23  H   UNL     1       5.944   2.617  19.522  0.00  0.00    +0.000 HD
BRANCH  22  24
ATOM     24  C   UNL     1       5.201   4.141  17.282  0.00  0.00    +0.000 A 
ATOM     25  C   UNL     1       6.412   4.804  17.541  0.00  0.00    +0.000 A 
ATOM     26  C   UNL     1       7.257   5.198  16.500  0.00  0.00    +0.000 A 
ATOM     27  C   UNL     1       6.901   4.937  15.181  0.00  0.00    +0.000 A 
ATOM     28  C   UNL     1       5.686   4.317  14.903  0.00  0.00    +0.000 A 
ATOM     29  C   UNL     1       4.835   3.936  15.947  0.00  0.00    +0.000 A 
ENDBRANCH  22  24
ENDBRANCH   2  18
TORSDOF 5
ENDMDL
MODEL 2
REMARK VINA RESULT:      -8.2      0.427      1.019
REMARK  Name = 
REMARK  5 active torsions:
REMARK  status: ('A' for Active; 'I' for Inactive)
REMARK    1  A    between atoms: C_2  and  C_17
REMARK    2  A    between atoms: N_3  and  C_4
REMARK    3  A    between atoms: N_7  and  C_8
REMARK    4  A    between atoms: C_8  and  C_9
REMARK    5  A    between atoms: C_21  and  C_22
REMARK                            x       y       z     vdW  Elec       q    Type
REMARK                         _______ _______ _______ _____ _____    ______ ____
ROOT
ATOM      1  O   UNL     1       1.065   3.971  17.477  0.00  0.00    +0.000 OA
ATOM      2  C   UNL     1       2.051   4.500  17.989  0.00  0.00    +0.000 C 
ATOM      3  N   UNL     1       2.175   5.863  17.851  0.00  0.00    +0.000 N 
ATOM      4  H   UNL     1       1.337   6.221  17.404  0.00  0.00    +0.000 HD
ENDROOT
BRANCH   3   5
ATOM      5  C   UNL     1       3.115   6.880  18.358  0.00  0.00    +0.000 C 
ATOM      6  C   UNL     1       2.912   7.060  19.869  0.00  0.00    +0.000 C 
ATOM      7  C   UNL     1       1.587   7.781  20.179  0.00  0.00    +0.000 C 
ATOM      8  N   UNL     1       1.354   9.028  19.416  0.00  0.00    +0.000 NA
ATOM      9  C   UNL     1       1.634   8.866  17.985  0.00  0.00    +0.000 C 
ATOM     10  C   UNL     1       3.021   8.291  17.775  0.00  0.00    +0.000 C 
BRANCH   8  11
ATOM     11  C   UNL     1      -0.043   9.469  19.622  0.00  0.00    +0.000 C 
BRANCH  11  12
ATOM     12  C   UNL     1      -0.223  10.664  20.542  0.00  0.00    +0.000 A 
ATOM     13  C   UNL     1       0.070  11.958  20.083  0.00  0.00    +0.000 A 
ATOM     14  C   UNL     1      -0.119  13.066  20.910  0.00  0.00    +0.000 A 
ATOM     15  C   UNL     1      -0.593  12.893  22.209  0.00  0.00    +0.000 A 
ATOM     16  C   UNL     1      -0.867  11.613  22.685  0.00  0.00    +0.000 A 
ATOM     17  C   UNL     1      -0.685  10.501  21.856  0.00  0.00    +0.000 A 
ENDBRANCH  11  12
ENDBRANCH   8  11
ENDBRANCH   3   5
BRANCH   2  18
ATOM     18  C   UNL     1       3.083   3.741  18.656  0.00  0.00    +0.000 A 
ATOM     19  C   UNL     1       2.938   2.827  19.725  0.00  0.00    +0.000 A 
ATOM     20  N   UNL     1       4.101   2.347  20.161  0.00  0.00    +0.000 NA
ATOM     21  N   UNL     1       4.991   2.895  19.322  0.00  0.00    +0.000 N 
ATOM     22  C   UNL     1       4.436   3.665  18.326  0.00  0.00    +0.000 A 
ATOM     23  H   UNL     1       5.972   2.683  19.463  0.00  0.00    +0.000 HD
BRANCH  22  24
ATOM     24  C   UNL     1       5.233   4.189  17.210  0.00  0.00    +0.000 A 
ATOM     25  C   UNL     1       6.236   5.143  17.452  0.00  0.00    +0.000 A 
ATOM     26  C   UNL     1       7.101   5.554  16.434  0.00  0.00    +0.000 A 
ATOM     27  C   UNL     1       6.976   5.019  15.157  0.00  0.00    +0.000 A 
ATOM     28  C   UNL     1       5.963   4.102  14.889  0.00  0.00    +0.000 A 
ATOM     29  C   UNL     1       5.088   3.701  15.906  0.00  0.00    +0.000 A 
ENDBRANCH  22  24
ENDBRANCH   2  18
TORSDOF 5
ENDMDL
MODEL 3
REMARK VINA RESULT:      -8.2      1.345      1.982
REMARK  Name = 
REMARK  5 active torsions:
REMARK  status: ('A' for Active; 'I' for Inactive)
REMARK    1  A    between atoms: C_2  and  C_17
REMARK    2  A    between atoms: N_3  and  C_4
REMARK    3  A    between atoms: N_7  and  C_8
REMARK    4  A    between atoms: C_8  and  C_9
REMARK    5  A    between atoms: C_21  and  C_22
REMARK                            x       y       z     vdW  Elec       q    Type
REMARK                         _______ _______ _______ _____ _____    ______ ____
ROOT
ATOM      1  O   UNL     1       1.045   3.749  17.573  0.00  0.00    +0.000 OA
ATOM      2  C   UNL     1       2.068   4.255  18.032  0.00  0.00    +0.000 C 
ATOM      3  N   UNL     1       2.261   5.598  17.803  0.00  0.00    +0.000 N 
ATOM      4  H   UNL     1       1.435   5.971  17.348  0.00  0.00    +0.000 HD
ENDROOT
BRANCH   3   5
ATOM      5  C   UNL     1       3.264   6.592  18.226  0.00  0.00    +0.000 C 
ATOM      6  C   UNL     1       3.185   6.787  19.747  0.00  0.00    +0.000 C 
ATOM      7  C   UNL     1       1.907   7.545  20.154  0.00  0.00    +0.000 C 
ATOM      8  N   UNL     1       1.648   8.793  19.401  0.00  0.00    +0.000 NA
ATOM      9  C   UNL     1       1.811   8.615  17.954  0.00  0.00    +0.000 C 
ATOM     10  C   UNL     1       3.162   8.002  17.641  0.00  0.00    +0.000 C 
BRANCH   8  11
ATOM     11  C   UNL     1       0.283   9.273  19.711  0.00  0.00    +0.000 C 
BRANCH  11  12
ATOM     12  C   UNL     1      -0.060  10.654  19.184  0.00  0.00    +0.000 A 
ATOM     13  C   UNL     1      -1.206  10.843  18.395  0.00  0.00    +0.000 A 
ATOM     14  C   UNL     1      -1.547  12.114  17.929  0.00  0.00    +0.000 A 
ATOM     15  C   UNL     1      -0.742  13.209  18.237  0.00  0.00    +0.000 A 
ATOM     16  C   UNL     1       0.410  13.032  19.000  0.00  0.00    +0.000 A 
ATOM     17  C   UNL     1       0.751  11.761  19.475  0.00  0.00    +0.000 A 
ENDBRANCH  11  12
ENDBRANCH   8  11
ENDBRANCH   3   5
BRANCH   2  18
ATOM     18  C   UNL     1       3.072   3.486  18.731  0.00  0.00    +0.000 A 
ATOM     19  C   UNL     1       2.883   2.563  19.785  0.00  0.00    +0.000 A 
ATOM     20  N   UNL     1       4.027   2.074  20.260  0.00  0.00    +0.000 NA
ATOM     21  N   UNL     1       4.950   2.626  19.460  0.00  0.00    +0.000 N 
ATOM     22  C   UNL     1       4.436   3.407  18.451  0.00  0.00    +0.000 A 
ATOM     23  H   UNL     1       5.925   2.408  19.635  0.00  0.00    +0.000 HD
BRANCH  22  24
ATOM     24  C   UNL     1       5.276   3.938  17.370  0.00  0.00    +0.000 A 
ATOM     25  C   UNL     1       4.881   3.777  16.032  0.00  0.00    +0.000 A 
ATOM     26  C   UNL     1       5.585   4.390  14.992  0.00  0.00    +0.000 A 
ATOM     27  C   UNL     1       6.698   5.175  15.275  0.00  0.00    +0.000 A 
ATOM     28  C   UNL     1       7.128   5.313  16.592  0.00  0.00    +0.000 A 
ATOM     29  C   UNL     1       6.430   4.686  17.631  0.00  0.00    +0.000 A 
ENDBRANCH  22  24
ENDBRANCH   2  18
TORSDOF 5
ENDMDL
MODEL 4
REMARK VINA RESULT:      -8.1      1.162      1.217
REMARK  Name = 
REMARK  5 active torsions:
REMARK  status: ('A' for Active; 'I' for Inactive)
REMARK    1  A    between atoms: C_2  and  C_17
REMARK    2  A    between atoms: N_3  and  C_4
REMARK    3  A    between atoms: N_7  and  C_8
REMARK    4  A    between atoms: C_8  and  C_9
REMARK    5  A    between atoms: C_21  and  C_22
REMARK                            x       y       z     vdW  Elec       q    Type
REMARK                         _______ _______ _______ _____ _____    ______ ____
ROOT
ATOM      1  O   UNL     1       1.067   3.844  17.695  0.00  0.00    +0.000 OA
ATOM      2  C   UNL     1       2.032   4.371  18.246  0.00  0.00    +0.000 C 
ATOM      3  N   UNL     1       2.103   5.744  18.211  0.00  0.00    +0.000 N 
ATOM      4  H   UNL     1       1.252   6.102  17.791  0.00  0.00    +0.000 HD
ENDROOT
BRANCH   3   5
ATOM      5  C   UNL     1       3.005   6.755  18.793  0.00  0.00    +0.000 C 
ATOM      6  C   UNL     1       2.376   7.329  20.072  0.00  0.00    +0.000 C 
ATOM      7  C   UNL     1       1.172   8.234  19.751  0.00  0.00    +0.000 C 
ATOM      8  N   UNL     1       1.416   9.266  18.719  0.00  0.00    +0.000 NA
ATOM      9  C   UNL     1       2.095   8.723  17.537  0.00  0.00    +0.000 C 
ATOM     10  C   UNL     1       3.352   7.977  17.941  0.00  0.00    +0.000 C 
BRANCH   8  11
ATOM     11  C   UNL     1       0.127   9.884  18.335  0.00  0.00    +0.000 C 
BRANCH  11  12
ATOM     12  C   UNL     1      -0.323  11.048  19.199  0.00  0.00    +0.000 A 
ATOM     13  C   UNL     1       0.622  11.819  19.893  0.00  0.00    +0.000 A 
ATOM     14  C   UNL     1       0.222  12.909  20.667  0.00  0.00    +0.000 A 
ATOM     15  C   UNL     1      -1.129  13.235  20.765  0.00  0.00    +0.000 A 
ATOM     16  C   UNL     1      -2.080  12.466  20.100  0.00  0.00    +0.000 A 
ATOM     17  C   UNL     1      -1.682  11.377  19.318  0.00  0.00    +0.000 A 
ENDBRANCH  11  12
ENDBRANCH   8  11
ENDBRANCH   3   5
BRANCH   2  18
ATOM     18  C   UNL     1       3.094   3.604  18.856  0.00  0.00    +0.000 A 
ATOM     19  C   UNL     1       2.992   2.645  19.889  0.00  0.00    +0.000 A 
ATOM     20  N   UNL     1       4.174   2.168  20.277  0.00  0.00    +0.000 NA
ATOM     21  N   UNL     1       5.033   2.767  19.440  0.00  0.00    +0.000 N 
ATOM     22  C   UNL     1       4.440   3.566  18.490  0.00  0.00    +0.000 A 
ATOM     23  H   UNL     1       6.021   2.567  19.547  0.00  0.00    +0.000 HD
BRANCH  22  24
ATOM     24  C   UNL     1       5.199   4.151  17.378  0.00  0.00    +0.000 A 
ATOM     25  C   UNL     1       6.350   4.914  17.639  0.00  0.00    +0.000 A 
ATOM     26  C   UNL     1       7.169   5.363  16.599  0.00  0.00    +0.000 A 
ATOM     27  C   UNL     1       6.849   5.058  15.281  0.00  0.00    +0.000 A 
ATOM     28  C   UNL     1       5.691   4.336  15.001  0.00  0.00    +0.000 A 
ATOM     29  C   UNL     1       4.864   3.899  16.042  0.00  0.00    +0.000 A 
ENDBRANCH  22  24
ENDBRANCH   2  18
TORSDOF 5
ENDMDL
MODEL 5
REMARK VINA RESULT:      -8.1      1.225      1.815
REMARK  Name = 
REMARK  5 active torsions:
REMARK  status: ('A' for Active; 'I' for Inactive)
REMARK    1  A    between atoms: C_2  and  C_17
REMARK    2  A    between atoms: N_3  and  C_4
REMARK    3  A    between atoms: N_7  and  C_8
REMARK    4  A    between atoms: C_8  and  C_9
REMARK    5  A    between atoms: C_21  and  C_22
REMARK                            x       y       z     vdW  Elec       q    Type
REMARK                         _______ _______ _______ _____ _____    ______ ____
ROOT
ATOM      1  O   UNL     1       0.985   3.879  17.562  0.00  0.00    +0.000 OA
ATOM      2  C   UNL     1       2.003   4.399  18.015  0.00  0.00    +0.000 C 
ATOM      3  N   UNL     1       2.165   5.749  17.807  0.00  0.00    +0.000 N 
ATOM      4  H   UNL     1       1.325   6.112  17.370  0.00  0.00    +0.000 HD
ENDROOT
BRANCH   3   5
ATOM      5  C   UNL     1       3.153   6.757  18.233  0.00  0.00    +0.000 C 
ATOM      6  C   UNL     1       3.169   6.844  19.766  0.00  0.00    +0.000 C 
ATOM      7  C   UNL     1       1.892   7.514  20.307  0.00  0.00    +0.000 C 
ATOM      8  N   UNL     1       1.532   8.796  19.663  0.00  0.00    +0.000 NA
ATOM      9  C   UNL     1       1.603   8.725  18.200  0.00  0.00    +0.000 C 
ATOM     10  C   UNL     1       2.954   8.197  17.757  0.00  0.00    +0.000 C 
BRANCH   8  11
ATOM     11  C   UNL     1       0.172   9.192  20.095  0.00  0.00    +0.000 C 
BRANCH  11  12
ATOM     12  C   UNL     1      -0.514  10.229  19.226  0.00  0.00    +0.000 A 
ATOM     13  C   UNL     1      -1.517   9.841  18.323  0.00  0.00    +0.000 A 
ATOM     14  C   UNL     1      -2.175  10.790  17.539  0.00  0.00    +0.000 A 
ATOM     15  C   UNL     1      -1.832  12.137  17.641  0.00  0.00    +0.000 A 
ATOM     16  C   UNL     1      -0.823  12.534  18.516  0.00  0.00    +0.000 A 
ATOM     17  C   UNL     1      -0.167  11.586  19.308  0.00  0.00    +0.000 A 
ENDBRANCH  11  12
ENDBRANCH   8  11
ENDBRANCH   3   5
BRANCH   2  18
ATOM     18  C   UNL     1       3.033   3.639  18.686  0.00  0.00    +0.000 A 
ATOM     19  C   UNL     1       2.882   2.720  19.749  0.00  0.00    +0.000 A 
ATOM     20  N   UNL     1       4.043   2.239  20.192  0.00  0.00    +0.000 NA
ATOM     21  N   UNL     1       4.938   2.794  19.362  0.00  0.00    +0.000 N 
ATOM     22  C   UNL     1       4.388   3.567  18.365  0.00  0.00    +0.000 A 
ATOM     23  H   UNL     1       5.919   2.584  19.508  0.00  0.00    +0.000 HD
BRANCH  22  24
ATOM     24  C   UNL     1       5.192   4.099  17.257  0.00  0.00    +0.000 A 
ATOM     25  C   UNL     1       6.450   4.668  17.514  0.00  0.00    +0.000 A 
ATOM     26  C   UNL     1       7.295   5.053  16.470  0.00  0.00    +0.000 A 
ATOM     27  C   UNL     1       6.893   4.876  15.150  0.00  0.00    +0.000 A 
ATOM     28  C   UNL     1       5.632   4.351  14.876  0.00  0.00    +0.000 A 
ATOM     29  C   UNL     1       4.782   3.979  15.924  0.00  0.00    +0.000 A 
ENDBRANCH  22  24
ENDBRANCH   2  18
TORSDOF 5
ENDMDL
MODEL 6
REMARK VINA RESULT:      -7.9      1.393      1.828
REMARK  Name = 
REMARK  5 active torsions:
REMARK  status: ('A' for Active; 'I' for Inactive)
REMARK    1  A    between atoms: C_2  and  C_17
REMARK    2  A    between atoms: N_3  and  C_4
REMARK    3  A    between atoms: N_7  and  C_8
REMARK    4  A    between atoms: C_8  and  C_9
REMARK    5  A    between atoms: C_21  and  C_22
REMARK                            x       y       z     vdW  Elec       q    Type
REMARK                         _______ _______ _______ _____ _____    ______ ____
ROOT
ATOM      1  O   UNL     1       1.192   3.739  17.833  0.00  0.00    +0.000 OA
ATOM      2  C   UNL     1       2.146   4.306  18.363  0.00  0.00    +0.000 C 
ATOM      3  N   UNL     1       2.158   5.681  18.331  0.00  0.00    +0.000 N 
ATOM      4  H   UNL     1       1.282   6.003  17.931  0.00  0.00    +0.000 HD
ENDROOT
BRANCH   3   5
ATOM      5  C   UNL     1       3.028   6.729  18.896  0.00  0.00    +0.000 C 
ATOM      6  C   UNL     1       2.359   7.339  20.136  0.00  0.00    +0.000 C 
ATOM      7  C   UNL     1       1.149   8.211  19.753  0.00  0.00    +0.000 C 
ATOM      8  N   UNL     1       1.402   9.208  18.688  0.00  0.00    +0.000 NA
ATOM      9  C   UNL     1       2.118   8.632  17.544  0.00  0.00    +0.000 C 
ATOM     10  C   UNL     1       3.377   7.923  18.006  0.00  0.00    +0.000 C 
BRANCH   8  11
ATOM     11  C   UNL     1       0.113   9.789  18.250  0.00  0.00    +0.000 C 
BRANCH  11  12
ATOM     12  C   UNL     1      -0.214  11.157  18.819  0.00  0.00    +0.000 A 
ATOM     13  C   UNL     1       0.790  12.131  18.935  0.00  0.00    +0.000 A 
ATOM     14  C   UNL     1       0.495  13.403  19.430  0.00  0.00    +0.000 A 
ATOM     15  C   UNL     1      -0.805  13.713  19.824  0.00  0.00    +0.000 A 
ATOM     16  C   UNL     1      -1.807  12.749  19.735  0.00  0.00    +0.000 A 
ATOM     17  C   UNL     1      -1.516  11.476  19.233  0.00  0.00    +0.000 A 
ENDBRANCH  11  12
ENDBRANCH   8  11
ENDBRANCH   3   5
BRANCH   2  18
ATOM     18  C   UNL     1       3.253   3.584  18.947  0.00  0.00    +0.000 A 
ATOM     19  C   UNL     1       3.220   2.645  20.002  0.00  0.00    +0.000 A 
ATOM     20  N   UNL     1       4.429   2.211  20.354  0.00  0.00    +0.000 NA
ATOM     21  N   UNL     1       5.237   2.817  19.472  0.00  0.00    +0.000 N 
ATOM     22  C   UNL     1       4.585   3.578  18.530  0.00  0.00    +0.000 A 
ATOM     23  H   UNL     1       6.234   2.648  19.544  0.00  0.00    +0.000 HD
BRANCH  22  24
ATOM     24  C   UNL     1       5.282   4.160  17.376  0.00  0.00    +0.000 A 
ATOM     25  C   UNL     1       4.965   3.732  16.076  0.00  0.00    +0.000 A 
ATOM     26  C   UNL     1       5.509   4.364  14.956  0.00  0.00    +0.000 A 
ATOM     27  C   UNL     1       6.383   5.435  15.117  0.00  0.00    +0.000 A 
ATOM     28  C   UNL     1       6.740   5.847  16.399  0.00  0.00    +0.000 A 
ATOM     29  C   UNL     1       6.205   5.203  17.521  0.00  0.00    +0.000 A 
ENDBRANCH  22  24
ENDBRANCH   2  18
TORSDOF 5
ENDMDL
MODEL 7
REMARK VINA RESULT:      -7.6      2.404      4.248
REMARK  Name = 
REMARK  5 active torsions:
REMARK  status: ('A' for Active; 'I' for Inactive)
REMARK    1  A    between atoms: C_2  and  C_17
REMARK    2  A    between atoms: N_3  and  C_4
REMARK    3  A    between atoms: N_7  and  C_8
REMARK    4  A    between atoms: C_8  and  C_9
REMARK    5  A    between atoms: C_21  and  C_22
REMARK                            x       y       z     vdW  Elec       q    Type
REMARK                         _______ _______ _______ _____ _____    ______ ____
ROOT
ATOM      1  O   UNL     1       4.644   7.035  16.266  0.00  0.00    +0.000 OA
ATOM      2  C   UNL     1       4.787   5.881  16.668  0.00  0.00    +0.000 C 
ATOM      3  N   UNL     1       3.646   5.180  16.982  0.00  0.00    +0.000 N 
ATOM      4  H   UNL     1       2.840   5.741  16.727  0.00  0.00    +0.000 HD
ENDROOT
BRANCH   3   5
ATOM      5  C   UNL     1       3.356   3.796  17.401  0.00  0.00    +0.000 C 
ATOM      6  C   UNL     1       1.844   3.628  17.609  0.00  0.00    +0.000 C 
ATOM      7  C   UNL     1       1.362   4.368  18.872  0.00  0.00    +0.000 C 
ATOM      8  N   UNL     1       2.144   4.097  20.098  0.00  0.00    +0.000 NA
ATOM      9  C   UNL     1       3.591   4.176  19.866  0.00  0.00    +0.000 C 
ATOM     10  C   UNL     1       3.992   3.295  18.698  0.00  0.00    +0.000 C 
BRANCH   8  11
ATOM     11  C   UNL     1       1.738   5.051  21.154  0.00  0.00    +0.000 C 
BRANCH  11  12
ATOM     12  C   UNL     1       1.585   6.494  20.708  0.00  0.00    +0.000 A 
ATOM     13  C   UNL     1       2.243   6.949  19.555  0.00  0.00    +0.000 A 
ATOM     14  C   UNL     1       2.087   8.266  19.119  0.00  0.00    +0.000 A 
ATOM     15  C   UNL     1       1.279   9.146  19.837  0.00  0.00    +0.000 A 
ATOM     16  C   UNL     1       0.639   8.714  20.996  0.00  0.00    +0.000 A 
ATOM     17  C   UNL     1       0.788   7.393  21.431  0.00  0.00    +0.000 A 
ENDBRANCH  11  12
ENDBRANCH   8  11
ENDBRANCH   3   5
BRANCH   2  18
ATOM     18  C   UNL     1       6.085   5.282  16.871  0.00  0.00    +0.000 A 
ATOM     19  C   UNL     1       6.727   4.991  18.097  0.00  0.00    +0.000 A 
ATOM     20  N   UNL     1       7.956   4.503  17.939  0.00  0.00    +0.000 NA
ATOM     21  N   UNL     1       8.078   4.410  16.607  0.00  0.00    +0.000 N 
ATOM     22  C   UNL     1       6.950   4.766  15.905  0.00  0.00    +0.000 A 
ATOM     23  H   UNL     1       8.954   4.066  16.231  0.00  0.00    +0.000 HD
BRANCH  22  24
ATOM     24  C   UNL     1       6.831   4.551  14.457  0.00  0.00    +0.000 A 
ATOM     25  C   UNL     1       7.694   5.224  13.576  0.00  0.00    +0.000 A 
ATOM     26  C   UNL     1       7.698   4.935  12.209  0.00  0.00    +0.000 A 
ATOM     27  C   UNL     1       6.837   3.968  11.701  0.00  0.00    +0.000 A 
ATOM     28  C   UNL     1       5.947   3.319  12.553  0.00  0.00    +0.000 A 
ATOM     29  C   UNL     1       5.934   3.621  13.920  0.00  0.00    +0.000 A 
ENDBRANCH  22  24
ENDBRANCH   2  18
TORSDOF 5
ENDMDL
MODEL 8
REMARK VINA RESULT:      -7.6      7.603     10.303
REMARK  Name = 
REMARK  5 active torsions:
REMARK  status: ('A' for Active; 'I' for Inactive)
REMARK    1  A    between atoms: C_2  and  C_17
REMARK    2  A    between atoms: N_3  and  C_4
REMARK    3  A    between atoms: N_7  and  C_8
REMARK    4  A    between atoms: C_8  and  C_9
REMARK    5  A    between atoms: C_21  and  C_22
REMARK                            x       y       z     vdW  Elec       q    Type
REMARK                         _______ _______ _______ _____ _____    ______ ____
ROOT
ATOM      1  O   UNL     1      -4.403  11.638  24.570  0.00  0.00    +0.000 OA
ATOM      2  C   UNL     1      -4.214  12.598  23.825  0.00  0.00    +0.000 C 
ATOM      3  N   UNL     1      -5.155  12.831  22.849  0.00  0.00    +0.000 N 
ATOM      4  H   UNL     1      -5.927  12.185  22.983  0.00  0.00    +0.000 HD
ENDROOT
BRANCH   3   5
ATOM      5  C   UNL     1      -5.365  13.879  21.834  0.00  0.00    +0.000 C 
ATOM      6  C   UNL     1      -6.719  13.661  21.142  0.00  0.00    +0.000 C 
ATOM      7  C   UNL     1      -6.689  12.430  20.216  0.00  0.00    +0.000 C 
ATOM      8  N   UNL     1      -5.548  12.378  19.275  0.00  0.00    +0.000 NA
ATOM      9  C   UNL     1      -4.269  12.673  19.931  0.00  0.00    +0.000 C 
ATOM     10  C   UNL     1      -4.351  13.981  20.694  0.00  0.00    +0.000 C 
BRANCH   8  11
ATOM     11  C   UNL     1      -5.506  11.043  18.637  0.00  0.00    +0.000 C 
BRANCH  11  12
ATOM     12  C   UNL     1      -4.410  10.846  17.605  0.00  0.00    +0.000 A 
ATOM     13  C   UNL     1      -3.337   9.981  17.872  0.00  0.00    +0.000 A 
ATOM     14  C   UNL     1      -2.338   9.770  16.920  0.00  0.00    +0.000 A 
ATOM     15  C   UNL     1      -2.395  10.429  15.693  0.00  0.00    +0.000 A 
ATOM     16  C   UNL     1      -3.442  11.307  15.423  0.00  0.00    +0.000 A 
ATOM     17  C   UNL     1      -4.448  11.516  16.373  0.00  0.00    +0.000 A 
ENDBRANCH  11  12
ENDBRANCH   8  11
ENDBRANCH   3   5
BRANCH   2  18
ATOM     18  C   UNL     1      -3.033  13.426  23.907  0.00  0.00    +0.000 A 
ATOM     19  C   UNL     1      -2.829  14.573  24.708  0.00  0.00    +0.000 A 
ATOM     20  N   UNL     1      -1.648  15.153  24.496  0.00  0.00    +0.000 NA
ATOM     21  N   UNL     1      -1.061  14.335  23.611  0.00  0.00    +0.000 N 
ATOM     22  C   UNL     1      -1.799  13.218  23.291  0.00  0.00    +0.000 A 
ATOM     23  H   UNL     1      -0.135  14.577  23.279  0.00  0.00    +0.000 HD
BRANCH  22  24
ATOM     24  C   UNL     1      -1.244  12.120  22.490  0.00  0.00    +0.000 A 
ATOM     25  C   UNL     1      -1.044  10.858  23.074  0.00  0.00    +0.000 A 
ATOM     26  C   UNL     1      -0.652   9.760  22.304  0.00  0.00    +0.000 A 
ATOM     27  C   UNL     1      -0.451   9.908  20.936  0.00  0.00    +0.000 A 
ATOM     28  C   UNL     1      -0.606  11.160  20.346  0.00  0.00    +0.000 A 
ATOM     29  C   UNL     1      -0.985  12.262  21.122  0.00  0.00    +0.000 A 
ENDBRANCH  22  24
ENDBRANCH   2  18
TORSDOF 5
ENDMDL
MODEL 9
REMARK VINA RESULT:      -7.5      2.259      2.749
REMARK  Name = 
REMARK  5 active torsions:
REMARK  status: ('A' for Active; 'I' for Inactive)
REMARK    1  A    between atoms: C_2  and  C_17
REMARK    2  A    between atoms: N_3  and  C_4
REMARK    3  A    between atoms: N_7  and  C_8
REMARK    4  A    between atoms: C_8  and  C_9
REMARK    5  A    between atoms: C_21  and  C_22
REMARK                            x       y       z     vdW  Elec       q    Type
REMARK                         _______ _______ _______ _____ _____    ______ ____
ROOT
ATOM      1  O   UNL     1       5.864   5.311  19.808  0.00  0.00    +0.000 OA
ATOM      2  C   UNL     1       4.711   4.945  19.585  0.00  0.00    +0.000 C 
ATOM      3  N   UNL     1       3.698   5.790  19.975  0.00  0.00    +0.000 N 
ATOM      4  H   UNL     1       4.108   6.653  20.315  0.00  0.00    +0.000 HD
ENDROOT
BRANCH   3   5
ATOM      5  C   UNL     1       2.230   5.791  19.831  0.00  0.00    +0.000 C 
ATOM      6  C   UNL     1       1.858   6.012  18.358  0.00  0.00    +0.000 C 
ATOM      7  C   UNL     1       2.146   7.459  17.913  0.00  0.00    +0.000 C 
ATOM      8  N   UNL     1       1.608   8.511  18.805  0.00  0.00    +0.000 NA
ATOM      9  C   UNL     1       1.896   8.244  20.218  0.00  0.00    +0.000 C 
ATOM     10  C   UNL     1       1.439   6.850  20.601  0.00  0.00    +0.000 C 
BRANCH   8  11
ATOM     11  C   UNL     1       2.167   9.821  18.402  0.00  0.00    +0.000 C 
BRANCH  11  12
ATOM     12  C   UNL     1       1.217  10.999  18.515  0.00  0.00    +0.000 A 
ATOM     13  C   UNL     1       1.722  12.306  18.608  0.00  0.00    +0.000 A 
ATOM     14  C   UNL     1       0.858  13.399  18.682  0.00  0.00    +0.000 A 
ATOM     15  C   UNL     1      -0.522  13.199  18.675  0.00  0.00    +0.000 A 
ATOM     16  C   UNL     1      -1.036  11.906  18.606  0.00  0.00    +0.000 A 
ATOM     17  C   UNL     1      -0.173  10.809  18.524  0.00  0.00    +0.000 A 
ENDBRANCH  11  12
ENDBRANCH   8  11
ENDBRANCH   3   5
BRANCH   2  18
ATOM     18  C   UNL     1       4.401   3.662  18.998  0.00  0.00    +0.000 A 
ATOM     19  C   UNL     1       3.734   2.570  19.599  0.00  0.00    +0.000 A 
ATOM     20  N   UNL     1       3.669   1.500  18.808  0.00  0.00    +0.000 NA
ATOM     21  N   UNL     1       4.230   1.930  17.668  0.00  0.00    +0.000 N 
ATOM     22  C   UNL     1       4.599   3.255  17.679  0.00  0.00    +0.000 A 
ATOM     23  H   UNL     1       4.308   1.275  16.898  0.00  0.00    +0.000 HD
BRANCH  22  24
ATOM     24  C   UNL     1       5.053   3.948  16.467  0.00  0.00    +0.000 A 
ATOM     25  C   UNL     1       4.866   5.335  16.342  0.00  0.00    +0.000 A 
ATOM     26  C   UNL     1       5.411   6.042  15.267  0.00  0.00    +0.000 A 
ATOM     27  C   UNL     1       6.150   5.373  14.297  0.00  0.00    +0.000 A 
ATOM     28  C   UNL     1       6.312   3.992  14.384  0.00  0.00    +0.000 A 
ATOM     29  C   UNL     1       5.754   3.283  15.454  0.00  0.00    +0.000 A 
ENDBRANCH  22  24
ENDBRANCH   2  18
TORSDOF 5
ENDMDL
