MODEL 1
REMARK VINA RESULT:      -7.6      0.000      0.000
REMARK  Name = 
REMARK  2 active torsions:
REMARK  status: ('A' for Active; 'I' for Inactive)
REMARK    1  A    between atoms: C_7  and  N_8
REMARK    2  A    between atoms: C_14  and  C_15
REMARK                            x       y       z     vdW  Elec       q    Type
REMARK                         _______ _______ _______ _____ _____    ______ ____
ROOT
ATOM      1  O   UNL     1       5.199   5.181  19.691  0.00  0.00    +0.000 OA
ATOM      2  C   UNL     1       5.435   4.973  18.520  0.00  0.00    +0.000 C 
ATOM      3  N   UNL     1       6.526   5.449  17.815  0.00  0.00    +0.000 N 
ATOM      4  C   UNL     1       6.502   5.035  16.491  0.00  0.00    +0.000 A 
ATOM      5  C   UNL     1       7.438   5.351  15.526  0.00  0.00    +0.000 A 
ATOM      6  C   UNL     1       7.228   4.850  14.241  0.00  0.00    +0.000 A 
ATOM      7  C   UNL     1       6.091   4.053  13.967  0.00  0.00    +0.000 A 
ATOM      8  C   UNL     1       5.149   3.738  14.966  0.00  0.00    +0.000 A 
ATOM      9  C   UNL     1       5.373   4.242  16.237  0.00  0.00    +0.000 A 
ATOM     10  C   UNL     1       4.647   4.162  17.514  0.00  0.00    +0.000 C 
ATOM     11  C   UNL     1       3.501   3.505  17.758  0.00  0.00    +0.000 C 
ATOM     12  H   UNL     1       7.227   6.032  18.246  0.00  0.00    +0.000 HD
ENDROOT
BRANCH  11  13
ATOM     13  C   UNL     1       2.828   3.520  19.062  0.00  0.00    +0.000 A 
ATOM     14  C   UNL     1       3.159   2.569  20.028  0.00  0.00    +0.000 A 
ATOM     15  C   UNL     1       2.445   2.561  21.215  0.00  0.00    +0.000 A 
ATOM     16  N   UNL     1       1.454   3.431  21.503  0.00  0.00    +0.000 NA
ATOM     17  C   UNL     1       1.151   4.338  20.550  0.00  0.00    +0.000 A 
ATOM     18  C   UNL     1       1.805   4.429  19.331  0.00  0.00    +0.000 A 
ENDBRANCH  11  13
BRANCH   7  19
ATOM     19  N   UNL     1       5.892   3.553  12.598  0.00  0.00    +0.000 N 
ATOM     20  O   UNL     1       6.899   3.308  11.920  0.00  0.00    +0.000 OA
ATOM     21  O   UNL     1       4.725   3.410  12.204  0.00  0.00    +0.000 OA
ENDBRANCH   7  19
TORSDOF 2
ENDMDL
MODEL 2
REMARK VINA RESULT:      -7.6      0.179      1.271
REMARK  Name = 
REMARK  2 active torsions:
REMARK  status: ('A' for Active; 'I' for Inactive)
REMARK    1  A    between atoms: C_7  and  N_8
REMARK    2  A    between atoms: C_14  and  C_15
REMARK                            x       y       z     vdW  Elec       q    Type
REMARK                         _______ _______ _______ _____ _____    ______ ____
ROOT
ATOM      1  O   UNL     1       4.997   5.142  19.557  0.00  0.00    +0.000 OA
ATOM      2  C   UNL     1       5.266   4.933  18.393  0.00  0.00    +0.000 C 
ATOM      3  N   UNL     1       6.347   5.453  17.703  0.00  0.00    +0.000 N 
ATOM      4  C   UNL     1       6.368   5.024  16.384  0.00  0.00    +0.000 A 
ATOM      5  C   UNL     1       7.308   5.374  15.434  0.00  0.00    +0.000 A 
ATOM      6  C   UNL     1       7.147   4.850  14.151  0.00  0.00    +0.000 A 
ATOM      7  C   UNL     1       6.054   3.996  13.864  0.00  0.00    +0.000 A 
ATOM      8  C   UNL     1       5.109   3.648  14.849  0.00  0.00    +0.000 A 
ATOM      9  C   UNL     1       5.284   4.175  16.118  0.00  0.00    +0.000 A 
ATOM     10  C   UNL     1       4.537   4.075  17.382  0.00  0.00    +0.000 C 
ATOM     11  C   UNL     1       3.419   3.367  17.612  0.00  0.00    +0.000 C 
ATOM     12  H   UNL     1       7.011   6.073  18.141  0.00  0.00    +0.000 HD
ENDROOT
BRANCH  11  13
ATOM     13  C   UNL     1       2.721   3.364  18.902  0.00  0.00    +0.000 A 
ATOM     14  C   UNL     1       1.695   4.279  19.142  0.00  0.00    +0.000 A 
ATOM     15  C   UNL     1       1.117   4.304  20.400  0.00  0.00    +0.000 A 
ATOM     16  N   UNL     1       1.475   3.481  21.410  0.00  0.00    +0.000 NA
ATOM     17  C   UNL     1       2.472   2.609  21.153  0.00  0.00    +0.000 A 
ATOM     18  C   UNL     1       3.115   2.506  19.928  0.00  0.00    +0.000 A 
ENDBRANCH  11  13
BRANCH   7  19
ATOM     19  N   UNL     1       5.906   3.473  12.498  0.00  0.00    +0.000 N 
ATOM     20  O   UNL     1       4.761   3.388  12.033  0.00  0.00    +0.000 OA
ATOM     21  O   UNL     1       6.938   3.145  11.895  0.00  0.00    +0.000 OA
ENDBRANCH   7  19
TORSDOF 2
ENDMDL
MODEL 3
REMARK VINA RESULT:      -7.5      4.566      5.492
REMARK  Name = 
REMARK  2 active torsions:
REMARK  status: ('A' for Active; 'I' for Inactive)
REMARK    1  A    between atoms: C_7  and  N_8
REMARK    2  A    between atoms: C_14  and  C_15
REMARK                            x       y       z     vdW  Elec       q    Type
REMARK                         _______ _______ _______ _____ _____    ______ ____
ROOT
ATOM      1  O   UNL     1       1.389   7.920  20.484  0.00  0.00    +0.000 OA
ATOM      2  C   UNL     1       2.199   7.373  19.766  0.00  0.00    +0.000 C 
ATOM      3  N   UNL     1       2.924   6.237  20.078  0.00  0.00    +0.000 N 
ATOM      4  C   UNL     1       3.770   5.867  19.043  0.00  0.00    +0.000 A 
ATOM      5  C   UNL     1       4.632   4.788  19.047  0.00  0.00    +0.000 A 
ATOM      6  C   UNL     1       5.417   4.590  17.912  0.00  0.00    +0.000 A 
ATOM      7  C   UNL     1       5.313   5.478  16.813  0.00  0.00    +0.000 A 
ATOM      8  C   UNL     1       4.424   6.571  16.827  0.00  0.00    +0.000 A 
ATOM      9  C   UNL     1       3.650   6.751  17.961  0.00  0.00    +0.000 A 
ATOM     10  C   UNL     1       2.645   7.745  18.368  0.00  0.00    +0.000 C 
ATOM     11  C   UNL     1       2.199   8.792  17.653  0.00  0.00    +0.000 C 
ATOM     12  H   UNL     1       2.826   5.769  20.966  0.00  0.00    +0.000 HD
ENDROOT
BRANCH  11  13
ATOM     13  C   UNL     1       1.220   9.757  18.165  0.00  0.00    +0.000 A 
ATOM     14  C   UNL     1      -0.143   9.547  17.951  0.00  0.00    +0.000 A 
ATOM     15  C   UNL     1      -1.032  10.520  18.374  0.00  0.00    +0.000 A 
ATOM     16  N   UNL     1      -0.662  11.658  19.000  0.00  0.00    +0.000 NA
ATOM     17  C   UNL     1       0.663  11.839  19.191  0.00  0.00    +0.000 A 
ATOM     18  C   UNL     1       1.632  10.925  18.805  0.00  0.00    +0.000 A 
ENDBRANCH  11  13
BRANCH   7  19
ATOM     19  N   UNL     1       6.166   5.249  15.637  0.00  0.00    +0.000 N 
ATOM     20  O   UNL     1       7.311   5.723  15.653  0.00  0.00    +0.000 OA
ATOM     21  O   UNL     1       5.685   4.599  14.698  0.00  0.00    +0.000 OA
ENDBRANCH   7  19
TORSDOF 2
ENDMDL
MODEL 4
REMARK VINA RESULT:      -7.4      4.548      5.491
REMARK  Name = 
REMARK  2 active torsions:
REMARK  status: ('A' for Active; 'I' for Inactive)
REMARK    1  A    between atoms: C_7  and  N_8
REMARK    2  A    between atoms: C_14  and  C_15
REMARK                            x       y       z     vdW  Elec       q    Type
REMARK                         _______ _______ _______ _____ _____    ______ ____
ROOT
ATOM      1  O   UNL     1       1.357   7.929  20.479  0.00  0.00    +0.000 OA
ATOM      2  C   UNL     1       2.175   7.395  19.760  0.00  0.00    +0.000 C 
ATOM      3  N   UNL     1       2.906   6.261  20.064  0.00  0.00    +0.000 N 
ATOM      4  C   UNL     1       3.760   5.908  19.029  0.00  0.00    +0.000 A 
ATOM      5  C   UNL     1       4.630   4.835  19.027  0.00  0.00    +0.000 A 
ATOM      6  C   UNL     1       5.422   4.656  17.893  0.00  0.00    +0.000 A 
ATOM      7  C   UNL     1       5.318   5.554  16.804  0.00  0.00    +0.000 A 
ATOM      8  C   UNL     1       4.421   6.641  16.824  0.00  0.00    +0.000 A 
ATOM      9  C   UNL     1       3.639   6.804  17.956  0.00  0.00    +0.000 A 
ATOM     10  C   UNL     1       2.625   7.786  18.368  0.00  0.00    +0.000 C 
ATOM     11  C   UNL     1       2.176   8.837  17.662  0.00  0.00    +0.000 C 
ATOM     12  H   UNL     1       2.806   5.783  20.946  0.00  0.00    +0.000 HD
ENDROOT
BRANCH  11  13
ATOM     13  C   UNL     1       1.187   9.789  18.180  0.00  0.00    +0.000 A 
ATOM     14  C   UNL     1       1.604  10.892  18.925  0.00  0.00    +0.000 A 
ATOM     15  C   UNL     1       0.639  11.722  19.469  0.00  0.00    +0.000 A 
ATOM     16  N   UNL     1      -0.689  11.538  19.309  0.00  0.00    +0.000 NA
ATOM     17  C   UNL     1      -1.067  10.461  18.588  0.00  0.00    +0.000 A 
ATOM     18  C   UNL     1      -0.179   9.571  18.003  0.00  0.00    +0.000 A 
ENDBRANCH  11  13
BRANCH   7  19
ATOM     19  N   UNL     1       6.178   5.345  15.630  0.00  0.00    +0.000 N 
ATOM     20  O   UNL     1       5.688   4.769  14.649  0.00  0.00    +0.000 OA
ATOM     21  O   UNL     1       7.346   5.756  15.695  0.00  0.00    +0.000 OA
ENDBRANCH   7  19
TORSDOF 2
ENDMDL
MODEL 5
REMARK VINA RESULT:      -7.3      5.045      8.377
REMARK  Name = 
REMARK  2 active torsions:
REMARK  status: ('A' for Active; 'I' for Inactive)
REMARK    1  A    between atoms: C_7  and  N_8
REMARK    2  A    between atoms: C_14  and  C_15
REMARK                            x       y       z     vdW  Elec       q    Type
REMARK                         _______ _______ _______ _____ _____    ______ ____
ROOT
ATOM      1  O   UNL     1       2.978   7.879  16.974  0.00  0.00    +0.000 OA
ATOM      2  C   UNL     1       2.387   8.371  17.912  0.00  0.00    +0.000 C 
ATOM      3  N   UNL     1       1.849   9.645  17.955  0.00  0.00    +0.000 N 
ATOM      4  C   UNL     1       1.241   9.904  19.175  0.00  0.00    +0.000 A 
ATOM      5  C   UNL     1       0.624  11.085  19.538  0.00  0.00    +0.000 A 
ATOM      6  C   UNL     1       0.083  11.157  20.821  0.00  0.00    +0.000 A 
ATOM      7  C   UNL     1       0.179  10.048  21.696  0.00  0.00    +0.000 A 
ATOM      8  C   UNL     1       0.809   8.850  21.305  0.00  0.00    +0.000 A 
ATOM      9  C   UNL     1       1.339   8.794  20.027  0.00  0.00    +0.000 A 
ATOM     10  C   UNL     1       2.067   7.768  19.263  0.00  0.00    +0.000 C 
ATOM     11  C   UNL     1       2.398   6.532  19.671  0.00  0.00    +0.000 C 
ATOM     12  H   UNL     1       1.920  10.281  17.176  0.00  0.00    +0.000 HD
ENDROOT
BRANCH  11  13
ATOM     13  C   UNL     1       3.165   5.592  18.847  0.00  0.00    +0.000 A 
ATOM     14  C   UNL     1       2.502   4.723  17.980  0.00  0.00    +0.000 A 
ATOM     15  C   UNL     1       3.253   3.792  17.281  0.00  0.00    +0.000 A 
ATOM     16  N   UNL     1       4.596   3.685  17.374  0.00  0.00    +0.000 NA
ATOM     17  C   UNL     1       5.212   4.535  18.222  0.00  0.00    +0.000 A 
ATOM     18  C   UNL     1       4.552   5.500  18.966  0.00  0.00    +0.000 A 
ENDBRANCH  11  13
BRANCH   7  19
ATOM     19  N   UNL     1      -0.389  10.163  23.048  0.00  0.00    +0.000 N 
ATOM     20  O   UNL     1      -1.456  10.777  23.176  0.00  0.00    +0.000 OA
ATOM     21  O   UNL     1       0.239   9.639  23.979  0.00  0.00    +0.000 OA
ENDBRANCH   7  19
TORSDOF 2
ENDMDL
MODEL 6
REMARK VINA RESULT:      -7.2      2.225      6.867
REMARK  Name = 
REMARK  2 active torsions:
REMARK  status: ('A' for Active; 'I' for Inactive)
REMARK    1  A    between atoms: C_7  and  N_8
REMARK    2  A    between atoms: C_14  and  C_15
REMARK                            x       y       z     vdW  Elec       q    Type
REMARK                         _______ _______ _______ _____ _____    ______ ____
ROOT
ATOM      1  O   UNL     1       5.187   6.887  15.261  0.00  0.00    +0.000 OA
ATOM      2  C   UNL     1       4.752   6.308  16.234  0.00  0.00    +0.000 C 
ATOM      3  N   UNL     1       4.076   6.892  17.291  0.00  0.00    +0.000 N 
ATOM      4  C   UNL     1       3.715   5.955  18.249  0.00  0.00    +0.000 A 
ATOM      5  C   UNL     1       3.042   6.218  19.426  0.00  0.00    +0.000 A 
ATOM      6  C   UNL     1       2.784   5.140  20.271  0.00  0.00    +0.000 A 
ATOM      7  C   UNL     1       3.206   3.837  19.910  0.00  0.00    +0.000 A 
ATOM      8  C   UNL     1       3.888   3.589  18.702  0.00  0.00    +0.000 A 
ATOM      9  C   UNL     1       4.135   4.671  17.873  0.00  0.00    +0.000 A 
ATOM     10  C   UNL     1       4.808   4.834  16.575  0.00  0.00    +0.000 C 
ATOM     11  C   UNL     1       5.375   3.875  15.826  0.00  0.00    +0.000 C 
ATOM     12  H   UNL     1       3.896   7.883  17.326  0.00  0.00    +0.000 HD
ENDROOT
BRANCH  11  13
ATOM     13  C   UNL     1       6.063   4.146  14.559  0.00  0.00    +0.000 A 
ATOM     14  C   UNL     1       5.575   3.603  13.370  0.00  0.00    +0.000 A 
ATOM     15  C   UNL     1       6.297   3.810  12.207  0.00  0.00    +0.000 A 
ATOM     16  N   UNL     1       7.443   4.522  12.149  0.00  0.00    +0.000 NA
ATOM     17  C   UNL     1       7.897   5.032  13.314  0.00  0.00    +0.000 A 
ATOM     18  C   UNL     1       7.248   4.881  14.530  0.00  0.00    +0.000 A 
ENDBRANCH  11  13
BRANCH   7  19
ATOM     19  N   UNL     1       2.931   2.725  20.831  0.00  0.00    +0.000 N 
ATOM     20  O   UNL     1       1.747   2.444  21.060  0.00  0.00    +0.000 OA
ATOM     21  O   UNL     1       3.903   2.136  21.326  0.00  0.00    +0.000 OA
ENDBRANCH   7  19
TORSDOF 2
ENDMDL
MODEL 7
REMARK VINA RESULT:      -7.1      4.964      8.297
REMARK  Name = 
REMARK  2 active torsions:
REMARK  status: ('A' for Active; 'I' for Inactive)
REMARK    1  A    between atoms: C_7  and  N_8
REMARK    2  A    between atoms: C_14  and  C_15
REMARK                            x       y       z     vdW  Elec       q    Type
REMARK                         _______ _______ _______ _____ _____    ______ ____
ROOT
ATOM      1  O   UNL     1       3.074   7.686  17.077  0.00  0.00    +0.000 OA
ATOM      2  C   UNL     1       2.479   8.206  17.998  0.00  0.00    +0.000 C 
ATOM      3  N   UNL     1       1.956   9.487  18.007  0.00  0.00    +0.000 N 
ATOM      4  C   UNL     1       1.338   9.780  19.214  0.00  0.00    +0.000 A 
ATOM      5  C   UNL     1       0.731  10.976  19.543  0.00  0.00    +0.000 A 
ATOM      6  C   UNL     1       0.177  11.083  20.819  0.00  0.00    +0.000 A 
ATOM      7  C   UNL     1       0.250   9.993  21.719  0.00  0.00    +0.000 A 
ATOM      8  C   UNL     1       0.870   8.779  21.362  0.00  0.00    +0.000 A 
ATOM      9  C   UNL     1       1.413   8.688  20.091  0.00  0.00    +0.000 A 
ATOM     10  C   UNL     1       2.136   7.637  19.358  0.00  0.00    +0.000 C 
ATOM     11  C   UNL     1       2.447   6.406  19.797  0.00  0.00    +0.000 C 
ATOM     12  H   UNL     1       2.043  10.103  17.214  0.00  0.00    +0.000 HD
ENDROOT
BRANCH  11  13
ATOM     13  C   UNL     1       3.213   5.439  19.002  0.00  0.00    +0.000 A 
ATOM     14  C   UNL     1       4.605   5.411  19.090  0.00  0.00    +0.000 A 
ATOM     15  C   UNL     1       5.298   4.543  18.263  0.00  0.00    +0.000 A 
ATOM     16  N   UNL     1       4.707   3.707  17.383  0.00  0.00    +0.000 NA
ATOM     17  C   UNL     1       3.359   3.757  17.315  0.00  0.00    +0.000 A 
ATOM     18  C   UNL     1       2.575   4.590  18.099  0.00  0.00    +0.000 A 
ENDBRANCH  11  13
BRANCH   7  19
ATOM     19  N   UNL     1      -0.330  10.144  23.061  0.00  0.00    +0.000 N 
ATOM     20  O   UNL     1      -1.405  10.753  23.161  0.00  0.00    +0.000 OA
ATOM     21  O   UNL     1       0.294   9.656  24.014  0.00  0.00    +0.000 OA
ENDBRANCH   7  19
TORSDOF 2
ENDMDL
MODEL 8
REMARK VINA RESULT:      -7.1      1.563      1.952
REMARK  Name = 
REMARK  2 active torsions:
REMARK  status: ('A' for Active; 'I' for Inactive)
REMARK    1  A    between atoms: C_7  and  N_8
REMARK    2  A    between atoms: C_14  and  C_15
REMARK                            x       y       z     vdW  Elec       q    Type
REMARK                         _______ _______ _______ _____ _____    ______ ____
ROOT
ATOM      1  O   UNL     1       5.980   6.221  17.848  0.00  0.00    +0.000 OA
ATOM      2  C   UNL     1       6.023   5.664  16.772  0.00  0.00    +0.000 C 
ATOM      3  N   UNL     1       7.025   5.800  15.827  0.00  0.00    +0.000 N 
ATOM      4  C   UNL     1       6.775   5.031  14.700  0.00  0.00    +0.000 A 
ATOM      5  C   UNL     1       7.574   4.957  13.576  0.00  0.00    +0.000 A 
ATOM      6  C   UNL     1       7.142   4.135  12.535  0.00  0.00    +0.000 A 
ATOM      7  C   UNL     1       5.927   3.418  12.654  0.00  0.00    +0.000 A 
ATOM      8  C   UNL     1       5.127   3.504  13.811  0.00  0.00    +0.000 A 
ATOM      9  C   UNL     1       5.572   4.322  14.837  0.00  0.00    +0.000 A 
ATOM     10  C   UNL     1       5.042   4.687  16.159  0.00  0.00    +0.000 C 
ATOM     11  C   UNL     1       3.905   4.253  16.728  0.00  0.00    +0.000 C 
ATOM     12  H   UNL     1       7.819   6.403  15.975  0.00  0.00    +0.000 HD
ENDROOT
BRANCH  11  13
ATOM     13  C   UNL     1       3.439   4.711  18.042  0.00  0.00    +0.000 A 
ATOM     14  C   UNL     1       3.651   3.920  19.171  0.00  0.00    +0.000 A 
ATOM     15  C   UNL     1       3.123   4.344  20.380  0.00  0.00    +0.000 A 
ATOM     16  N   UNL     1       2.425   5.489  20.536  0.00  0.00    +0.000 NA
ATOM     17  C   UNL     1       2.229   6.234  19.427  0.00  0.00    +0.000 A 
ATOM     18  C   UNL     1       2.716   5.897  18.173  0.00  0.00    +0.000 A 
ENDBRANCH  11  13
BRANCH   7  19
ATOM     19  N   UNL     1       5.493   2.573  11.532  0.00  0.00    +0.000 N 
ATOM     20  O   UNL     1       4.363   2.769  11.065  0.00  0.00    +0.000 OA
ATOM     21  O   UNL     1       6.285   1.711  11.124  0.00  0.00    +0.000 OA
ENDBRANCH   7  19
TORSDOF 2
ENDMDL
MODEL 9
REMARK VINA RESULT:      -7.1      2.211      6.829
REMARK  Name = 
REMARK  2 active torsions:
REMARK  status: ('A' for Active; 'I' for Inactive)
REMARK    1  A    between atoms: C_7  and  N_8
REMARK    2  A    between atoms: C_14  and  C_15
REMARK                            x       y       z     vdW  Elec       q    Type
REMARK                         _______ _______ _______ _____ _____    ______ ____
ROOT
ATOM      1  O   UNL     1       5.208   6.819  15.198  0.00  0.00    +0.000 OA
ATOM      2  C   UNL     1       4.750   6.283  16.185  0.00  0.00    +0.000 C 
ATOM      3  N   UNL     1       4.039   6.909  17.193  0.00  0.00    +0.000 N 
ATOM      4  C   UNL     1       3.657   6.015  18.184  0.00  0.00    +0.000 A 
ATOM      5  C   UNL     1       2.949   6.328  19.327  0.00  0.00    +0.000 A 
ATOM      6  C   UNL     1       2.675   5.288  20.215  0.00  0.00    +0.000 A 
ATOM      7  C   UNL     1       3.119   3.973  19.929  0.00  0.00    +0.000 A 
ATOM      8  C   UNL     1       3.836   3.675  18.754  0.00  0.00    +0.000 A 
ATOM      9  C   UNL     1       4.098   4.719  17.881  0.00  0.00    +0.000 A 
ATOM     10  C   UNL     1       4.808   4.827  16.597  0.00  0.00    +0.000 C 
ATOM     11  C   UNL     1       5.403   3.838  15.910  0.00  0.00    +0.000 C 
ATOM     12  H   UNL     1       3.850   7.899  17.176  0.00  0.00    +0.000 HD
ENDROOT
BRANCH  11  13
ATOM     13  C   UNL     1       6.126   4.056  14.652  0.00  0.00    +0.000 A 
ATOM     14  C   UNL     1       7.288   4.828  14.640  0.00  0.00    +0.000 A 
ATOM     15  C   UNL     1       7.896   5.082  13.422  0.00  0.00    +0.000 A 
ATOM     16  N   UNL     1       7.440   4.614  12.240  0.00  0.00    +0.000 NA
ATOM     17  C   UNL     1       6.311   3.873  12.279  0.00  0.00    +0.000 A 
ATOM     18  C   UNL     1       5.629   3.563  13.446  0.00  0.00    +0.000 A 
ENDBRANCH  11  13
BRANCH   7  19
ATOM     19  N   UNL     1       2.826   2.903  20.893  0.00  0.00    +0.000 N 
ATOM     20  O   UNL     1       3.774   2.220  21.304  0.00  0.00    +0.000 OA
ATOM     21  O   UNL     1       1.645   2.747  21.235  0.00  0.00    +0.000 OA
ENDBRANCH   7  19
TORSDOF 2
ENDMDL
