MODEL 1
REMARK VINA RESULT:      -7.8      0.000      0.000
REMARK  Name = 
REMARK  14 active torsions:
REMARK  status: ('A' for Active; 'I' for Inactive)
REMARK    1  A    between atoms: C_1  and  C_2
REMARK    2  A    between atoms: C_2  and  N_3
REMARK    3  A    between atoms: N_3  and  C_4
REMARK    4  A    between atoms: N_3  and  C_25
REMARK    5  A    between atoms: C_4  and  C_5
REMARK    6  A    between atoms: C_5  and  C_6
REMARK    7  A    between atoms: C_6  and  N_7
REMARK    8  A    between atoms: C_8  and  C_10
REMARK    9  A    between atoms: C_10  and  C_11
REMARK   10  A    between atoms: C_11  and  C_12
REMARK   11  A    between atoms: C_14  and  C_15
REMARK   12  A    between atoms: C_18  and  O_19
REMARK   13  A    between atoms: O_19  and  C_20
REMARK   14  A    between atoms: C_29  and  C_30
REMARK                            x       y       z     vdW  Elec       q    Type
REMARK                         _______ _______ _______ _____ _____    ______ ____
ROOT
ATOM      1  N   UNL     1       2.660   3.153  18.471  0.00  0.00    +0.000 N 
ATOM      2  C   UNL     1       1.584   2.506  19.035  0.00  0.00    +0.000 C 
ATOM      3  O   UNL     1       0.502   2.376  18.462  0.00  0.00    +0.000 OA
ATOM      4  H   UNL     1       3.520   3.239  18.997  0.00  0.00    +0.000 HD
ENDROOT
BRANCH   1   5
ATOM      5  C   UNL     1       2.596   3.719  17.133  0.00  0.00    +0.000 C 
BRANCH   5   6
ATOM      6  C   UNL     1       3.827   4.564  16.771  0.00  0.00    +0.000 C 
BRANCH   6   7
ATOM      7  C   UNL     1       5.081   3.711  16.540  0.00  0.00    +0.000 C 
BRANCH   7   8
ATOM      8  N   UNL     1       6.252   4.493  16.093  0.00  0.00    +0.000 N 
BRANCH   8   9
ATOM      9  C   UNL     1       6.907   5.274  17.066  0.00  0.00    +0.000 A 
ATOM     10  C   UNL     1       7.425   4.691  18.232  0.00  0.00    +0.000 A 
ATOM     11  C   UNL     1       8.098   5.450  19.195  0.00  0.00    +0.000 A 
ATOM     12  C   UNL     1       8.266   6.822  19.020  0.00  0.00    +0.000 A 
ATOM     13  C   UNL     1       7.764   7.441  17.876  0.00  0.00    +0.000 A 
ATOM     14  C   UNL     1       7.916   8.918  17.660  0.00  0.00    +0.000 C 
ATOM     15  C   UNL     1       7.097   6.661  16.917  0.00  0.00    +0.000 A 
ENDBRANCH   8   9
BRANCH   8  17
ATOM     16  C   UNL     1       6.242   3.854  13.636  0.00  0.00    +0.000 C 
ATOM     17  C   UNL     1       6.425   4.923  14.698  0.00  0.00    +0.000 C 
ENDBRANCH   8  17
ENDBRANCH   7   8
ENDBRANCH   6   7
ENDBRANCH   5   6
ENDBRANCH   1   5
BRANCH   2  18
ATOM     18  C   UNL     1       1.830   1.989  20.439  0.00  0.00    +0.000 C 
BRANCH  18  19
ATOM     19  C   UNL     1       1.565   3.111  21.438  0.00  0.00    +0.000 C 
BRANCH  19  20
ATOM     20  C   UNL     1       1.967   4.443  20.939  0.00  0.00    +0.000 A 
ATOM     21  N   UNL     1       1.257   5.527  20.725  0.00  0.00    +0.000 NA
ATOM     22  C   UNL     1       2.187   6.387  20.170  0.00  0.00    +0.000 A 
ATOM     23  N   UNL     1       3.417   5.860  20.064  0.00  0.00    +0.000 NA
ATOM     24  O   UNL     1       3.273   4.572  20.568  0.00  0.00    +0.000 OA
BRANCH  22  25
ATOM     25  C   UNL     1       1.842   7.732  19.722  0.00  0.00    +0.000 A 
ATOM     26  C   UNL     1       2.154   8.149  18.423  0.00  0.00    +0.000 A 
ATOM     27  C   UNL     1       1.844   9.443  18.000  0.00  0.00    +0.000 A 
ATOM     28  C   UNL     1       1.205  10.339  18.860  0.00  0.00    +0.000 A 
ATOM     29  C   UNL     1       0.901   9.939  20.159  0.00  0.00    +0.000 A 
ATOM     30  C   UNL     1       1.218   8.644  20.588  0.00  0.00    +0.000 A 
BRANCH  28  31
ATOM     31  O   UNL     1       0.971  11.581  18.339  0.00  0.00    +0.000 OA
ATOM     32  C   UNL     1       1.588  12.663  19.027  0.00  0.00    +0.000 C 
ENDBRANCH  28  31
ENDBRANCH  22  25
ENDBRANCH  19  20
ENDBRANCH  18  19
ENDBRANCH   2  18
TORSDOF 11
ENDMDL
MODEL 2
REMARK VINA RESULT:      -7.6      3.478      7.005
REMARK  Name = 
REMARK  14 active torsions:
REMARK  status: ('A' for Active; 'I' for Inactive)
REMARK    1  A    between atoms: C_1  and  C_2
REMARK    2  A    between atoms: C_2  and  N_3
REMARK    3  A    between atoms: N_3  and  C_4
REMARK    4  A    between atoms: N_3  and  C_25
REMARK    5  A    between atoms: C_4  and  C_5
REMARK    6  A    between atoms: C_5  and  C_6
REMARK    7  A    between atoms: C_6  and  N_7
REMARK    8  A    between atoms: C_8  and  C_10
REMARK    9  A    between atoms: C_10  and  C_11
REMARK   10  A    between atoms: C_11  and  C_12
REMARK   11  A    between atoms: C_14  and  C_15
REMARK   12  A    between atoms: C_18  and  O_19
REMARK   13  A    between atoms: O_19  and  C_20
REMARK   14  A    between atoms: C_29  and  C_30
REMARK                            x       y       z     vdW  Elec       q    Type
REMARK                         _______ _______ _______ _____ _____    ______ ____
ROOT
ATOM      1  N   UNL     1       5.582   3.886  18.591  0.00  0.00    +0.000 N 
ATOM      2  C   UNL     1       6.205   4.147  17.392  0.00  0.00    +0.000 C 
ATOM      3  O   UNL     1       5.650   4.007  16.302  0.00  0.00    +0.000 OA
ATOM      4  H   UNL     1       6.094   4.009  19.455  0.00  0.00    +0.000 HD
ENDROOT
BRANCH   1   5
ATOM      5  C   UNL     1       4.200   3.437  18.653  0.00  0.00    +0.000 C 
BRANCH   5   6
ATOM      6  C   UNL     1       3.279   4.410  19.406  0.00  0.00    +0.000 C 
BRANCH   6   7
ATOM      7  C   UNL     1       2.591   5.413  18.472  0.00  0.00    +0.000 C 
BRANCH   7   8
ATOM      8  N   UNL     1       3.129   6.785  18.580  0.00  0.00    +0.000 N 
BRANCH   8   9
ATOM      9  C   UNL     1       2.219   7.801  18.932  0.00  0.00    +0.000 A 
ATOM     10  C   UNL     1       1.718   8.687  17.966  0.00  0.00    +0.000 A 
ATOM     11  C   UNL     1       0.797   9.687  18.296  0.00  0.00    +0.000 A 
ATOM     12  C   UNL     1       0.354   9.832  19.609  0.00  0.00    +0.000 A 
ATOM     13  C   UNL     1       0.829   8.973  20.600  0.00  0.00    +0.000 A 
ATOM     14  C   UNL     1       0.383   9.107  22.025  0.00  0.00    +0.000 C 
ATOM     15  C   UNL     1       1.748   7.972  20.248  0.00  0.00    +0.000 A 
ENDBRANCH   8   9
BRANCH   8  17
ATOM     16  C   UNL     1       4.318   7.011  16.349  0.00  0.00    +0.000 C 
ATOM     17  C   UNL     1       4.331   7.219  17.852  0.00  0.00    +0.000 C 
ENDBRANCH   8  17
ENDBRANCH   7   8
ENDBRANCH   6   7
ENDBRANCH   5   6
ENDBRANCH   1   5
BRANCH   2  18
ATOM     18  C   UNL     1       7.647   4.597  17.520  0.00  0.00    +0.000 C 
BRANCH  18  19
ATOM     19  C   UNL     1       7.782   5.499  18.743  0.00  0.00    +0.000 C 
BRANCH  19  20
ATOM     20  C   UNL     1       8.051   6.912  18.399  0.00  0.00    +0.000 A 
ATOM     21  N   UNL     1       8.633   7.865  19.089  0.00  0.00    +0.000 NA
ATOM     22  C   UNL     1       8.484   8.963  18.264  0.00  0.00    +0.000 A 
ATOM     23  N   UNL     1       7.854   8.693  17.110  0.00  0.00    +0.000 NA
ATOM     24  O   UNL     1       7.562   7.336  17.199  0.00  0.00    +0.000 OA
BRANCH  22  25
ATOM     25  C   UNL     1       8.952  10.294  18.637  0.00  0.00    +0.000 A 
ATOM     26  C   UNL     1       9.681  10.486  19.816  0.00  0.00    +0.000 A 
ATOM     27  C   UNL     1      10.110  11.762  20.186  0.00  0.00    +0.000 A 
ATOM     28  C   UNL     1       9.831  12.868  19.379  0.00  0.00    +0.000 A 
ATOM     29  C   UNL     1       9.095  12.691  18.210  0.00  0.00    +0.000 A 
ATOM     30  C   UNL     1       8.658  11.413  17.841  0.00  0.00    +0.000 A 
BRANCH  28  31
ATOM     31  O   UNL     1      10.287  14.066  19.855  0.00  0.00    +0.000 OA
ATOM     32  C   UNL     1      11.516  14.519  19.300  0.00  0.00    +0.000 C 
ENDBRANCH  28  31
ENDBRANCH  22  25
ENDBRANCH  19  20
ENDBRANCH  18  19
ENDBRANCH   2  18
TORSDOF 11
ENDMDL
MODEL 3
REMARK VINA RESULT:      -7.2      3.386      8.973
REMARK  Name = 
REMARK  14 active torsions:
REMARK  status: ('A' for Active; 'I' for Inactive)
REMARK    1  A    between atoms: C_1  and  C_2
REMARK    2  A    between atoms: C_2  and  N_3
REMARK    3  A    between atoms: N_3  and  C_4
REMARK    4  A    between atoms: N_3  and  C_25
REMARK    5  A    between atoms: C_4  and  C_5
REMARK    6  A    between atoms: C_5  and  C_6
REMARK    7  A    between atoms: C_6  and  N_7
REMARK    8  A    between atoms: C_8  and  C_10
REMARK    9  A    between atoms: C_10  and  C_11
REMARK   10  A    between atoms: C_11  and  C_12
REMARK   11  A    between atoms: C_14  and  C_15
REMARK   12  A    between atoms: C_18  and  O_19
REMARK   13  A    between atoms: O_19  and  C_20
REMARK   14  A    between atoms: C_29  and  C_30
REMARK                            x       y       z     vdW  Elec       q    Type
REMARK                         _______ _______ _______ _____ _____    ______ ____
ROOT
ATOM      1  N   UNL     1      -0.999  10.609  22.197  0.00  0.00    +0.000 N 
ATOM      2  C   UNL     1      -0.220   9.612  22.739  0.00  0.00    +0.000 C 
ATOM      3  O   UNL     1       0.279   9.687  23.862  0.00  0.00    +0.000 OA
ATOM      4  H   UNL     1      -1.374  10.495  21.264  0.00  0.00    +0.000 HD
ENDROOT
BRANCH   1   5
ATOM      5  C   UNL     1      -1.304  11.826  22.931  0.00  0.00    +0.000 C 
BRANCH   5   6
ATOM      6  C   UNL     1      -0.757  13.095  22.258  0.00  0.00    +0.000 C 
BRANCH   6   7
ATOM      7  C   UNL     1      -1.751  13.714  21.268  0.00  0.00    +0.000 C 
BRANCH   7   8
ATOM      8  N   UNL     1      -1.249  13.760  19.880  0.00  0.00    +0.000 N 
BRANCH   8   9
ATOM      9  C   UNL     1      -1.124  12.529  19.205  0.00  0.00    +0.000 A 
ATOM     10  C   UNL     1       0.136  11.965  18.960  0.00  0.00    +0.000 A 
ATOM     11  C   UNL     1       0.275  10.733  18.311  0.00  0.00    +0.000 A 
ATOM     12  C   UNL     1      -0.850  10.032  17.882  0.00  0.00    +0.000 A 
ATOM     13  C   UNL     1      -2.122  10.560  18.103  0.00  0.00    +0.000 A 
ATOM     14  C   UNL     1      -3.354   9.838  17.645  0.00  0.00    +0.000 C 
ATOM     15  C   UNL     1      -2.241  11.794  18.762  0.00  0.00    +0.000 A 
ENDBRANCH   8   9
BRANCH   8  17
ATOM     16  C   UNL     1      -0.315  16.089  20.264  0.00  0.00    +0.000 C 
ATOM     17  C   UNL     1      -0.401  14.855  19.385  0.00  0.00    +0.000 C 
ENDBRANCH   8  17
ENDBRANCH   7   8
ENDBRANCH   6   7
ENDBRANCH   5   6
ENDBRANCH   1   5
BRANCH   2  18
ATOM     18  C   UNL     1      -0.002   8.421  21.827  0.00  0.00    +0.000 C 
BRANCH  18  19
ATOM     19  C   UNL     1       1.069   8.770  20.799  0.00  0.00    +0.000 C 
BRANCH  19  20
ATOM     20  C   UNL     1       1.790   7.587  20.282  0.00  0.00    +0.000 A 
ATOM     21  N   UNL     1       2.610   7.461  19.265  0.00  0.00    +0.000 NA
ATOM     22  C   UNL     1       2.859   6.102  19.250  0.00  0.00    +0.000 A 
ATOM     23  N   UNL     1       2.232   5.425  20.225  0.00  0.00    +0.000 NA
ATOM     24  O   UNL     1       1.520   6.405  20.907  0.00  0.00    +0.000 OA
BRANCH  22  25
ATOM     25  C   UNL     1       3.707   5.470  18.244  0.00  0.00    +0.000 A 
ATOM     26  C   UNL     1       4.851   6.122  17.770  0.00  0.00    +0.000 A 
ATOM     27  C   UNL     1       5.651   5.529  16.791  0.00  0.00    +0.000 A 
ATOM     28  C   UNL     1       5.331   4.269  16.278  0.00  0.00    +0.000 A 
ATOM     29  C   UNL     1       4.188   3.618  16.734  0.00  0.00    +0.000 A 
ATOM     30  C   UNL     1       3.380   4.213  17.710  0.00  0.00    +0.000 A 
BRANCH  28  31
ATOM     31  O   UNL     1       6.179   3.801  15.313  0.00  0.00    +0.000 OA
ATOM     32  C   UNL     1       5.794   4.079  13.971  0.00  0.00    +0.000 C 
ENDBRANCH  28  31
ENDBRANCH  22  25
ENDBRANCH  19  20
ENDBRANCH  18  19
ENDBRANCH   2  18
TORSDOF 11
ENDMDL
MODEL 4
REMARK VINA RESULT:      -7.1      4.523      6.573
REMARK  Name = 
REMARK  14 active torsions:
REMARK  status: ('A' for Active; 'I' for Inactive)
REMARK    1  A    between atoms: C_1  and  C_2
REMARK    2  A    between atoms: C_2  and  N_3
REMARK    3  A    between atoms: N_3  and  C_4
REMARK    4  A    between atoms: N_3  and  C_25
REMARK    5  A    between atoms: C_4  and  C_5
REMARK    6  A    between atoms: C_5  and  C_6
REMARK    7  A    between atoms: C_6  and  N_7
REMARK    8  A    between atoms: C_8  and  C_10
REMARK    9  A    between atoms: C_10  and  C_11
REMARK   10  A    between atoms: C_11  and  C_12
REMARK   11  A    between atoms: C_14  and  C_15
REMARK   12  A    between atoms: C_18  and  O_19
REMARK   13  A    between atoms: O_19  and  C_20
REMARK   14  A    between atoms: C_29  and  C_30
REMARK                            x       y       z     vdW  Elec       q    Type
REMARK                         _______ _______ _______ _____ _____    ______ ____
ROOT
ATOM      1  N   UNL     1       1.953   8.152  18.442  0.00  0.00    +0.000 N 
ATOM      2  C   UNL     1       1.320   8.903  19.406  0.00  0.00    +0.000 C 
ATOM      3  O   UNL     1       1.460   8.703  20.613  0.00  0.00    +0.000 OA
ATOM      4  H   UNL     1       1.789   8.357  17.465  0.00  0.00    +0.000 HD
ENDROOT
BRANCH   1   5
ATOM      5  C   UNL     1       2.857   7.068  18.790  0.00  0.00    +0.000 C 
BRANCH   5   6
ATOM      6  C   UNL     1       2.134   5.743  19.080  0.00  0.00    +0.000 C 
BRANCH   6   7
ATOM      7  C   UNL     1       2.327   4.709  17.964  0.00  0.00    +0.000 C 
BRANCH   7   8
ATOM      8  N   UNL     1       3.433   3.764  18.220  0.00  0.00    +0.000 N 
BRANCH   8   9
ATOM      9  C   UNL     1       4.668   4.045  17.602  0.00  0.00    +0.000 A 
ATOM     10  C   UNL     1       5.786   4.423  18.359  0.00  0.00    +0.000 A 
ATOM     11  C   UNL     1       7.024   4.683  17.761  0.00  0.00    +0.000 A 
ATOM     12  C   UNL     1       7.175   4.576  16.381  0.00  0.00    +0.000 A 
ATOM     13  C   UNL     1       6.088   4.205  15.590  0.00  0.00    +0.000 A 
ATOM     14  C   UNL     1       6.212   4.091  14.100  0.00  0.00    +0.000 C 
ATOM     15  C   UNL     1       4.856   3.942  16.210  0.00  0.00    +0.000 A 
ENDBRANCH   8   9
BRANCH   8  17
ATOM     16  C   UNL     1       1.792   2.002  19.024  0.00  0.00    +0.000 C 
ATOM     17  C   UNL     1       3.201   2.359  18.585  0.00  0.00    +0.000 C 
ENDBRANCH   8  17
ENDBRANCH   7   8
ENDBRANCH   6   7
ENDBRANCH   5   6
ENDBRANCH   1   5
BRANCH   2  18
ATOM     18  C   UNL     1       0.408   9.984  18.859  0.00  0.00    +0.000 C 
BRANCH  18  19
ATOM     19  C   UNL     1       0.736  11.307  19.544  0.00  0.00    +0.000 C 
BRANCH  19  20
ATOM     20  C   UNL     1      -0.139  11.598  20.700  0.00  0.00    +0.000 A 
ATOM     21  N   UNL     1      -1.445  11.712  20.778  0.00  0.00    +0.000 NA
ATOM     22  C   UNL     1      -1.632  12.088  22.096  0.00  0.00    +0.000 A 
ATOM     23  N   UNL     1      -0.493  12.184  22.799  0.00  0.00    +0.000 NA
ATOM     24  O   UNL     1       0.497  11.864  21.877  0.00  0.00    +0.000 OA
BRANCH  22  25
ATOM     25  C   UNL     1      -2.952  12.375  22.649  0.00  0.00    +0.000 A 
ATOM     26  C   UNL     1      -3.951  12.936  21.847  0.00  0.00    +0.000 A 
ATOM     27  C   UNL     1      -5.207  13.232  22.380  0.00  0.00    +0.000 A 
ATOM     28  C   UNL     1      -5.492  12.961  23.721  0.00  0.00    +0.000 A 
ATOM     29  C   UNL     1      -4.501  12.414  24.532  0.00  0.00    +0.000 A 
ATOM     30  C   UNL     1      -3.238  12.123  24.000  0.00  0.00    +0.000 A 
BRANCH  28  31
ATOM     31  O   UNL     1      -6.748  13.312  24.132  0.00  0.00    +0.000 OA
ATOM     32  C   UNL     1      -7.707  13.482  23.095  0.00  0.00    +0.000 C 
ENDBRANCH  28  31
ENDBRANCH  22  25
ENDBRANCH  19  20
ENDBRANCH  18  19
ENDBRANCH   2  18
TORSDOF 11
ENDMDL
MODEL 5
REMARK VINA RESULT:      -7.1      2.249      3.997
REMARK  Name = 
REMARK  14 active torsions:
REMARK  status: ('A' for Active; 'I' for Inactive)
REMARK    1  A    between atoms: C_1  and  C_2
REMARK    2  A    between atoms: C_2  and  N_3
REMARK    3  A    between atoms: N_3  and  C_4
REMARK    4  A    between atoms: N_3  and  C_25
REMARK    5  A    between atoms: C_4  and  C_5
REMARK    6  A    between atoms: C_5  and  C_6
REMARK    7  A    between atoms: C_6  and  N_7
REMARK    8  A    between atoms: C_8  and  C_10
REMARK    9  A    between atoms: C_10  and  C_11
REMARK   10  A    between atoms: C_11  and  C_12
REMARK   11  A    between atoms: C_14  and  C_15
REMARK   12  A    between atoms: C_18  and  O_19
REMARK   13  A    between atoms: O_19  and  C_20
REMARK   14  A    between atoms: C_29  and  C_30
REMARK                            x       y       z     vdW  Elec       q    Type
REMARK                         _______ _______ _______ _____ _____    ______ ____
ROOT
ATOM      1  N   UNL     1       2.426   4.230  18.213  0.00  0.00    +0.000 N 
ATOM      2  C   UNL     1       1.356   3.601  18.807  0.00  0.00    +0.000 C 
ATOM      3  O   UNL     1       0.762   2.653  18.291  0.00  0.00    +0.000 OA
ATOM      4  H   UNL     1       2.866   5.011  18.681  0.00  0.00    +0.000 HD
ENDROOT
BRANCH   1   5
ATOM      5  C   UNL     1       2.946   3.800  16.924  0.00  0.00    +0.000 C 
BRANCH   5   6
ATOM      6  C   UNL     1       4.185   2.898  17.040  0.00  0.00    +0.000 C 
BRANCH   6   7
ATOM      7  C   UNL     1       5.490   3.696  17.135  0.00  0.00    +0.000 C 
BRANCH   7   8
ATOM      8  N   UNL     1       5.528   4.874  16.245  0.00  0.00    +0.000 N 
BRANCH   8   9
ATOM      9  C   UNL     1       6.005   4.670  14.935  0.00  0.00    +0.000 A 
ATOM     10  C   UNL     1       7.223   5.225  14.516  0.00  0.00    +0.000 A 
ATOM     11  C   UNL     1       7.720   5.012  13.225  0.00  0.00    +0.000 A 
ATOM     12  C   UNL     1       7.005   4.238  12.314  0.00  0.00    +0.000 A 
ATOM     13  C   UNL     1       5.788   3.671  12.690  0.00  0.00    +0.000 A 
ATOM     14  C   UNL     1       4.987   2.842  11.731  0.00  0.00    +0.000 C 
ATOM     15  C   UNL     1       5.309   3.890  13.992  0.00  0.00    +0.000 A 
ENDBRANCH   8   9
BRANCH   8  17
ATOM     16  C   UNL     1       4.365   7.085  16.700  0.00  0.00    +0.000 C 
ATOM     17  C   UNL     1       5.630   6.248  16.761  0.00  0.00    +0.000 C 
ENDBRANCH   8  17
ENDBRANCH   7   8
ENDBRANCH   6   7
ENDBRANCH   5   6
ENDBRANCH   1   5
BRANCH   2  18
ATOM     18  C   UNL     1       0.946   4.189  20.143  0.00  0.00    +0.000 C 
BRANCH  18  19
ATOM     19  C   UNL     1       2.085   5.050  20.679  0.00  0.00    +0.000 C 
BRANCH  19  20
ATOM     20  C   UNL     1       1.780   6.497  20.664  0.00  0.00    +0.000 A 
ATOM     21  N   UNL     1       1.140   7.246  21.531  0.00  0.00    +0.000 NA
ATOM     22  C   UNL     1       1.105   8.473  20.896  0.00  0.00    +0.000 A 
ATOM     23  N   UNL     1       1.712   8.481  19.699  0.00  0.00    +0.000 NA
ATOM     24  O   UNL     1       2.156   7.173  19.541  0.00  0.00    +0.000 OA
BRANCH  22  25
ATOM     25  C   UNL     1       0.443   9.638  21.475  0.00  0.00    +0.000 A 
ATOM     26  C   UNL     1      -0.404   9.497  22.580  0.00  0.00    +0.000 A 
ATOM     27  C   UNL     1      -1.055  10.607  23.121  0.00  0.00    +0.000 A 
ATOM     28  C   UNL     1      -0.863  11.879  22.578  0.00  0.00    +0.000 A 
ATOM     29  C   UNL     1      -0.032  12.029  21.471  0.00  0.00    +0.000 A 
ATOM     30  C   UNL     1       0.617  10.917  20.922  0.00  0.00    +0.000 A 
BRANCH  28  31
ATOM     31  O   UNL     1      -1.568  12.883  23.181  0.00  0.00    +0.000 OA
ATOM     32  C   UNL     1      -0.961  14.169  23.142  0.00  0.00    +0.000 C 
ENDBRANCH  28  31
ENDBRANCH  22  25
ENDBRANCH  19  20
ENDBRANCH  18  19
ENDBRANCH   2  18
TORSDOF 11
ENDMDL
MODEL 6
REMARK VINA RESULT:      -7.0      4.209      6.617
REMARK  Name = 
REMARK  14 active torsions:
REMARK  status: ('A' for Active; 'I' for Inactive)
REMARK    1  A    between atoms: C_1  and  C_2
REMARK    2  A    between atoms: C_2  and  N_3
REMARK    3  A    between atoms: N_3  and  C_4
REMARK    4  A    between atoms: N_3  and  C_25
REMARK    5  A    between atoms: C_4  and  C_5
REMARK    6  A    between atoms: C_5  and  C_6
REMARK    7  A    between atoms: C_6  and  N_7
REMARK    8  A    between atoms: C_8  and  C_10
REMARK    9  A    between atoms: C_10  and  C_11
REMARK   10  A    between atoms: C_11  and  C_12
REMARK   11  A    between atoms: C_14  and  C_15
REMARK   12  A    between atoms: C_18  and  O_19
REMARK   13  A    between atoms: O_19  and  C_20
REMARK   14  A    between atoms: C_29  and  C_30
REMARK                            x       y       z     vdW  Elec       q    Type
REMARK                         _______ _______ _______ _____ _____    ______ ____
ROOT
ATOM      1  N   UNL     1       2.369   7.781  19.017  0.00  0.00    +0.000 N 
ATOM      2  C   UNL     1       1.385   8.560  19.581  0.00  0.00    +0.000 C 
ATOM      3  O   UNL     1       0.920   9.558  19.030  0.00  0.00    +0.000 OA
ATOM      4  H   UNL     1       2.719   6.978  19.524  0.00  0.00    +0.000 HD
ENDROOT
BRANCH   1   5
ATOM      5  C   UNL     1       2.921   8.077  17.705  0.00  0.00    +0.000 C 
BRANCH   5   6
ATOM      6  C   UNL     1       4.309   7.459  17.476  0.00  0.00    +0.000 C 
BRANCH   6   7
ATOM      7  C   UNL     1       4.238   5.980  17.078  0.00  0.00    +0.000 C 
BRANCH   7   8
ATOM      8  N   UNL     1       4.420   5.053  18.213  0.00  0.00    +0.000 N 
BRANCH   8   9
ATOM      9  C   UNL     1       3.280   4.351  18.653  0.00  0.00    +0.000 A 
ATOM     10  C   UNL     1       2.234   4.047  17.770  0.00  0.00    +0.000 A 
ATOM     11  C   UNL     1       1.106   3.332  18.188  0.00  0.00    +0.000 A 
ATOM     12  C   UNL     1       0.993   2.904  19.508  0.00  0.00    +0.000 A 
ATOM     13  C   UNL     1       2.010   3.188  20.419  0.00  0.00    +0.000 A 
ATOM     14  C   UNL     1       1.916   2.753  21.852  0.00  0.00    +0.000 C 
ATOM     15  C   UNL     1       3.137   3.901  19.980  0.00  0.00    +0.000 A 
ENDBRANCH   8   9
BRANCH   8  17
ATOM     16  C   UNL     1       6.878   5.515  18.651  0.00  0.00    +0.000 C 
ATOM     17  C   UNL     1       5.494   5.222  19.203  0.00  0.00    +0.000 C 
ENDBRANCH   8  17
ENDBRANCH   7   8
ENDBRANCH   6   7
ENDBRANCH   5   6
ENDBRANCH   1   5
BRANCH   2  18
ATOM     18  C   UNL     1       0.936   8.105  20.956  0.00  0.00    +0.000 C 
BRANCH  18  19
ATOM     19  C   UNL     1       1.382   9.133  21.991  0.00  0.00    +0.000 C 
BRANCH  19  20
ATOM     20  C   UNL     1       0.454  10.278  22.114  0.00  0.00    +0.000 A 
ATOM     21  N   UNL     1      -0.819  10.318  22.429  0.00  0.00    +0.000 NA
ATOM     22  C   UNL     1      -1.123  11.657  22.271  0.00  0.00    +0.000 A 
ATOM     23  N   UNL     1      -0.077  12.409  21.892  0.00  0.00    +0.000 NA
ATOM     24  O   UNL     1       0.967  11.498  21.784  0.00  0.00    +0.000 OA
BRANCH  22  25
ATOM     25  C   UNL     1      -2.467  12.187  22.476  0.00  0.00    +0.000 A 
ATOM     26  C   UNL     1      -3.187  12.730  21.406  0.00  0.00    +0.000 A 
ATOM     27  C   UNL     1      -4.464  13.257  21.605  0.00  0.00    +0.000 A 
ATOM     28  C   UNL     1      -5.052  13.238  22.872  0.00  0.00    +0.000 A 
ATOM     29  C   UNL     1      -4.341  12.711  23.946  0.00  0.00    +0.000 A 
ATOM     30  C   UNL     1      -3.056  12.189  23.751  0.00  0.00    +0.000 A 
BRANCH  28  31
ATOM     31  O   UNL     1      -6.297  13.798  22.945  0.00  0.00    +0.000 OA
ATOM     32  C   UNL     1      -7.149  13.274  23.957  0.00  0.00    +0.000 C 
ENDBRANCH  28  31
ENDBRANCH  22  25
ENDBRANCH  19  20
ENDBRANCH  18  19
ENDBRANCH   2  18
TORSDOF 11
ENDMDL
MODEL 7
REMARK VINA RESULT:      -7.0      3.827      6.086
REMARK  Name = 
REMARK  14 active torsions:
REMARK  status: ('A' for Active; 'I' for Inactive)
REMARK    1  A    between atoms: C_1  and  C_2
REMARK    2  A    between atoms: C_2  and  N_3
REMARK    3  A    between atoms: N_3  and  C_4
REMARK    4  A    between atoms: N_3  and  C_25
REMARK    5  A    between atoms: C_4  and  C_5
REMARK    6  A    between atoms: C_5  and  C_6
REMARK    7  A    between atoms: C_6  and  N_7
REMARK    8  A    between atoms: C_8  and  C_10
REMARK    9  A    between atoms: C_10  and  C_11
REMARK   10  A    between atoms: C_11  and  C_12
REMARK   11  A    between atoms: C_14  and  C_15
REMARK   12  A    between atoms: C_18  and  O_19
REMARK   13  A    between atoms: O_19  and  C_20
REMARK   14  A    between atoms: C_29  and  C_30
REMARK                            x       y       z     vdW  Elec       q    Type
REMARK                         _______ _______ _______ _____ _____    ______ ____
ROOT
ATOM      1  N   UNL     1       6.809   7.687  17.350  0.00  0.00    +0.000 N 
ATOM      2  C   UNL     1       6.655   6.588  16.536  0.00  0.00    +0.000 C 
ATOM      3  O   UNL     1       7.595   5.874  16.186  0.00  0.00    +0.000 OA
ATOM      4  H   UNL     1       5.999   8.242  17.593  0.00  0.00    +0.000 HD
ENDROOT
BRANCH   1   5
ATOM      5  C   UNL     1       8.109   8.073  17.875  0.00  0.00    +0.000 C 
BRANCH   5   6
ATOM      6  C   UNL     1       8.299   9.596  17.966  0.00  0.00    +0.000 C 
BRANCH   6   7
ATOM      7  C   UNL     1       9.214  10.008  19.125  0.00  0.00    +0.000 C 
BRANCH   7   8
ATOM      8  N   UNL     1       9.598  11.433  19.096  0.00  0.00    +0.000 N 
BRANCH   8   9
ATOM      9  C   UNL     1       9.483  12.151  20.303  0.00  0.00    +0.000 A 
ATOM     10  C   UNL     1      10.000  13.449  20.424  0.00  0.00    +0.000 A 
ATOM     11  C   UNL     1       9.873  14.181  21.610  0.00  0.00    +0.000 A 
ATOM     12  C   UNL     1       9.227  13.629  22.713  0.00  0.00    +0.000 A 
ATOM     13  C   UNL     1       8.702  12.340  22.636  0.00  0.00    +0.000 A 
ATOM     14  C   UNL     1       8.012  11.709  23.808  0.00  0.00    +0.000 C 
ATOM     15  C   UNL     1       8.833  11.623  21.436  0.00  0.00    +0.000 A 
ENDBRANCH   8   9
BRANCH   8  17
ATOM     16  C   UNL     1       8.251  12.958  17.577  0.00  0.00    +0.000 C 
ATOM     17  C   UNL     1       9.555  12.235  17.864  0.00  0.00    +0.000 C 
ENDBRANCH   8  17
ENDBRANCH   7   8
ENDBRANCH   6   7
ENDBRANCH   5   6
ENDBRANCH   1   5
BRANCH   2  18
ATOM     18  C   UNL     1       5.231   6.343  16.077  0.00  0.00    +0.000 C 
BRANCH  18  19
ATOM     19  C   UNL     1       4.561   5.362  17.033  0.00  0.00    +0.000 C 
BRANCH  19  20
ATOM     20  C   UNL     1       3.595   6.007  17.949  0.00  0.00    +0.000 A 
ATOM     21  N   UNL     1       3.064   7.207  17.926  0.00  0.00    +0.000 NA
ATOM     22  C   UNL     1       2.329   7.230  19.096  0.00  0.00    +0.000 A 
ATOM     23  N   UNL     1       2.392   6.088  19.798  0.00  0.00    +0.000 NA
ATOM     24  O   UNL     1       3.233   5.278  19.043  0.00  0.00    +0.000 OA
BRANCH  22  25
ATOM     25  C   UNL     1       1.579   8.405  19.529  0.00  0.00    +0.000 A 
ATOM     26  C   UNL     1       1.299   9.440  18.629  0.00  0.00    +0.000 A 
ATOM     27  C   UNL     1       0.601  10.574  19.047  0.00  0.00    +0.000 A 
ATOM     28  C   UNL     1       0.158  10.690  20.367  0.00  0.00    +0.000 A 
ATOM     29  C   UNL     1       0.441   9.673  21.274  0.00  0.00    +0.000 A 
ATOM     30  C   UNL     1       1.148   8.537  20.859  0.00  0.00    +0.000 A 
BRANCH  28  31
ATOM     31  O   UNL     1      -0.498  11.854  20.661  0.00  0.00    +0.000 OA
ATOM     32  C   UNL     1      -0.301  12.353  21.979  0.00  0.00    +0.000 C 
ENDBRANCH  28  31
ENDBRANCH  22  25
ENDBRANCH  19  20
ENDBRANCH  18  19
ENDBRANCH   2  18
TORSDOF 11
ENDMDL
MODEL 8
REMARK VINA RESULT:      -7.0      2.596      4.529
REMARK  Name = 
REMARK  14 active torsions:
REMARK  status: ('A' for Active; 'I' for Inactive)
REMARK    1  A    between atoms: C_1  and  C_2
REMARK    2  A    between atoms: C_2  and  N_3
REMARK    3  A    between atoms: N_3  and  C_4
REMARK    4  A    between atoms: N_3  and  C_25
REMARK    5  A    between atoms: C_4  and  C_5
REMARK    6  A    between atoms: C_5  and  C_6
REMARK    7  A    between atoms: C_6  and  N_7
REMARK    8  A    between atoms: C_8  and  C_10
REMARK    9  A    between atoms: C_10  and  C_11
REMARK   10  A    between atoms: C_11  and  C_12
REMARK   11  A    between atoms: C_14  and  C_15
REMARK   12  A    between atoms: C_18  and  O_19
REMARK   13  A    between atoms: O_19  and  C_20
REMARK   14  A    between atoms: C_29  and  C_30
REMARK                            x       y       z     vdW  Elec       q    Type
REMARK                         _______ _______ _______ _____ _____    ______ ____
ROOT
ATOM      1  N   UNL     1       2.744   4.422  18.276  0.00  0.00    +0.000 N 
ATOM      2  C   UNL     1       2.418   4.348  19.611  0.00  0.00    +0.000 C 
ATOM      3  O   UNL     1       2.296   3.282  20.214  0.00  0.00    +0.000 OA
ATOM      4  H   UNL     1       2.819   5.329  17.833  0.00  0.00    +0.000 HD
ENDROOT
BRANCH   1   5
ATOM      5  C   UNL     1       2.987   3.229  17.481  0.00  0.00    +0.000 C 
BRANCH   5   6
ATOM      6  C   UNL     1       4.276   3.306  16.648  0.00  0.00    +0.000 C 
BRANCH   6   7
ATOM      7  C   UNL     1       4.707   4.750  16.359  0.00  0.00    +0.000 C 
BRANCH   7   8
ATOM      8  N   UNL     1       6.137   4.881  16.015  0.00  0.00    +0.000 N 
BRANCH   8   9
ATOM      9  C   UNL     1       6.489   4.686  14.665  0.00  0.00    +0.000 A 
ATOM     10  C   UNL     1       7.534   5.416  14.079  0.00  0.00    +0.000 A 
ATOM     11  C   UNL     1       7.909   5.217  12.746  0.00  0.00    +0.000 A 
ATOM     12  C   UNL     1       7.243   4.282  11.958  0.00  0.00    +0.000 A 
ATOM     13  C   UNL     1       6.197   3.537  12.501  0.00  0.00    +0.000 A 
ATOM     14  C   UNL     1       5.449   2.530  11.679  0.00  0.00    +0.000 C 
ATOM     15  C   UNL     1       5.839   3.746  13.843  0.00  0.00    +0.000 A 
ENDBRANCH   8   9
BRANCH   8  17
ATOM     16  C   UNL     1       6.900   5.060  18.430  0.00  0.00    +0.000 C 
ATOM     17  C   UNL     1       7.207   4.657  16.999  0.00  0.00    +0.000 C 
ENDBRANCH   8  17
ENDBRANCH   7   8
ENDBRANCH   6   7
ENDBRANCH   5   6
ENDBRANCH   1   5
BRANCH   2  18
ATOM     18  C   UNL     1       2.193   5.692  20.277  0.00  0.00    +0.000 C 
BRANCH  18  19
ATOM     19  C   UNL     1       2.596   6.801  19.311  0.00  0.00    +0.000 C 
BRANCH  19  20
ATOM     20  C   UNL     1       1.880   8.072  19.551  0.00  0.00    +0.000 A 
ATOM     21  N   UNL     1       1.247   8.511  20.613  0.00  0.00    +0.000 NA
ATOM     22  C   UNL     1       0.715   9.708  20.170  0.00  0.00    +0.000 A 
ATOM     23  N   UNL     1       1.023   9.999  18.897  0.00  0.00    +0.000 NA
ATOM     24  O   UNL     1       1.790   8.916  18.483  0.00  0.00    +0.000 OA
BRANCH  22  25
ATOM     25  C   UNL     1      -0.124  10.554  21.013  0.00  0.00    +0.000 A 
ATOM     26  C   UNL     1      -0.754  11.684  20.481  0.00  0.00    +0.000 A 
ATOM     27  C   UNL     1      -1.538  12.507  21.291  0.00  0.00    +0.000 A 
ATOM     28  C   UNL     1      -1.720  12.208  22.644  0.00  0.00    +0.000 A 
ATOM     29  C   UNL     1      -1.088  11.093  23.187  0.00  0.00    +0.000 A 
ATOM     30  C   UNL     1      -0.294  10.271  22.378  0.00  0.00    +0.000 A 
BRANCH  28  31
ATOM     31  O   UNL     1      -2.493  13.097  23.338  0.00  0.00    +0.000 OA
ATOM     32  C   UNL     1      -1.796  14.190  23.925  0.00  0.00    +0.000 C 
ENDBRANCH  28  31
ENDBRANCH  22  25
ENDBRANCH  19  20
ENDBRANCH  18  19
ENDBRANCH   2  18
TORSDOF 11
ENDMDL
MODEL 9
REMARK VINA RESULT:      -7.0      3.337      8.707
REMARK  Name = 
REMARK  14 active torsions:
REMARK  status: ('A' for Active; 'I' for Inactive)
REMARK    1  A    between atoms: C_1  and  C_2
REMARK    2  A    between atoms: C_2  and  N_3
REMARK    3  A    between atoms: N_3  and  C_4
REMARK    4  A    between atoms: N_3  and  C_25
REMARK    5  A    between atoms: C_4  and  C_5
REMARK    6  A    between atoms: C_5  and  C_6
REMARK    7  A    between atoms: C_6  and  N_7
REMARK    8  A    between atoms: C_8  and  C_10
REMARK    9  A    between atoms: C_10  and  C_11
REMARK   10  A    between atoms: C_11  and  C_12
REMARK   11  A    between atoms: C_14  and  C_15
REMARK   12  A    between atoms: C_18  and  O_19
REMARK   13  A    between atoms: O_19  and  C_20
REMARK   14  A    between atoms: C_29  and  C_30
REMARK                            x       y       z     vdW  Elec       q    Type
REMARK                         _______ _______ _______ _____ _____    ______ ____
ROOT
ATOM      1  N   UNL     1      -1.049  10.901  21.854  0.00  0.00    +0.000 N 
ATOM      2  C   UNL     1      -0.265   9.891  22.362  0.00  0.00    +0.000 C 
ATOM      3  O   UNL     1       0.324   9.975  23.440  0.00  0.00    +0.000 OA
ATOM      4  H   UNL     1      -1.499  10.777  20.956  0.00  0.00    +0.000 HD
ENDROOT
BRANCH   1   5
ATOM      5  C   UNL     1      -1.253  12.147  22.575  0.00  0.00    +0.000 C 
BRANCH   5   6
ATOM      6  C   UNL     1      -1.265  13.383  21.661  0.00  0.00    +0.000 C 
BRANCH   6   7
ATOM      7  C   UNL     1       0.142  13.814  21.233  0.00  0.00    +0.000 C 
BRANCH   7   8
ATOM      8  N   UNL     1       0.392  13.659  19.786  0.00  0.00    +0.000 N 
BRANCH   8   9
ATOM      9  C   UNL     1       1.283  14.574  19.190  0.00  0.00    +0.000 A 
ATOM     10  C   UNL     1       0.898  15.900  18.943  0.00  0.00    +0.000 A 
ATOM     11  C   UNL     1       1.779  16.825  18.372  0.00  0.00    +0.000 A 
ATOM     12  C   UNL     1       3.074  16.445  18.028  0.00  0.00    +0.000 A 
ATOM     13  C   UNL     1       3.496  15.136  18.254  0.00  0.00    +0.000 A 
ATOM     14  C   UNL     1       4.879  14.689  17.884  0.00  0.00    +0.000 C 
ATOM     15  C   UNL     1       2.599  14.223  18.833  0.00  0.00    +0.000 A 
ENDBRANCH   8   9
BRANCH   8  17
ATOM     16  C   UNL     1      -0.357  11.556  18.577  0.00  0.00    +0.000 C 
ATOM     17  C   UNL     1      -0.580  13.026  18.882  0.00  0.00    +0.000 C 
ENDBRANCH   8  17
ENDBRANCH   7   8
ENDBRANCH   6   7
ENDBRANCH   5   6
ENDBRANCH   1   5
BRANCH   2  18
ATOM     18  C   UNL     1      -0.160   8.670  21.469  0.00  0.00    +0.000 C 
BRANCH  18  19
ATOM     19  C   UNL     1       1.263   8.126  21.533  0.00  0.00    +0.000 C 
BRANCH  19  20
ATOM     20  C   UNL     1       1.817   7.783  20.205  0.00  0.00    +0.000 A 
ATOM     21  N   UNL     1       2.514   6.743  19.811  0.00  0.00    +0.000 NA
ATOM     22  C   UNL     1       2.808   7.062  18.498  0.00  0.00    +0.000 A 
ATOM     23  N   UNL     1       2.299   8.238  18.099  0.00  0.00    +0.000 NA
ATOM     24  O   UNL     1       1.645   8.719  19.228  0.00  0.00    +0.000 OA
BRANCH  22  25
ATOM     25  C   UNL     1       3.620   6.201  17.645  0.00  0.00    +0.000 A 
ATOM     26  C   UNL     1       3.475   4.810  17.696  0.00  0.00    +0.000 A 
ATOM     27  C   UNL     1       4.267   3.984  16.896  0.00  0.00    +0.000 A 
ATOM     28  C   UNL     1       5.208   4.531  16.021  0.00  0.00    +0.000 A 
ATOM     29  C   UNL     1       5.369   5.913  15.971  0.00  0.00    +0.000 A 
ATOM     30  C   UNL     1       4.581   6.743  16.777  0.00  0.00    +0.000 A 
BRANCH  28  31
ATOM     31  O   UNL     1       5.935   3.622  15.304  0.00  0.00    +0.000 OA
ATOM     32  C   UNL     1       6.255   4.005  13.971  0.00  0.00    +0.000 C 
ENDBRANCH  28  31
ENDBRANCH  22  25
ENDBRANCH  19  20
ENDBRANCH  18  19
ENDBRANCH   2  18
TORSDOF 11
ENDMDL
