MODEL 1
REMARK VINA RESULT:      -7.7      0.000      0.000
REMARK  Name = 
REMARK  3 active torsions:
REMARK  status: ('A' for Active; 'I' for Inactive)
REMARK    1  A    between atoms: C_2  and  C_10
REMARK    2  A    between atoms: N_3  and  C_4
REMARK    3  A    between atoms: C_14  and  C_15
REMARK                            x       y       z     vdW  Elec       q    Type
REMARK                         _______ _______ _______ _____ _____    ______ ____
ROOT
ATOM      1  O   UNL     1       2.986   3.289  16.628  0.00  0.00    +0.000 OA
ATOM      2  C   UNL     1       4.004   3.753  17.133  0.00  0.00    +0.000 C 
ATOM      3  N   UNL     1       4.213   4.030  18.472  0.00  0.00    +0.000 N 
ATOM      4  H   UNL     1       5.017   4.598  18.714  0.00  0.00    +0.000 HD
ENDROOT
BRANCH   3   5
ATOM      5  C   UNL     1       3.303   3.758  19.516  0.00  0.00    +0.000 A 
ATOM      6  C   UNL     1       3.493   2.725  20.434  0.00  0.00    +0.000 A 
ATOM      7  C   UNL     1       2.551   2.470  21.431  0.00  0.00    +0.000 A 
ATOM      8  C   UNL     1       1.407   3.255  21.522  0.00  0.00    +0.000 A 
ATOM      9  C   UNL     1       1.213   4.304  20.625  0.00  0.00    +0.000 A 
ATOM     10  C   UNL     1       2.164   4.564  19.630  0.00  0.00    +0.000 A 
ENDBRANCH   3   5
BRANCH   2  11
ATOM     11  C   UNL     1       5.103   4.131  16.217  0.00  0.00    +0.000 A 
ATOM     12  C   UNL     1       6.212   4.858  16.659  0.00  0.00    +0.000 A 
ATOM     13  C   UNL     1       7.226   5.181  15.759  0.00  0.00    +0.000 A 
ATOM     14  C   UNL     1       7.137   4.777  14.424  0.00  0.00    +0.000 A 
ATOM     15  C   UNL     1       6.038   4.032  13.971  0.00  0.00    +0.000 A 
ATOM     16  C   UNL     1       5.025   3.704  14.885  0.00  0.00    +0.000 A 
BRANCH  15  17
ATOM     17  C   UNL     1       5.927   3.586  12.534  0.00  0.00    +0.000 C 
ATOM     18  F   UNL     1       6.134   2.249  12.366  0.00  0.00    +0.000 F 
ATOM     19  F   UNL     1       4.706   3.846  11.994  0.00  0.00    +0.000 F 
ATOM     20  F   UNL     1       6.835   4.203  11.729  0.00  0.00    +0.000 F 
ENDBRANCH  15  17
ENDBRANCH   2  11
TORSDOF 3
ENDMDL
MODEL 2
REMARK VINA RESULT:      -7.6      1.053      1.381
REMARK  Name = 
REMARK  3 active torsions:
REMARK  status: ('A' for Active; 'I' for Inactive)
REMARK    1  A    between atoms: C_2  and  C_10
REMARK    2  A    between atoms: N_3  and  C_4
REMARK    3  A    between atoms: C_14  and  C_15
REMARK                            x       y       z     vdW  Elec       q    Type
REMARK                         _______ _______ _______ _____ _____    ______ ____
ROOT
ATOM      1  O   UNL     1       3.835   5.748  17.537  0.00  0.00    +0.000 OA
ATOM      2  C   UNL     1       4.309   4.667  17.201  0.00  0.00    +0.000 C 
ATOM      3  N   UNL     1       4.007   3.427  17.735  0.00  0.00    +0.000 N 
ATOM      4  H   UNL     1       4.621   2.654  17.504  0.00  0.00    +0.000 HD
ENDROOT
BRANCH   3   5
ATOM      5  C   UNL     1       3.035   3.178  18.728  0.00  0.00    +0.000 A 
ATOM      6  C   UNL     1       1.673   3.083  18.444  0.00  0.00    +0.000 A 
ATOM      7  C   UNL     1       0.742   2.869  19.462  0.00  0.00    +0.000 A 
ATOM      8  C   UNL     1       1.171   2.743  20.779  0.00  0.00    +0.000 A 
ATOM      9  C   UNL     1       2.531   2.814  21.075  0.00  0.00    +0.000 A 
ATOM     10  C   UNL     1       3.464   3.021  20.051  0.00  0.00    +0.000 A 
ENDBRANCH   3   5
BRANCH   2  11
ATOM     11  C   UNL     1       5.370   4.683  16.169  0.00  0.00    +0.000 A 
ATOM     12  C   UNL     1       6.642   5.202  16.429  0.00  0.00    +0.000 A 
ATOM     13  C   UNL     1       7.610   5.185  15.427  0.00  0.00    +0.000 A 
ATOM     14  C   UNL     1       7.312   4.651  14.170  0.00  0.00    +0.000 A 
ATOM     15  C   UNL     1       6.045   4.111  13.900  0.00  0.00    +0.000 A 
ATOM     16  C   UNL     1       5.079   4.124  14.917  0.00  0.00    +0.000 A 
BRANCH  15  17
ATOM     17  C   UNL     1       5.708   3.528  12.550  0.00  0.00    +0.000 C 
ATOM     18  F   UNL     1       5.905   2.181  12.479  0.00  0.00    +0.000 F 
ATOM     19  F   UNL     1       4.411   3.735  12.196  0.00  0.00    +0.000 F 
ATOM     20  F   UNL     1       6.463   4.064  11.552  0.00  0.00    +0.000 F 
ENDBRANCH  15  17
ENDBRANCH   2  11
TORSDOF 3
ENDMDL
MODEL 3
REMARK VINA RESULT:      -7.6      0.281      1.123
REMARK  Name = 
REMARK  3 active torsions:
REMARK  status: ('A' for Active; 'I' for Inactive)
REMARK    1  A    between atoms: C_2  and  C_10
REMARK    2  A    between atoms: N_3  and  C_4
REMARK    3  A    between atoms: C_14  and  C_15
REMARK                            x       y       z     vdW  Elec       q    Type
REMARK                         _______ _______ _______ _____ _____    ______ ____
ROOT
ATOM      1  O   UNL     1       3.078   3.399  16.622  0.00  0.00    +0.000 OA
ATOM      2  C   UNL     1       4.124   3.847  17.083  0.00  0.00    +0.000 C 
ATOM      3  N   UNL     1       4.388   4.137  18.409  0.00  0.00    +0.000 N 
ATOM      4  H   UNL     1       5.214   4.689  18.613  0.00  0.00    +0.000 HD
ENDROOT
BRANCH   3   5
ATOM      5  C   UNL     1       3.512   3.902  19.490  0.00  0.00    +0.000 A 
ATOM      6  C   UNL     1       2.530   4.813  19.878  0.00  0.00    +0.000 A 
ATOM      7  C   UNL     1       1.705   4.555  20.974  0.00  0.00    +0.000 A 
ATOM      8  C   UNL     1       1.856   3.373  21.692  0.00  0.00    +0.000 A 
ATOM      9  C   UNL     1       2.818   2.444  21.303  0.00  0.00    +0.000 A 
ATOM     10  C   UNL     1       3.639   2.701  20.197  0.00  0.00    +0.000 A 
ENDBRANCH   3   5
BRANCH   2  11
ATOM     11  C   UNL     1       5.197   4.185  16.122  0.00  0.00    +0.000 A 
ATOM     12  C   UNL     1       6.325   4.917  16.506  0.00  0.00    +0.000 A 
ATOM     13  C   UNL     1       7.313   5.201  15.565  0.00  0.00    +0.000 A 
ATOM     14  C   UNL     1       7.179   4.756  14.247  0.00  0.00    +0.000 A 
ATOM     15  C   UNL     1       6.061   4.006  13.852  0.00  0.00    +0.000 A 
ATOM     16  C   UNL     1       5.074   3.716  14.807  0.00  0.00    +0.000 A 
BRANCH  15  17
ATOM     17  C   UNL     1       5.902   3.516  12.434  0.00  0.00    +0.000 C 
ATOM     18  F   UNL     1       6.050   2.166  12.310  0.00  0.00    +0.000 F 
ATOM     19  F   UNL     1       4.681   3.807  11.909  0.00  0.00    +0.000 F 
ATOM     20  F   UNL     1       6.817   4.066  11.590  0.00  0.00    +0.000 F 
ENDBRANCH  15  17
ENDBRANCH   2  11
TORSDOF 3
ENDMDL
MODEL 4
REMARK VINA RESULT:      -7.5      1.041      1.356
REMARK  Name = 
REMARK  3 active torsions:
REMARK  status: ('A' for Active; 'I' for Inactive)
REMARK    1  A    between atoms: C_2  and  C_10
REMARK    2  A    between atoms: N_3  and  C_4
REMARK    3  A    between atoms: C_14  and  C_15
REMARK                            x       y       z     vdW  Elec       q    Type
REMARK                         _______ _______ _______ _____ _____    ______ ____
ROOT
ATOM      1  O   UNL     1       3.721   5.768  17.392  0.00  0.00    +0.000 OA
ATOM      2  C   UNL     1       4.280   4.700  17.161  0.00  0.00    +0.000 C 
ATOM      3  N   UNL     1       4.066   3.496  17.809  0.00  0.00    +0.000 N 
ATOM      4  H   UNL     1       4.740   2.754  17.654  0.00  0.00    +0.000 HD
ENDROOT
BRANCH   3   5
ATOM      5  C   UNL     1       3.106   3.268  18.817  0.00  0.00    +0.000 A 
ATOM      6  C   UNL     1       3.435   3.185  20.170  0.00  0.00    +0.000 A 
ATOM      7  C   UNL     1       2.458   2.924  21.132  0.00  0.00    +0.000 A 
ATOM      8  C   UNL     1       1.134   2.748  20.745  0.00  0.00    +0.000 A 
ATOM      9  C   UNL     1       0.786   2.849  19.399  0.00  0.00    +0.000 A 
ATOM     10  C   UNL     1       1.767   3.119  18.436  0.00  0.00    +0.000 A 
ENDBRANCH   3   5
BRANCH   2  11
ATOM     11  C   UNL     1       5.347   4.701  16.137  0.00  0.00    +0.000 A 
ATOM     12  C   UNL     1       6.623   5.209  16.403  0.00  0.00    +0.000 A 
ATOM     13  C   UNL     1       7.597   5.178  15.407  0.00  0.00    +0.000 A 
ATOM     14  C   UNL     1       7.303   4.639  14.152  0.00  0.00    +0.000 A 
ATOM     15  C   UNL     1       6.033   4.109  13.876  0.00  0.00    +0.000 A 
ATOM     16  C   UNL     1       5.060   4.137  14.887  0.00  0.00    +0.000 A 
BRANCH  15  17
ATOM     17  C   UNL     1       5.700   3.522  12.528  0.00  0.00    +0.000 C 
ATOM     18  F   UNL     1       6.449   4.040  11.513  0.00  0.00    +0.000 F 
ATOM     19  F   UNL     1       5.886   2.175  12.479  0.00  0.00    +0.000 F 
ATOM     20  F   UNL     1       4.403   3.737  12.175  0.00  0.00    +0.000 F 
ENDBRANCH  15  17
ENDBRANCH   2  11
TORSDOF 3
ENDMDL
MODEL 5
REMARK VINA RESULT:      -7.4      1.379      1.847
REMARK  Name = 
REMARK  3 active torsions:
REMARK  status: ('A' for Active; 'I' for Inactive)
REMARK    1  A    between atoms: C_2  and  C_10
REMARK    2  A    between atoms: N_3  and  C_4
REMARK    3  A    between atoms: C_14  and  C_15
REMARK                            x       y       z     vdW  Elec       q    Type
REMARK                         _______ _______ _______ _____ _____    ______ ____
ROOT
ATOM      1  O   UNL     1       5.539   4.037  18.325  0.00  0.00    +0.000 OA
ATOM      2  C   UNL     1       4.949   4.152  17.254  0.00  0.00    +0.000 C 
ATOM      3  N   UNL     1       3.592   4.001  17.036  0.00  0.00    +0.000 N 
ATOM      4  H   UNL     1       3.278   3.921  16.075  0.00  0.00    +0.000 HD
ENDROOT
BRANCH   3   5
ATOM      5  C   UNL     1       2.625   3.751  18.032  0.00  0.00    +0.000 A 
ATOM      6  C   UNL     1       2.242   4.710  18.971  0.00  0.00    +0.000 A 
ATOM      7  C   UNL     1       1.305   4.410  19.961  0.00  0.00    +0.000 A 
ATOM      8  C   UNL     1       0.737   3.142  20.017  0.00  0.00    +0.000 A 
ATOM      9  C   UNL     1       1.094   2.180  19.074  0.00  0.00    +0.000 A 
ATOM     10  C   UNL     1       2.028   2.485  18.075  0.00  0.00    +0.000 A 
ENDBRANCH   3   5
BRANCH   2  11
ATOM     11  C   UNL     1       5.772   4.407  16.051  0.00  0.00    +0.000 A 
ATOM     12  C   UNL     1       6.950   5.158  16.110  0.00  0.00    +0.000 A 
ATOM     13  C   UNL     1       7.696   5.361  14.950  0.00  0.00    +0.000 A 
ATOM     14  C   UNL     1       7.270   4.814  13.736  0.00  0.00    +0.000 A 
ATOM     15  C   UNL     1       6.100   4.044  13.665  0.00  0.00    +0.000 A 
ATOM     16  C   UNL     1       5.359   3.837  14.839  0.00  0.00    +0.000 A 
BRANCH  15  17
ATOM     17  C   UNL     1       5.629   3.444  12.364  0.00  0.00    +0.000 C 
ATOM     18  F   UNL     1       4.291   3.601  12.150  0.00  0.00    +0.000 F 
ATOM     19  F   UNL     1       6.245   3.987  11.280  0.00  0.00    +0.000 F 
ATOM     20  F   UNL     1       5.858   2.104  12.298  0.00  0.00    +0.000 F 
ENDBRANCH  15  17
ENDBRANCH   2  11
TORSDOF 3
ENDMDL
MODEL 6
REMARK VINA RESULT:      -7.3      1.333      1.647
REMARK  Name = 
REMARK  3 active torsions:
REMARK  status: ('A' for Active; 'I' for Inactive)
REMARK    1  A    between atoms: C_2  and  C_10
REMARK    2  A    between atoms: N_3  and  C_4
REMARK    3  A    between atoms: C_14  and  C_15
REMARK                            x       y       z     vdW  Elec       q    Type
REMARK                         _______ _______ _______ _____ _____    ______ ____
ROOT
ATOM      1  O   UNL     1       5.585   3.825  18.431  0.00  0.00    +0.000 OA
ATOM      2  C   UNL     1       4.987   4.089  17.392  0.00  0.00    +0.000 C 
ATOM      3  N   UNL     1       3.617   4.070  17.196  0.00  0.00    +0.000 N 
ATOM      4  H   UNL     1       3.279   4.109  16.241  0.00  0.00    +0.000 HD
ENDROOT
BRANCH   3   5
ATOM      5  C   UNL     1       2.651   3.807  18.191  0.00  0.00    +0.000 A 
ATOM      6  C   UNL     1       1.903   2.629  18.224  0.00  0.00    +0.000 A 
ATOM      7  C   UNL     1       0.934   2.424  19.206  0.00  0.00    +0.000 A 
ATOM      8  C   UNL     1       0.708   3.398  20.173  0.00  0.00    +0.000 A 
ATOM      9  C   UNL     1       1.462   4.570  20.165  0.00  0.00    +0.000 A 
ATOM     10  C   UNL     1       2.440   4.771  19.183  0.00  0.00    +0.000 A 
ENDBRANCH   3   5
BRANCH   2  11
ATOM     11  C   UNL     1       5.805   4.389  16.197  0.00  0.00    +0.000 A 
ATOM     12  C   UNL     1       6.959   5.176  16.273  0.00  0.00    +0.000 A 
ATOM     13  C   UNL     1       7.702   5.421  15.119  0.00  0.00    +0.000 A 
ATOM     14  C   UNL     1       7.298   4.881  13.894  0.00  0.00    +0.000 A 
ATOM     15  C   UNL     1       6.152   4.076  13.806  0.00  0.00    +0.000 A 
ATOM     16  C   UNL     1       5.414   3.826  14.974  0.00  0.00    +0.000 A 
BRANCH  15  17
ATOM     17  C   UNL     1       5.704   3.484  12.494  0.00  0.00    +0.000 C 
ATOM     18  F   UNL     1       6.335   4.025  11.413  0.00  0.00    +0.000 F 
ATOM     19  F   UNL     1       5.920   2.143  12.419  0.00  0.00    +0.000 F 
ATOM     20  F   UNL     1       4.373   3.665  12.271  0.00  0.00    +0.000 F 
ENDBRANCH  15  17
ENDBRANCH   2  11
TORSDOF 3
ENDMDL
MODEL 7
REMARK VINA RESULT:      -7.3      3.564      6.975
REMARK  Name = 
REMARK  3 active torsions:
REMARK  status: ('A' for Active; 'I' for Inactive)
REMARK    1  A    between atoms: C_2  and  C_10
REMARK    2  A    between atoms: N_3  and  C_4
REMARK    3  A    between atoms: C_14  and  C_15
REMARK                            x       y       z     vdW  Elec       q    Type
REMARK                         _______ _______ _______ _____ _____    ______ ____
ROOT
ATOM      1  O   UNL     1       4.994   6.716  15.892  0.00  0.00    +0.000 OA
ATOM      2  C   UNL     1       4.756   5.557  16.218  0.00  0.00    +0.000 C 
ATOM      3  N   UNL     1       5.133   4.411  15.541  0.00  0.00    +0.000 N 
ATOM      4  H   UNL     1       4.693   3.539  15.814  0.00  0.00    +0.000 HD
ENDROOT
BRANCH   3   5
ATOM      5  C   UNL     1       5.928   4.372  14.376  0.00  0.00    +0.000 A 
ATOM      6  C   UNL     1       7.117   5.092  14.249  0.00  0.00    +0.000 A 
ATOM      7  C   UNL     1       7.856   5.051  13.066  0.00  0.00    +0.000 A 
ATOM      8  C   UNL     1       7.412   4.282  11.997  0.00  0.00    +0.000 A 
ATOM      9  C   UNL     1       6.238   3.541  12.116  0.00  0.00    +0.000 A 
ATOM     10  C   UNL     1       5.501   3.576  13.308  0.00  0.00    +0.000 A 
ENDBRANCH   3   5
BRANCH   2  11
ATOM     11  C   UNL     1       3.915   5.350  17.418  0.00  0.00    +0.000 A 
ATOM     12  C   UNL     1       3.734   6.357  18.372  0.00  0.00    +0.000 A 
ATOM     13  C   UNL     1       2.924   6.115  19.481  0.00  0.00    +0.000 A 
ATOM     14  C   UNL     1       2.294   4.877  19.636  0.00  0.00    +0.000 A 
ATOM     15  C   UNL     1       2.453   3.865  18.678  0.00  0.00    +0.000 A 
ATOM     16  C   UNL     1       3.263   4.118  17.560  0.00  0.00    +0.000 A 
BRANCH  15  17
ATOM     17  C   UNL     1       1.778   2.524  18.829  0.00  0.00    +0.000 C 
ATOM     18  F   UNL     1       0.444   2.556  18.549  0.00  0.00    +0.000 F 
ATOM     19  F   UNL     1       2.307   1.573  18.013  0.00  0.00    +0.000 F 
ATOM     20  F   UNL     1       1.877   2.034  20.095  0.00  0.00    +0.000 F 
ENDBRANCH  15  17
ENDBRANCH   2  11
TORSDOF 3
ENDMDL
MODEL 8
REMARK VINA RESULT:      -7.3      5.873      7.687
REMARK  Name = 
REMARK  3 active torsions:
REMARK  status: ('A' for Active; 'I' for Inactive)
REMARK    1  A    between atoms: C_2  and  C_10
REMARK    2  A    between atoms: N_3  and  C_4
REMARK    3  A    between atoms: C_14  and  C_15
REMARK                            x       y       z     vdW  Elec       q    Type
REMARK                         _______ _______ _______ _____ _____    ______ ____
ROOT
ATOM      1  O   UNL     1       7.728   9.869  17.434  0.00  0.00    +0.000 OA
ATOM      2  C   UNL     1       8.213   9.044  18.202  0.00  0.00    +0.000 C 
ATOM      3  N   UNL     1       9.158   9.280  19.185  0.00  0.00    +0.000 N 
ATOM      4  H   UNL     1       9.614   8.475  19.600  0.00  0.00    +0.000 HD
ENDROOT
BRANCH   3   5
ATOM      5  C   UNL     1       9.687  10.543  19.525  0.00  0.00    +0.000 A 
ATOM      6  C   UNL     1      10.519  11.269  18.672  0.00  0.00    +0.000 A 
ATOM      7  C   UNL     1      11.047  12.500  19.061  0.00  0.00    +0.000 A 
ATOM      8  C   UNL     1      10.743  13.020  20.315  0.00  0.00    +0.000 A 
ATOM      9  C   UNL     1       9.897  12.317  21.170  0.00  0.00    +0.000 A 
ATOM     10  C   UNL     1       9.360  11.085  20.773  0.00  0.00    +0.000 A 
ENDBRANCH   3   5
BRANCH   2  11
ATOM     11  C   UNL     1       7.808   7.632  18.023  0.00  0.00    +0.000 A 
ATOM     12  C   UNL     1       8.202   6.634  18.919  0.00  0.00    +0.000 A 
ATOM     13  C   UNL     1       7.787   5.320  18.711  0.00  0.00    +0.000 A 
ATOM     14  C   UNL     1       6.979   5.002  17.615  0.00  0.00    +0.000 A 
ATOM     15  C   UNL     1       6.562   5.996  16.718  0.00  0.00    +0.000 A 
ATOM     16  C   UNL     1       6.977   7.319  16.938  0.00  0.00    +0.000 A 
BRANCH  15  17
ATOM     17  C   UNL     1       5.688   5.671  15.532  0.00  0.00    +0.000 C 
ATOM     18  F   UNL     1       4.796   4.670  15.777  0.00  0.00    +0.000 F 
ATOM     19  F   UNL     1       4.950   6.734  15.113  0.00  0.00    +0.000 F 
ATOM     20  F   UNL     1       6.411   5.265  14.452  0.00  0.00    +0.000 F 
ENDBRANCH  15  17
ENDBRANCH   2  11
TORSDOF 3
ENDMDL
MODEL 9
REMARK VINA RESULT:      -7.3      3.741      7.053
REMARK  Name = 
REMARK  3 active torsions:
REMARK  status: ('A' for Active; 'I' for Inactive)
REMARK    1  A    between atoms: C_2  and  C_10
REMARK    2  A    between atoms: N_3  and  C_4
REMARK    3  A    between atoms: C_14  and  C_15
REMARK                            x       y       z     vdW  Elec       q    Type
REMARK                         _______ _______ _______ _____ _____    ______ ____
ROOT
ATOM      1  O   UNL     1       5.026   6.810  15.889  0.00  0.00    +0.000 OA
ATOM      2  C   UNL     1       4.890   5.669  16.323  0.00  0.00    +0.000 C 
ATOM      3  N   UNL     1       5.278   4.495  15.703  0.00  0.00    +0.000 N 
ATOM      4  H   UNL     1       4.920   3.625  16.080  0.00  0.00    +0.000 HD
ENDROOT
BRANCH   3   5
ATOM      5  C   UNL     1       5.970   4.407  14.476  0.00  0.00    +0.000 A 
ATOM      6  C   UNL     1       7.178   5.065  14.241  0.00  0.00    +0.000 A 
ATOM      7  C   UNL     1       7.812   4.978  13.001  0.00  0.00    +0.000 A 
ATOM      8  C   UNL     1       7.242   4.222  11.982  0.00  0.00    +0.000 A 
ATOM      9  C   UNL     1       6.047   3.541  12.209  0.00  0.00    +0.000 A 
ATOM     10  C   UNL     1       5.416   3.623  13.457  0.00  0.00    +0.000 A 
ENDBRANCH   3   5
BRANCH   2  11
ATOM     11  C   UNL     1       4.172   5.514  17.607  0.00  0.00    +0.000 A 
ATOM     12  C   UNL     1       3.495   6.581  18.206  0.00  0.00    +0.000 A 
ATOM     13  C   UNL     1       2.825   6.381  19.411  0.00  0.00    +0.000 A 
ATOM     14  C   UNL     1       2.827   5.121  20.017  0.00  0.00    +0.000 A 
ATOM     15  C   UNL     1       3.487   4.037  19.419  0.00  0.00    +0.000 A 
ATOM     16  C   UNL     1       4.153   4.244  18.201  0.00  0.00    +0.000 A 
BRANCH  15  17
ATOM     17  C   UNL     1       3.497   2.671  20.057  0.00  0.00    +0.000 C 
ATOM     18  F   UNL     1       4.732   2.093  20.078  0.00  0.00    +0.000 F 
ATOM     19  F   UNL     1       3.072   2.689  21.349  0.00  0.00    +0.000 F 
ATOM     20  F   UNL     1       2.689   1.789  19.407  0.00  0.00    +0.000 F 
ENDBRANCH  15  17
ENDBRANCH   2  11
TORSDOF 3
ENDMDL
