MODEL 1
REMARK VINA RESULT:      -3.5      0.000      0.000
REMARK  Name = 
REMARK  5 active torsions:
REMARK  status: ('A' for Active; 'I' for Inactive)
REMARK    1  A    between atoms: C_1  and  C_2
REMARK    2  A    between atoms: C_2  and  N_3
REMARK    3  A    between atoms: N_3  and  C_4
REMARK    4  A    between atoms: C_4  and  C_5
REMARK    5  A    between atoms: C_5  and  O_6
REMARK                            x       y       z     vdW  Elec       q    Type
REMARK                         _______ _______ _______ _____ _____    ______ ____
ROOT
ATOM      1  N   UNL     1       9.655   5.269  28.071  0.00  0.00    +0.000 NA
ATOM      2  H   UNL     1       9.577   6.159  27.593  0.00  0.00    +0.000 HD
ENDROOT
BRANCH   1   4
ATOM      3  C   UNL     1      11.093   3.300  28.015  0.00  0.00    +0.000 C 
ATOM      4  C   UNL     1      11.049   4.820  27.996  0.00  0.00    +0.000 C 
ENDBRANCH   1   4
BRANCH   1   5
ATOM      5  C   UNL     1       8.759   4.279  27.444  0.00  0.00    +0.000 C 
BRANCH   5   6
ATOM      6  C   UNL     1       7.297   4.734  27.547  0.00  0.00    +0.000 C 
BRANCH   6   7
ATOM      7  O   UNL     1       6.418   3.610  27.600  0.00  0.00    +0.000 OA
ATOM      8  H   UNL     1       6.531   3.139  26.760  0.00  0.00    +0.000 HD
ENDBRANCH   6   7
ENDBRANCH   5   6
ENDBRANCH   1   5
TORSDOF 4
ENDMDL
MODEL 2
REMARK VINA RESULT:      -3.4      2.504      3.691
REMARK  Name = 
REMARK  5 active torsions:
REMARK  status: ('A' for Active; 'I' for Inactive)
REMARK    1  A    between atoms: C_1  and  C_2
REMARK    2  A    between atoms: C_2  and  N_3
REMARK    3  A    between atoms: N_3  and  C_4
REMARK    4  A    between atoms: C_4  and  C_5
REMARK    5  A    between atoms: C_5  and  O_6
REMARK                            x       y       z     vdW  Elec       q    Type
REMARK                         _______ _______ _______ _____ _____    ______ ____
ROOT
ATOM      1  N   UNL     1       8.392   3.949  27.118  0.00  0.00    +0.000 NA
ATOM      2  H   UNL     1       8.410   3.972  26.106  0.00  0.00    +0.000 HD
ENDROOT
BRANCH   1   4
ATOM      3  C   UNL     1       7.618   5.718  28.609  0.00  0.00    +0.000 C 
ATOM      4  C   UNL     1       7.206   4.676  27.580  0.00  0.00    +0.000 C 
ENDBRANCH   1   4
BRANCH   1   5
ATOM      5  C   UNL     1       9.618   4.565  27.659  0.00  0.00    +0.000 C 
BRANCH   5   6
ATOM      6  C   UNL     1      10.724   3.513  27.820  0.00  0.00    +0.000 C 
BRANCH   6   7
ATOM      7  O   UNL     1      11.789   4.014  28.628  0.00  0.00    +0.000 OA
ATOM      8  H   UNL     1      11.415   4.743  29.146  0.00  0.00    +0.000 HD
ENDBRANCH   6   7
ENDBRANCH   5   6
ENDBRANCH   1   5
TORSDOF 4
ENDMDL
MODEL 3
REMARK VINA RESULT:      -3.4      1.496      1.743
REMARK  Name = 
REMARK  5 active torsions:
REMARK  status: ('A' for Active; 'I' for Inactive)
REMARK    1  A    between atoms: C_1  and  C_2
REMARK    2  A    between atoms: C_2  and  N_3
REMARK    3  A    between atoms: N_3  and  C_4
REMARK    4  A    between atoms: C_4  and  C_5
REMARK    5  A    between atoms: C_5  and  O_6
REMARK                            x       y       z     vdW  Elec       q    Type
REMARK                         _______ _______ _______ _____ _____    ______ ____
ROOT
ATOM      1  N   UNL     1       8.636   4.220  27.089  0.00  0.00    +0.000 NA
ATOM      2  H   UNL     1       8.984   3.269  27.120  0.00  0.00    +0.000 HD
ENDROOT
BRANCH   1   4
ATOM      3  C   UNL     1      10.879   4.688  27.926  0.00  0.00    +0.000 C 
ATOM      4  C   UNL     1       9.401   5.028  28.043  0.00  0.00    +0.000 C 
ENDBRANCH   1   4
BRANCH   1   5
ATOM      5  C   UNL     1       7.201   4.243  27.427  0.00  0.00    +0.000 C 
BRANCH   5   6
ATOM      6  C   UNL     1       6.857   5.501  28.236  0.00  0.00    +0.000 C 
BRANCH   6   7
ATOM      7  O   UNL     1       5.617   6.061  27.805  0.00  0.00    +0.000 OA
ATOM      8  H   UNL     1       5.504   5.788  26.881  0.00  0.00    +0.000 HD
ENDBRANCH   6   7
ENDBRANCH   5   6
ENDBRANCH   1   5
TORSDOF 4
ENDMDL
MODEL 4
REMARK VINA RESULT:      -3.2     10.854     11.494
REMARK  Name = 
REMARK  5 active torsions:
REMARK  status: ('A' for Active; 'I' for Inactive)
REMARK    1  A    between atoms: C_1  and  C_2
REMARK    2  A    between atoms: C_2  and  N_3
REMARK    3  A    between atoms: N_3  and  C_4
REMARK    4  A    between atoms: C_4  and  C_5
REMARK    5  A    between atoms: C_5  and  O_6
REMARK                            x       y       z     vdW  Elec       q    Type
REMARK                         _______ _______ _______ _____ _____    ______ ____
ROOT
ATOM      1  N   UNL     1       2.059   1.666  18.738  0.00  0.00    +0.000 NA
ATOM      2  H   UNL     1       1.487   1.036  18.188  0.00  0.00    +0.000 HD
ENDROOT
BRANCH   1   4
ATOM      3  C   UNL     1       0.847   3.299  20.084  0.00  0.00    +0.000 C 
ATOM      4  C   UNL     1       1.442   2.995  18.718  0.00  0.00    +0.000 C 
ENDBRANCH   1   4
BRANCH   1   5
ATOM      5  C   UNL     1       3.424   1.722  18.182  0.00  0.00    +0.000 C 
BRANCH   5   6
ATOM      6  C   UNL     1       4.083   3.070  18.505  0.00  0.00    +0.000 C 
BRANCH   6   7
ATOM      7  O   UNL     1       5.202   2.894  19.374  0.00  0.00    +0.000 OA
ATOM      8  H   UNL     1       5.989   2.920  18.809  0.00  0.00    +0.000 HD
ENDBRANCH   6   7
ENDBRANCH   5   6
ENDBRANCH   1   5
TORSDOF 4
ENDMDL
MODEL 5
REMARK VINA RESULT:      -3.2     11.237     11.737
REMARK  Name = 
REMARK  5 active torsions:
REMARK  status: ('A' for Active; 'I' for Inactive)
REMARK    1  A    between atoms: C_1  and  C_2
REMARK    2  A    between atoms: C_2  and  N_3
REMARK    3  A    between atoms: N_3  and  C_4
REMARK    4  A    between atoms: C_4  and  C_5
REMARK    5  A    between atoms: C_5  and  O_6
REMARK                            x       y       z     vdW  Elec       q    Type
REMARK                         _______ _______ _______ _____ _____    ______ ____
ROOT
ATOM      1  N   UNL     1       7.495   4.808  15.958  0.00  0.00    +0.000 NA
ATOM      2  H   UNL     1       7.883   5.726  15.774  0.00  0.00    +0.000 HD
ENDROOT
BRANCH   1   4
ATOM      3  C   UNL     1       6.234   3.946  14.057  0.00  0.00    +0.000 C 
ATOM      4  C   UNL     1       6.161   4.736  15.355  0.00  0.00    +0.000 C 
ENDBRANCH   1   4
BRANCH   1   5
ATOM      5  C   UNL     1       7.417   4.576  17.412  0.00  0.00    +0.000 C 
BRANCH   5   6
ATOM      6  C   UNL     1       5.955   4.561  17.879  0.00  0.00    +0.000 C 
BRANCH   6   7
ATOM      7  O   UNL     1       5.784   3.681  18.989  0.00  0.00    +0.000 OA
ATOM      8  H   UNL     1       5.338   4.197  19.677  0.00  0.00    +0.000 HD
ENDBRANCH   6   7
ENDBRANCH   5   6
ENDBRANCH   1   5
TORSDOF 4
ENDMDL
MODEL 6
REMARK VINA RESULT:      -3.2      9.975     10.254
REMARK  Name = 
REMARK  5 active torsions:
REMARK  status: ('A' for Active; 'I' for Inactive)
REMARK    1  A    between atoms: C_1  and  C_2
REMARK    2  A    between atoms: C_2  and  N_3
REMARK    3  A    between atoms: N_3  and  C_4
REMARK    4  A    between atoms: C_4  and  C_5
REMARK    5  A    between atoms: C_5  and  O_6
REMARK                            x       y       z     vdW  Elec       q    Type
REMARK                         _______ _______ _______ _____ _____    ______ ____
ROOT
ATOM      1  N   UNL     1       5.293   3.089  19.456  0.00  0.00    +0.000 NA
ATOM      2  H   UNL     1       5.776   3.278  20.326  0.00  0.00    +0.000 HD
ENDROOT
BRANCH   1   4
ATOM      3  C   UNL     1       4.390   5.353  19.368  0.00  0.00    +0.000 C 
ATOM      4  C   UNL     1       5.259   4.322  18.664  0.00  0.00    +0.000 C 
ENDBRANCH   1   4
BRANCH   1   5
ATOM      5  C   UNL     1       3.923   2.615  19.733  0.00  0.00    +0.000 C 
BRANCH   5   6
ATOM      6  C   UNL     1       3.428   1.707  18.600  0.00  0.00    +0.000 C 
BRANCH   6   7
ATOM      7  O   UNL     1       4.340   0.633  18.373  0.00  0.00    +0.000 OA
ATOM      8  H   UNL     1       4.485   0.214  19.235  0.00  0.00    +0.000 HD
ENDBRANCH   6   7
ENDBRANCH   5   6
ENDBRANCH   1   5
TORSDOF 4
ENDMDL
MODEL 7
REMARK VINA RESULT:      -3.2     11.682     12.168
REMARK  Name = 
REMARK  5 active torsions:
REMARK  status: ('A' for Active; 'I' for Inactive)
REMARK    1  A    between atoms: C_1  and  C_2
REMARK    2  A    between atoms: C_2  and  N_3
REMARK    3  A    between atoms: N_3  and  C_4
REMARK    4  A    between atoms: C_4  and  C_5
REMARK    5  A    between atoms: C_5  and  O_6
REMARK                            x       y       z     vdW  Elec       q    Type
REMARK                         _______ _______ _______ _____ _____    ______ ____
ROOT
ATOM      1  N   UNL     1       7.417   4.628  15.923  0.00  0.00    +0.000 NA
ATOM      2  H   UNL     1       7.481   5.549  15.506  0.00  0.00    +0.000 HD
ENDROOT
BRANCH   1   4
ATOM      3  C   UNL     1       6.157   3.947  13.948  0.00  0.00    +0.000 C 
ATOM      4  C   UNL     1       6.176   3.995  15.469  0.00  0.00    +0.000 C 
ENDBRANCH   1   4
BRANCH   1   5
ATOM      5  C   UNL     1       7.432   4.739  17.394  0.00  0.00    +0.000 C 
BRANCH   5   6
ATOM      6  C   UNL     1       7.372   6.210  17.825  0.00  0.00    +0.000 C 
BRANCH   6   7
ATOM      7  O   UNL     1       7.708   7.073  16.739  0.00  0.00    +0.000 OA
ATOM      8  H   UNL     1       8.648   7.286  16.843  0.00  0.00    +0.000 HD
ENDBRANCH   6   7
ENDBRANCH   5   6
ENDBRANCH   1   5
TORSDOF 4
ENDMDL
MODEL 8
REMARK VINA RESULT:      -3.1     10.353     10.874
REMARK  Name = 
REMARK  5 active torsions:
REMARK  status: ('A' for Active; 'I' for Inactive)
REMARK    1  A    between atoms: C_1  and  C_2
REMARK    2  A    between atoms: C_2  and  N_3
REMARK    3  A    between atoms: N_3  and  C_4
REMARK    4  A    between atoms: C_4  and  C_5
REMARK    5  A    between atoms: C_5  and  O_6
REMARK                            x       y       z     vdW  Elec       q    Type
REMARK                         _______ _______ _______ _____ _____    ______ ____
ROOT
ATOM      1  N   UNL     1       6.581   4.239  17.226  0.00  0.00    +0.000 NA
ATOM      2  H   UNL     1       6.720   3.249  17.061  0.00  0.00    +0.000 HD
ENDROOT
BRANCH   1   4
ATOM      3  C   UNL     1       6.025   3.995  14.863  0.00  0.00    +0.000 C 
ATOM      4  C   UNL     1       6.570   4.930  15.933  0.00  0.00    +0.000 C 
ENDBRANCH   1   4
BRANCH   1   5
ATOM      5  C   UNL     1       7.661   4.765  18.082  0.00  0.00    +0.000 C 
BRANCH   5   6
ATOM      6  C   UNL     1       7.079   5.583  19.243  0.00  0.00    +0.000 C 
BRANCH   6   7
ATOM      7  O   UNL     1       7.917   5.499  20.395  0.00  0.00    +0.000 OA
ATOM      8  H   UNL     1       7.458   4.921  21.023  0.00  0.00    +0.000 HD
ENDBRANCH   6   7
ENDBRANCH   5   6
ENDBRANCH   1   5
TORSDOF 4
ENDMDL
MODEL 9
REMARK VINA RESULT:      -3.1     14.916     15.438
REMARK  Name = 
REMARK  5 active torsions:
REMARK  status: ('A' for Active; 'I' for Inactive)
REMARK    1  A    between atoms: C_1  and  C_2
REMARK    2  A    between atoms: C_2  and  N_3
REMARK    3  A    between atoms: N_3  and  C_4
REMARK    4  A    between atoms: C_4  and  C_5
REMARK    5  A    between atoms: C_5  and  O_6
REMARK                            x       y       z     vdW  Elec       q    Type
REMARK                         _______ _______ _______ _____ _____    ______ ____
ROOT
ATOM      1  N   UNL     1       6.512   3.036  12.543  0.00  0.00    +0.000 NA
ATOM      2  H   UNL     1       7.193   3.551  11.997  0.00  0.00    +0.000 HD
ENDROOT
BRANCH   1   4
ATOM      3  C   UNL     1       4.323   3.265  11.493  0.00  0.00    +0.000 C 
ATOM      4  C   UNL     1       5.565   2.397  11.624  0.00  0.00    +0.000 C 
ENDBRANCH   1   4
BRANCH   1   5
ATOM      5  C   UNL     1       5.805   3.951  13.460  0.00  0.00    +0.000 C 
BRANCH   5   6
ATOM      6  C   UNL     1       6.693   4.303  14.661  0.00  0.00    +0.000 C 
BRANCH   6   7
ATOM      7  O   UNL     1       7.582   5.373  14.340  0.00  0.00    +0.000 OA
ATOM      8  H   UNL     1       7.236   5.778  13.530  0.00  0.00    +0.000 HD
ENDBRANCH   6   7
ENDBRANCH   5   6
ENDBRANCH   1   5
TORSDOF 4
ENDMDL
