MODEL 1
REMARK VINA RESULT:      -7.9      0.000      0.000
REMARK  Name = 
REMARK  7 active torsions:
REMARK  status: ('A' for Active; 'I' for Inactive)
REMARK    1  A    between atoms: C_1  and  C_2
REMARK    2  A    between atoms: C_2  and  C_3
REMARK    3  A    between atoms: C_8  and  C_10
REMARK    4  A    between atoms: C_10  and  C_11
REMARK    5  A    between atoms: C_11  and  S_12
REMARK    6  A    between atoms: S_12  and  C_15
REMARK    7  A    between atoms: C_15  and  C_16
REMARK                            x       y       z     vdW  Elec       q    Type
REMARK                         _______ _______ _______ _____ _____    ______ ____
ROOT
ATOM      1  C   UNL     1       6.521   4.865  18.220  0.00  0.00    +0.000 C 
ENDROOT
BRANCH   1   7
ATOM      2  C   UNL     1       6.281   3.827  13.464  0.00  0.00    +0.000 A 
ATOM      3  N   UNL     1       5.629   3.442  14.539  0.00  0.00    +0.000 NA
ATOM      4  N   UNL     1       5.982   4.176  15.642  0.00  0.00    +0.000 NA
ATOM      5  C   UNL     1       6.880   5.088  15.371  0.00  0.00    +0.000 A 
ATOM      6  N   UNL     1       7.474   5.984  16.218  0.00  0.00    +0.000 N 
ATOM      7  C   UNL     1       7.313   5.985  17.581  0.00  0.00    +0.000 C 
ATOM      8  O   UNL     1       7.831   6.875  18.254  0.00  0.00    +0.000 OA
ATOM      9  S   UNL     1       7.362   5.145  13.736  0.00  0.00    +0.000 S 
ATOM     10  H   UNL     1       8.071   6.695  15.823  0.00  0.00    +0.000 HD
BRANCH   2  12
ATOM     11  C   UNL     1       4.671   3.273  11.661  0.00  0.00    +0.000 C 
ATOM     12  C   UNL     1       6.113   3.193  12.128  0.00  0.00    +0.000 C 
ENDBRANCH   2  12
ENDBRANCH   1   7
BRANCH   1  13
ATOM     13  C   UNL     1       5.380   5.333  19.103  0.00  0.00    +0.000 C 
BRANCH  13  14
ATOM     14  S   UNL     1       4.020   5.838  18.059  0.00  0.00    +0.000 S 
ATOM     15  O   UNL     1       4.424   7.069  17.400  0.00  0.00    +0.000 OA
ATOM     16  O   UNL     1       3.619   4.670  17.295  0.00  0.00    +0.000 OA
BRANCH  14  17
ATOM     17  C   UNL     1       2.729   6.230  19.233  0.00  0.00    +0.000 C 
BRANCH  17  18
ATOM     18  C   UNL     1       2.215   4.954  19.850  0.00  0.00    +0.000 A 
ATOM     19  C   UNL     1       1.330   4.127  19.144  0.00  0.00    +0.000 A 
ATOM     20  C   UNL     1       0.838   2.955  19.721  0.00  0.00    +0.000 A 
ATOM     21  C   UNL     1       1.222   2.597  21.012  0.00  0.00    +0.000 A 
ATOM     22  C   UNL     1       2.094   3.415  21.728  0.00  0.00    +0.000 A 
ATOM     23  C   UNL     1       2.586   4.589  21.154  0.00  0.00    +0.000 A 
ENDBRANCH  17  18
ENDBRANCH  14  17
ENDBRANCH  13  14
ENDBRANCH   1  13
TORSDOF 6
ENDMDL
MODEL 2
REMARK VINA RESULT:      -7.7      1.592      1.981
REMARK  Name = 
REMARK  7 active torsions:
REMARK  status: ('A' for Active; 'I' for Inactive)
REMARK    1  A    between atoms: C_1  and  C_2
REMARK    2  A    between atoms: C_2  and  C_3
REMARK    3  A    between atoms: C_8  and  C_10
REMARK    4  A    between atoms: C_10  and  C_11
REMARK    5  A    between atoms: C_11  and  S_12
REMARK    6  A    between atoms: S_12  and  C_15
REMARK    7  A    between atoms: C_15  and  C_16
REMARK                            x       y       z     vdW  Elec       q    Type
REMARK                         _______ _______ _______ _____ _____    ______ ____
ROOT
ATOM      1  C   UNL     1       5.667   5.608  16.682  0.00  0.00    +0.000 C 
ENDROOT
BRANCH   1   7
ATOM      2  C   UNL     1       5.825   3.283  12.401  0.00  0.00    +0.000 A 
ATOM      3  N   UNL     1       4.888   3.559  13.281  0.00  0.00    +0.000 NA
ATOM      4  N   UNL     1       5.340   4.403  14.262  0.00  0.00    +0.000 NA
ATOM      5  C   UNL     1       6.593   4.739  14.096  0.00  0.00    +0.000 A 
ATOM      6  N   UNL     1       7.375   5.543  14.881  0.00  0.00    +0.000 N 
ATOM      7  C   UNL     1       6.992   6.047  16.098  0.00  0.00    +0.000 C 
ATOM      8  O   UNL     1       7.738   6.820  16.699  0.00  0.00    +0.000 OA
ATOM      9  S   UNL     1       7.330   4.070  12.712  0.00  0.00    +0.000 S 
ATOM     10  H   UNL     1       8.297   5.787  14.550  0.00  0.00    +0.000 HD
BRANCH   2  12
ATOM     11  C   UNL     1       6.795   1.426  11.075  0.00  0.00    +0.000 C 
ATOM     12  C   UNL     1       5.622   2.376  11.238  0.00  0.00    +0.000 C 
ENDBRANCH   2  12
ENDBRANCH   1   7
BRANCH   1  13
ATOM     13  C   UNL     1       5.716   4.279  17.412  0.00  0.00    +0.000 C 
BRANCH  13  14
ATOM     14  S   UNL     1       5.509   4.580  19.161  0.00  0.00    +0.000 S 
ATOM     15  O   UNL     1       5.244   3.295  19.787  0.00  0.00    +0.000 OA
ATOM     16  O   UNL     1       6.627   5.407  19.581  0.00  0.00    +0.000 OA
BRANCH  14  17
ATOM     17  C   UNL     1       4.012   5.557  19.232  0.00  0.00    +0.000 C 
BRANCH  17  18
ATOM     18  C   UNL     1       2.826   4.638  19.371  0.00  0.00    +0.000 A 
ATOM     19  C   UNL     1       2.256   4.033  18.241  0.00  0.00    +0.000 A 
ATOM     20  C   UNL     1       1.146   3.197  18.366  0.00  0.00    +0.000 A 
ATOM     21  C   UNL     1       0.589   2.958  19.621  0.00  0.00    +0.000 A 
ATOM     22  C   UNL     1       1.139   3.559  20.750  0.00  0.00    +0.000 A 
ATOM     23  C   UNL     1       2.249   4.398  20.628  0.00  0.00    +0.000 A 
ENDBRANCH  17  18
ENDBRANCH  14  17
ENDBRANCH  13  14
ENDBRANCH   1  13
TORSDOF 6
ENDMDL
MODEL 3
REMARK VINA RESULT:      -7.4      3.346      4.992
REMARK  Name = 
REMARK  7 active torsions:
REMARK  status: ('A' for Active; 'I' for Inactive)
REMARK    1  A    between atoms: C_1  and  C_2
REMARK    2  A    between atoms: C_2  and  C_3
REMARK    3  A    between atoms: C_8  and  C_10
REMARK    4  A    between atoms: C_10  and  C_11
REMARK    5  A    between atoms: C_11  and  S_12
REMARK    6  A    between atoms: S_12  and  C_15
REMARK    7  A    between atoms: C_15  and  C_16
REMARK                            x       y       z     vdW  Elec       q    Type
REMARK                         _______ _______ _______ _____ _____    ______ ____
ROOT
ATOM      1  C   UNL     1       3.864   2.378  19.361  0.00  0.00    +0.000 C 
ENDROOT
BRANCH   1   7
ATOM      2  C   UNL     1       7.163   5.876  18.566  0.00  0.00    +0.000 A 
ATOM      3  N   UNL     1       6.853   5.096  19.578  0.00  0.00    +0.000 NA
ATOM      4  N   UNL     1       5.933   4.143  19.227  0.00  0.00    +0.000 NA
ATOM      5  C   UNL     1       5.579   4.228  17.970  0.00  0.00    +0.000 A 
ATOM      6  N   UNL     1       4.677   3.463  17.281  0.00  0.00    +0.000 N 
ATOM      7  C   UNL     1       3.863   2.519  17.855  0.00  0.00    +0.000 C 
ATOM      8  O   UNL     1       3.135   1.829  17.142  0.00  0.00    +0.000 OA
ATOM      9  S   UNL     1       6.355   5.470  17.096  0.00  0.00    +0.000 S 
ATOM     10  H   UNL     1       4.600   3.593  16.283  0.00  0.00    +0.000 HD
BRANCH   2  12
ATOM     11  C   UNL     1       7.810   8.081  17.632  0.00  0.00    +0.000 C 
ATOM     12  C   UNL     1       8.122   7.011  18.664  0.00  0.00    +0.000 C 
ENDBRANCH   2  12
ENDBRANCH   1   7
BRANCH   1  13
ATOM     13  C   UNL     1       2.526   1.977  19.952  0.00  0.00    +0.000 C 
BRANCH  13  14
ATOM     14  S   UNL     1       2.062   3.185  21.185  0.00  0.00    +0.000 S 
ATOM     15  O   UNL     1       1.438   2.459  22.280  0.00  0.00    +0.000 OA
ATOM     16  O   UNL     1       3.223   4.029  21.406  0.00  0.00    +0.000 OA
BRANCH  14  17
ATOM     17  C   UNL     1       0.799   4.146  20.360  0.00  0.00    +0.000 C 
BRANCH  17  18
ATOM     18  C   UNL     1       1.420   5.395  19.789  0.00  0.00    +0.000 A 
ATOM     19  C   UNL     1       1.436   6.586  20.530  0.00  0.00    +0.000 A 
ATOM     20  C   UNL     1       1.992   7.749  19.996  0.00  0.00    +0.000 A 
ATOM     21  C   UNL     1       2.538   7.737  18.713  0.00  0.00    +0.000 A 
ATOM     22  C   UNL     1       2.521   6.563  17.963  0.00  0.00    +0.000 A 
ATOM     23  C   UNL     1       1.962   5.399  18.495  0.00  0.00    +0.000 A 
ENDBRANCH  17  18
ENDBRANCH  14  17
ENDBRANCH  13  14
ENDBRANCH   1  13
TORSDOF 6
ENDMDL
MODEL 4
REMARK VINA RESULT:      -7.3      3.203      4.904
REMARK  Name = 
REMARK  7 active torsions:
REMARK  status: ('A' for Active; 'I' for Inactive)
REMARK    1  A    between atoms: C_1  and  C_2
REMARK    2  A    between atoms: C_2  and  C_3
REMARK    3  A    between atoms: C_8  and  C_10
REMARK    4  A    between atoms: C_10  and  C_11
REMARK    5  A    between atoms: C_11  and  S_12
REMARK    6  A    between atoms: S_12  and  C_15
REMARK    7  A    between atoms: C_15  and  C_16
REMARK                            x       y       z     vdW  Elec       q    Type
REMARK                         _______ _______ _______ _____ _____    ______ ____
ROOT
ATOM      1  C   UNL     1       4.082   2.979  19.516  0.00  0.00    +0.000 C 
ENDROOT
BRANCH   1   7
ATOM      2  C   UNL     1       7.275   6.282  17.889  0.00  0.00    +0.000 A 
ATOM      3  N   UNL     1       6.933   5.814  19.069  0.00  0.00    +0.000 NA
ATOM      4  N   UNL     1       6.078   4.747  18.969  0.00  0.00    +0.000 NA
ATOM      5  C   UNL     1       5.802   4.441  17.727  0.00  0.00    +0.000 A 
ATOM      6  N   UNL     1       4.980   3.456  17.251  0.00  0.00    +0.000 N 
ATOM      7  C   UNL     1       4.171   2.674  18.036  0.00  0.00    +0.000 C 
ATOM      8  O   UNL     1       3.520   1.765  17.524  0.00  0.00    +0.000 OA
ATOM      9  S   UNL     1       6.580   5.418  16.566  0.00  0.00    +0.000 S 
ATOM     10  H   UNL     1       4.962   3.285  16.256  0.00  0.00    +0.000 HD
BRANCH   2  12
ATOM     11  C   UNL     1       7.394   8.752  17.699  0.00  0.00    +0.000 C 
ATOM     12  C   UNL     1       8.177   7.451  17.695  0.00  0.00    +0.000 C 
ENDBRANCH   2  12
ENDBRANCH   1   7
BRANCH   1  13
ATOM     13  C   UNL     1       2.682   2.876  20.091  0.00  0.00    +0.000 C 
BRANCH  13  14
ATOM     14  S   UNL     1       1.790   4.373  19.694  0.00  0.00    +0.000 S 
ATOM     15  O   UNL     1       1.551   4.360  18.260  0.00  0.00    +0.000 OA
ATOM     16  O   UNL     1       0.693   4.473  20.640  0.00  0.00    +0.000 OA
BRANCH  14  17
ATOM     17  C   UNL     1       2.978   5.662  20.052  0.00  0.00    +0.000 C 
BRANCH  17  18
ATOM     18  C   UNL     1       2.459   6.975  19.526  0.00  0.00    +0.000 A 
ATOM     19  C   UNL     1       1.642   7.790  20.323  0.00  0.00    +0.000 A 
ATOM     20  C   UNL     1       1.144   8.997  19.831  0.00  0.00    +0.000 A 
ATOM     21  C   UNL     1       1.453   9.403  18.534  0.00  0.00    +0.000 A 
ATOM     22  C   UNL     1       2.255   8.599  17.728  0.00  0.00    +0.000 A 
ATOM     23  C   UNL     1       2.753   7.390  18.217  0.00  0.00    +0.000 A 
ENDBRANCH  17  18
ENDBRANCH  14  17
ENDBRANCH  13  14
ENDBRANCH   1  13
TORSDOF 6
ENDMDL
MODEL 5
REMARK VINA RESULT:      -7.2      2.832      7.030
REMARK  Name = 
REMARK  7 active torsions:
REMARK  status: ('A' for Active; 'I' for Inactive)
REMARK    1  A    between atoms: C_1  and  C_2
REMARK    2  A    between atoms: C_2  and  C_3
REMARK    3  A    between atoms: C_8  and  C_10
REMARK    4  A    between atoms: C_10  and  C_11
REMARK    5  A    between atoms: C_11  and  S_12
REMARK    6  A    between atoms: S_12  and  C_15
REMARK    7  A    between atoms: C_15  and  C_16
REMARK                            x       y       z     vdW  Elec       q    Type
REMARK                         _______ _______ _______ _____ _____    ______ ____
ROOT
ATOM      1  C   UNL     1       4.874   4.553  18.144  0.00  0.00    +0.000 C 
ENDROOT
BRANCH   1   7
ATOM      2  C   UNL     1       2.113   8.545  18.587  0.00  0.00    +0.000 A 
ATOM      3  N   UNL     1       2.846   8.017  17.633  0.00  0.00    +0.000 NA
ATOM      4  N   UNL     1       3.298   6.767  17.966  0.00  0.00    +0.000 NA
ATOM      5  C   UNL     1       2.895   6.388  19.152  0.00  0.00    +0.000 A 
ATOM      6  N   UNL     1       3.164   5.222  19.816  0.00  0.00    +0.000 N 
ATOM      7  C   UNL     1       4.048   4.268  19.379  0.00  0.00    +0.000 C 
ATOM      8  O   UNL     1       4.170   3.217  20.008  0.00  0.00    +0.000 OA
ATOM      9  S   UNL     1       1.909   7.520  19.961  0.00  0.00    +0.000 S 
ATOM     10  H   UNL     1       2.684   5.042  20.685  0.00  0.00    +0.000 HD
BRANCH   2  12
ATOM     11  C   UNL     1       0.064   9.831  18.042  0.00  0.00    +0.000 C 
ATOM     12  C   UNL     1       1.507   9.903  18.507  0.00  0.00    +0.000 C 
ENDBRANCH   2  12
ENDBRANCH   1   7
BRANCH   1  13
ATOM     13  C   UNL     1       6.233   5.164  18.428  0.00  0.00    +0.000 C 
BRANCH  13  14
ATOM     14  S   UNL     1       7.085   5.411  16.877  0.00  0.00    +0.000 S 
ATOM     15  O   UNL     1       7.710   6.722  16.937  0.00  0.00    +0.000 OA
ATOM     16  O   UNL     1       7.868   4.212  16.632  0.00  0.00    +0.000 OA
BRANCH  14  17
ATOM     17  C   UNL     1       5.752   5.481  15.687  0.00  0.00    +0.000 C 
BRANCH  17  18
ATOM     18  C   UNL     1       6.228   4.912  14.375  0.00  0.00    +0.000 A 
ATOM     19  C   UNL     1       7.339   5.464  13.719  0.00  0.00    +0.000 A 
ATOM     20  C   UNL     1       7.769   4.951  12.494  0.00  0.00    +0.000 A 
ATOM     21  C   UNL     1       7.092   3.883  11.908  0.00  0.00    +0.000 A 
ATOM     22  C   UNL     1       5.982   3.332  12.543  0.00  0.00    +0.000 A 
ATOM     23  C   UNL     1       5.548   3.845  13.767  0.00  0.00    +0.000 A 
ENDBRANCH  17  18
ENDBRANCH  14  17
ENDBRANCH  13  14
ENDBRANCH   1  13
TORSDOF 6
ENDMDL
MODEL 6
REMARK VINA RESULT:      -7.2      1.646      2.030
REMARK  Name = 
REMARK  7 active torsions:
REMARK  status: ('A' for Active; 'I' for Inactive)
REMARK    1  A    between atoms: C_1  and  C_2
REMARK    2  A    between atoms: C_2  and  C_3
REMARK    3  A    between atoms: C_8  and  C_10
REMARK    4  A    between atoms: C_10  and  C_11
REMARK    5  A    between atoms: C_11  and  S_12
REMARK    6  A    between atoms: S_12  and  C_15
REMARK    7  A    between atoms: C_15  and  C_16
REMARK                            x       y       z     vdW  Elec       q    Type
REMARK                         _______ _______ _______ _____ _____    ______ ____
ROOT
ATOM      1  C   UNL     1       5.618   5.426  16.565  0.00  0.00    +0.000 C 
ENDROOT
BRANCH   1   7
ATOM      2  C   UNL     1       5.899   3.265  12.205  0.00  0.00    +0.000 A 
ATOM      3  N   UNL     1       4.941   3.490  13.077  0.00  0.00    +0.000 NA
ATOM      4  N   UNL     1       5.358   4.305  14.097  0.00  0.00    +0.000 NA
ATOM      5  C   UNL     1       6.608   4.672  13.967  0.00  0.00    +0.000 A 
ATOM      6  N   UNL     1       7.359   5.461  14.795  0.00  0.00    +0.000 N 
ATOM      7  C   UNL     1       6.944   5.912  16.023  0.00  0.00    +0.000 C 
ATOM      8  O   UNL     1       7.663   6.677  16.665  0.00  0.00    +0.000 OA
ATOM      9  S   UNL     1       7.382   4.069  12.573  0.00  0.00    +0.000 S 
ATOM     10  H   UNL     1       8.281   5.736  14.490  0.00  0.00    +0.000 HD
BRANCH   2  12
ATOM     11  C   UNL     1       6.119   0.961  11.314  0.00  0.00    +0.000 C 
ATOM     12  C   UNL     1       5.736   2.398  11.006  0.00  0.00    +0.000 C 
ENDBRANCH   2  12
ENDBRANCH   1   7
BRANCH   1  13
ATOM     13  C   UNL     1       5.721   4.218  17.477  0.00  0.00    +0.000 C 
BRANCH  13  14
ATOM     14  S   UNL     1       5.337   4.729  19.146  0.00  0.00    +0.000 S 
ATOM     15  O   UNL     1       6.590   5.126  19.769  0.00  0.00    +0.000 OA
ATOM     16  O   UNL     1       4.215   5.646  19.058  0.00  0.00    +0.000 OA
BRANCH  14  17
ATOM     17  C   UNL     1       4.784   3.214  19.919  0.00  0.00    +0.000 C 
BRANCH  17  18
ATOM     18  C   UNL     1       3.286   3.110  19.792  0.00  0.00    +0.000 A 
ATOM     19  C   UNL     1       2.703   2.596  18.625  0.00  0.00    +0.000 A 
ATOM     20  C   UNL     1       1.315   2.519  18.498  0.00  0.00    +0.000 A 
ATOM     21  C   UNL     1       0.493   2.956  19.535  0.00  0.00    +0.000 A 
ATOM     22  C   UNL     1       1.059   3.477  20.696  0.00  0.00    +0.000 A 
ATOM     23  C   UNL     1       2.447   3.558  20.824  0.00  0.00    +0.000 A 
ENDBRANCH  17  18
ENDBRANCH  14  17
ENDBRANCH  13  14
ENDBRANCH   1  13
TORSDOF 6
ENDMDL
MODEL 7
REMARK VINA RESULT:      -7.2      3.233      7.447
REMARK  Name = 
REMARK  7 active torsions:
REMARK  status: ('A' for Active; 'I' for Inactive)
REMARK    1  A    between atoms: C_1  and  C_2
REMARK    2  A    between atoms: C_2  and  C_3
REMARK    3  A    between atoms: C_8  and  C_10
REMARK    4  A    between atoms: C_10  and  C_11
REMARK    5  A    between atoms: C_11  and  S_12
REMARK    6  A    between atoms: S_12  and  C_15
REMARK    7  A    between atoms: C_15  and  C_16
REMARK                            x       y       z     vdW  Elec       q    Type
REMARK                         _______ _______ _______ _____ _____    ______ ____
ROOT
ATOM      1  C   UNL     1       4.330   5.599  18.089  0.00  0.00    +0.000 C 
ENDROOT
BRANCH   1   7
ATOM      2  C   UNL     1       1.282   9.167  19.404  0.00  0.00    +0.000 A 
ATOM      3  N   UNL     1       1.909   8.834  18.298  0.00  0.00    +0.000 NA
ATOM      4  N   UNL     1       2.531   7.618  18.408  0.00  0.00    +0.000 NA
ATOM      5  C   UNL     1       2.355   7.070  19.584  0.00  0.00    +0.000 A 
ATOM      6  N   UNL     1       2.838   5.879  20.054  0.00  0.00    +0.000 N 
ATOM      7  C   UNL     1       3.737   5.088  19.383  0.00  0.00    +0.000 C 
ATOM      8  O   UNL     1       4.059   3.998  19.855  0.00  0.00    +0.000 OA
ATOM      9  S   UNL     1       1.395   7.985  20.656  0.00  0.00    +0.000 S 
ATOM     10  H   UNL     1       2.518   5.553  20.954  0.00  0.00    +0.000 HD
BRANCH   2  12
ATOM     11  C   UNL     1      -0.538  10.600  18.517  0.00  0.00    +0.000 C 
ATOM     12  C   UNL     1       0.537  10.445  19.577  0.00  0.00    +0.000 C 
ENDBRANCH   2  12
ENDBRANCH   1   7
BRANCH   1  13
ATOM     13  C   UNL     1       5.757   6.100  18.210  0.00  0.00    +0.000 C 
BRANCH  13  14
ATOM     14  S   UNL     1       6.417   6.350  16.569  0.00  0.00    +0.000 S 
ATOM     15  O   UNL     1       5.293   6.661  15.700  0.00  0.00    +0.000 OA
ATOM     16  O   UNL     1       7.541   7.259  16.701  0.00  0.00    +0.000 OA
BRANCH  14  17
ATOM     17  C   UNL     1       7.034   4.731  16.127  0.00  0.00    +0.000 C 
BRANCH  17  18
ATOM     18  C   UNL     1       6.926   4.548  14.635  0.00  0.00    +0.000 A 
ATOM     19  C   UNL     1       5.985   3.661  14.091  0.00  0.00    +0.000 A 
ATOM     20  C   UNL     1       5.896   3.477  12.710  0.00  0.00    +0.000 A 
ATOM     21  C   UNL     1       6.748   4.173  11.856  0.00  0.00    +0.000 A 
ATOM     22  C   UNL     1       7.694   5.050  12.383  0.00  0.00    +0.000 A 
ATOM     23  C   UNL     1       7.786   5.235  13.764  0.00  0.00    +0.000 A 
ENDBRANCH  17  18
ENDBRANCH  14  17
ENDBRANCH  13  14
ENDBRANCH   1  13
TORSDOF 6
ENDMDL
MODEL 8
REMARK VINA RESULT:      -7.1      4.497      7.311
REMARK  Name = 
REMARK  7 active torsions:
REMARK  status: ('A' for Active; 'I' for Inactive)
REMARK    1  A    between atoms: C_1  and  C_2
REMARK    2  A    between atoms: C_2  and  C_3
REMARK    3  A    between atoms: C_8  and  C_10
REMARK    4  A    between atoms: C_10  and  C_11
REMARK    5  A    between atoms: C_11  and  S_12
REMARK    6  A    between atoms: S_12  and  C_15
REMARK    7  A    between atoms: C_15  and  C_16
REMARK                            x       y       z     vdW  Elec       q    Type
REMARK                         _______ _______ _______ _____ _____    ______ ____
ROOT
ATOM      1  C   UNL     1       2.530   7.271  18.876  0.00  0.00    +0.000 C 
ENDROOT
BRANCH   1   7
ATOM      2  C   UNL     1      -0.089   9.843  22.082  0.00  0.00    +0.000 A 
ATOM      3  N   UNL     1       0.688   8.784  22.145  0.00  0.00    +0.000 NA
ATOM      4  N   UNL     1       1.337   8.555  20.960  0.00  0.00    +0.000 NA
ATOM      5  C   UNL     1       1.037   9.440  20.044  0.00  0.00    +0.000 A 
ATOM      6  N   UNL     1       1.476   9.516  18.750  0.00  0.00    +0.000 N 
ATOM      7  C   UNL     1       2.239   8.556  18.133  0.00  0.00    +0.000 C 
ATOM      8  O   UNL     1       2.646   8.746  16.987  0.00  0.00    +0.000 OA
ATOM      9  S   UNL     1      -0.053  10.647  20.555  0.00  0.00    +0.000 S 
ATOM     10  H   UNL     1       1.228  10.329  18.205  0.00  0.00    +0.000 HD
BRANCH   2  12
ATOM     11  C   UNL     1      -1.564  11.661  22.901  0.00  0.00    +0.000 C 
ATOM     12  C   UNL     1      -0.930  10.317  23.215  0.00  0.00    +0.000 C 
ENDBRANCH   2  12
ENDBRANCH   1   7
BRANCH   1  13
ATOM     13  C   UNL     1       2.494   6.026  18.009  0.00  0.00    +0.000 C 
BRANCH  13  14
ATOM     14  S   UNL     1       4.159   5.399  17.840  0.00  0.00    +0.000 S 
ATOM     15  O   UNL     1       4.611   5.744  16.502  0.00  0.00    +0.000 OA
ATOM     16  O   UNL     1       4.892   5.829  19.018  0.00  0.00    +0.000 OA
BRANCH  14  17
ATOM     17  C   UNL     1       3.936   3.626  17.915  0.00  0.00    +0.000 C 
BRANCH  17  18
ATOM     18  C   UNL     1       2.977   3.293  19.029  0.00  0.00    +0.000 A 
ATOM     19  C   UNL     1       1.608   3.138  18.769  0.00  0.00    +0.000 A 
ATOM     20  C   UNL     1       0.715   2.849  19.802  0.00  0.00    +0.000 A 
ATOM     21  C   UNL     1       1.180   2.716  21.109  0.00  0.00    +0.000 A 
ATOM     22  C   UNL     1       2.536   2.877  21.384  0.00  0.00    +0.000 A 
ATOM     23  C   UNL     1       3.430   3.168  20.352  0.00  0.00    +0.000 A 
ENDBRANCH  17  18
ENDBRANCH  14  17
ENDBRANCH  13  14
ENDBRANCH   1  13
TORSDOF 6
ENDMDL
MODEL 9
REMARK VINA RESULT:      -7.1      1.633      2.095
REMARK  Name = 
REMARK  7 active torsions:
REMARK  status: ('A' for Active; 'I' for Inactive)
REMARK    1  A    between atoms: C_1  and  C_2
REMARK    2  A    between atoms: C_2  and  C_3
REMARK    3  A    between atoms: C_8  and  C_10
REMARK    4  A    between atoms: C_10  and  C_11
REMARK    5  A    between atoms: C_11  and  S_12
REMARK    6  A    between atoms: S_12  and  C_15
REMARK    7  A    between atoms: C_15  and  C_16
REMARK                            x       y       z     vdW  Elec       q    Type
REMARK                         _______ _______ _______ _____ _____    ______ ____
ROOT
ATOM      1  C   UNL     1       6.496   4.706  17.003  0.00  0.00    +0.000 C 
ENDROOT
BRANCH   1   7
ATOM      2  C   UNL     1       6.537   3.357  12.320  0.00  0.00    +0.000 A 
ATOM      3  N   UNL     1       5.853   3.010  13.387  0.00  0.00    +0.000 NA
ATOM      4  N   UNL     1       6.116   3.828  14.454  0.00  0.00    +0.000 NA
ATOM      5  C   UNL     1       6.983   4.765  14.164  0.00  0.00    +0.000 A 
ATOM      6  N   UNL     1       7.492   5.741  14.977  0.00  0.00    +0.000 N 
ATOM      7  C   UNL     1       7.265   5.821  16.328  0.00  0.00    +0.000 C 
ATOM      8  O   UNL     1       7.707   6.777  16.964  0.00  0.00    +0.000 OA
ATOM      9  S   UNL     1       7.540   4.743  12.553  0.00  0.00    +0.000 S 
ATOM     10  H   UNL     1       8.074   6.455  14.564  0.00  0.00    +0.000 HD
BRANCH   2  12
ATOM     11  C   UNL     1       6.069   1.181  11.227  0.00  0.00    +0.000 C 
ATOM     12  C   UNL     1       6.465   2.632  11.021  0.00  0.00    +0.000 C 
ENDBRANCH   2  12
ENDBRANCH   1   7
BRANCH   1  13
ATOM     13  C   UNL     1       5.114   5.103  17.485  0.00  0.00    +0.000 C 
BRANCH  13  14
ATOM     14  S   UNL     1       5.069   4.966  19.267  0.00  0.00    +0.000 S 
ATOM     15  O   UNL     1       6.416   5.227  19.749  0.00  0.00    +0.000 OA
ATOM     16  O   UNL     1       3.939   5.756  19.721  0.00  0.00    +0.000 OA
BRANCH  14  17
ATOM     17  C   UNL     1       4.706   3.235  19.533  0.00  0.00    +0.000 C 
BRANCH  17  18
ATOM     18  C   UNL     1       3.217   3.058  19.687  0.00  0.00    +0.000 A 
ATOM     19  C   UNL     1       2.630   3.032  20.961  0.00  0.00    +0.000 A 
ATOM     20  C   UNL     1       1.254   2.849  21.106  0.00  0.00    +0.000 A 
ATOM     21  C   UNL     1       0.448   2.687  19.981  0.00  0.00    +0.000 A 
ATOM     22  C   UNL     1       1.019   2.702  18.710  0.00  0.00    +0.000 A 
ATOM     23  C   UNL     1       2.396   2.883  18.562  0.00  0.00    +0.000 A 
ENDBRANCH  17  18
ENDBRANCH  14  17
ENDBRANCH  13  14
ENDBRANCH   1  13
TORSDOF 6
ENDMDL
