MODEL 1
REMARK VINA RESULT:      -8.4      0.000      0.000
REMARK  Name = 
REMARK  1 active torsions:
REMARK  status: ('A' for Active; 'I' for Inactive)
REMARK    1  A    between atoms: C_4  and  C_5
REMARK                            x       y       z     vdW  Elec       q    Type
REMARK                         _______ _______ _______ _____ _____    ______ ____
ROOT
ATOM      1  O   UNL     1       1.724   4.724  21.056  0.00  0.00    +0.000 OA
ATOM      2  C   UNL     1       2.480   5.173  20.224  0.00  0.00    +0.000 C 
ATOM      3  O   UNL     1       3.428   4.452  19.517  0.00  0.00    +0.000 OA
ATOM      4  C   UNL     1       4.300   5.390  18.880  0.00  0.00    +0.000 C 
ATOM      5  C   UNL     1       3.379   6.516  18.607  0.00  0.00    +0.000 A 
ATOM      6  C   UNL     1       3.358   7.505  17.643  0.00  0.00    +0.000 A 
ATOM      7  C   UNL     1       2.452   8.552  17.806  0.00  0.00    +0.000 A 
ATOM      8  C   UNL     1       1.687   8.682  18.989  0.00  0.00    +0.000 A 
ATOM      9  C   UNL     1       0.920   9.834  19.226  0.00  0.00    +0.000 A 
ATOM     10  C   UNL     1       0.310  10.042  20.460  0.00  0.00    +0.000 A 
ATOM     11  C   UNL     1       0.432   9.085  21.468  0.00  0.00    +0.000 A 
ATOM     12  C   UNL     1       1.097   7.885  21.217  0.00  0.00    +0.000 A 
ATOM     13  C   UNL     1       1.729   7.666  19.971  0.00  0.00    +0.000 A 
ATOM     14  C   UNL     1       2.477   6.530  19.652  0.00  0.00    +0.000 A 
ENDROOT
BRANCH   4  15
ATOM     15  C   UNL     1       5.241   4.937  17.794  0.00  0.00    +0.000 A 
ATOM     16  C   UNL     1       6.630   5.034  17.860  0.00  0.00    +0.000 A 
ATOM     17  C   UNL     1       7.407   4.683  16.748  0.00  0.00    +0.000 A 
ATOM     18  C   UNL     1       6.806   4.227  15.570  0.00  0.00    +0.000 A 
ATOM     19  C   UNL     1       5.426   4.097  15.503  0.00  0.00    +0.000 A 
ATOM     20  C   UNL     1       4.655   4.444  16.606  0.00  0.00    +0.000 A 
ENDBRANCH   4  15
TORSDOF 1
ENDMDL
MODEL 2
REMARK VINA RESULT:      -8.4      0.480      1.118
REMARK  Name = 
REMARK  1 active torsions:
REMARK  status: ('A' for Active; 'I' for Inactive)
REMARK    1  A    between atoms: C_4  and  C_5
REMARK                            x       y       z     vdW  Elec       q    Type
REMARK                         _______ _______ _______ _____ _____    ______ ____
ROOT
ATOM      1  O   UNL     1       1.760   4.940  21.001  0.00  0.00    +0.000 OA
ATOM      2  C   UNL     1       2.439   5.434  20.129  0.00  0.00    +0.000 C 
ATOM      3  O   UNL     1       3.344   4.759  19.326  0.00  0.00    +0.000 OA
ATOM      4  C   UNL     1       4.145   5.739  18.657  0.00  0.00    +0.000 C 
ATOM      5  C   UNL     1       3.182   6.851  18.496  0.00  0.00    +0.000 A 
ATOM      6  C   UNL     1       3.065   7.870  17.572  0.00  0.00    +0.000 A 
ATOM      7  C   UNL     1       2.152   8.890  17.840  0.00  0.00    +0.000 A 
ATOM      8  C   UNL     1       1.480   8.963  19.082  0.00  0.00    +0.000 A 
ATOM      9  C   UNL     1       0.709  10.088  19.417  0.00  0.00    +0.000 A 
ATOM     10  C   UNL     1       0.193  10.240  20.701  0.00  0.00    +0.000 A 
ATOM     11  C   UNL     1       0.413   9.254  21.663  0.00  0.00    +0.000 A 
ATOM     12  C   UNL     1       1.081   8.079  21.319  0.00  0.00    +0.000 A 
ATOM     13  C   UNL     1       1.619   7.916  20.022  0.00  0.00    +0.000 A 
ATOM     14  C   UNL     1       2.363   6.809  19.607  0.00  0.00    +0.000 A 
ENDROOT
BRANCH   4  15
ATOM     15  C   UNL     1       5.007   5.344  17.487  0.00  0.00    +0.000 A 
ATOM     16  C   UNL     1       4.680   4.350  16.564  0.00  0.00    +0.000 A 
ATOM     17  C   UNL     1       5.605   3.986  15.576  0.00  0.00    +0.000 A 
ATOM     18  C   UNL     1       6.852   4.613  15.497  0.00  0.00    +0.000 A 
ATOM     19  C   UNL     1       7.177   5.624  16.391  0.00  0.00    +0.000 A 
ATOM     20  C   UNL     1       6.261   5.987  17.371  0.00  0.00    +0.000 A 
ENDBRANCH   4  15
TORSDOF 1
ENDMDL
MODEL 3
REMARK VINA RESULT:      -7.9      3.238      4.328
REMARK  Name = 
REMARK  1 active torsions:
REMARK  status: ('A' for Active; 'I' for Inactive)
REMARK    1  A    between atoms: C_4  and  C_5
REMARK                            x       y       z     vdW  Elec       q    Type
REMARK                         _______ _______ _______ _____ _____    ______ ____
ROOT
ATOM      1  O   UNL     1       6.286   5.163  19.691  0.00  0.00    +0.000 OA
ATOM      2  C   UNL     1       5.814   4.946  18.598  0.00  0.00    +0.000 C 
ATOM      3  O   UNL     1       6.506   4.971  17.398  0.00  0.00    +0.000 OA
ATOM      4  C   UNL     1       5.541   4.968  16.341  0.00  0.00    +0.000 C 
ATOM      5  C   UNL     1       4.448   4.168  16.938  0.00  0.00    +0.000 A 
ATOM      6  C   UNL     1       3.464   3.364  16.397  0.00  0.00    +0.000 A 
ATOM      7  C   UNL     1       2.447   2.922  17.243  0.00  0.00    +0.000 A 
ATOM      8  C   UNL     1       2.338   3.401  18.570  0.00  0.00    +0.000 A 
ATOM      9  C   UNL     1       1.212   3.100  19.352  0.00  0.00    +0.000 A 
ATOM     10  C   UNL     1       1.021   3.711  20.589  0.00  0.00    +0.000 A 
ATOM     11  C   UNL     1       1.968   4.610  21.077  0.00  0.00    +0.000 A 
ATOM     12  C   UNL     1       3.146   4.839  20.366  0.00  0.00    +0.000 A 
ATOM     13  C   UNL     1       3.349   4.232  19.104  0.00  0.00    +0.000 A 
ATOM     14  C   UNL     1       4.460   4.456  18.288  0.00  0.00    +0.000 A 
ENDROOT
BRANCH   4  15
ATOM     15  C   UNL     1       5.967   4.681  14.925  0.00  0.00    +0.000 A 
ATOM     16  C   UNL     1       5.272   3.854  14.043  0.00  0.00    +0.000 A 
ATOM     17  C   UNL     1       5.814   3.567  12.783  0.00  0.00    +0.000 A 
ATOM     18  C   UNL     1       7.044   4.106  12.393  0.00  0.00    +0.000 A 
ATOM     19  C   UNL     1       7.730   4.955  13.251  0.00  0.00    +0.000 A 
ATOM     20  C   UNL     1       7.193   5.241  14.500  0.00  0.00    +0.000 A 
ENDBRANCH   4  15
TORSDOF 1
ENDMDL
MODEL 4
REMARK VINA RESULT:      -7.8      3.111      4.156
REMARK  Name = 
REMARK  1 active torsions:
REMARK  status: ('A' for Active; 'I' for Inactive)
REMARK    1  A    between atoms: C_4  and  C_5
REMARK                            x       y       z     vdW  Elec       q    Type
REMARK                         _______ _______ _______ _____ _____    ______ ____
ROOT
ATOM      1  O   UNL     1       6.460   5.142  19.706  0.00  0.00    +0.000 OA
ATOM      2  C   UNL     1       6.022   4.961  18.592  0.00  0.00    +0.000 C 
ATOM      3  O   UNL     1       6.765   4.935  17.423  0.00  0.00    +0.000 OA
ATOM      4  C   UNL     1       5.850   5.006  16.325  0.00  0.00    +0.000 C 
ATOM      5  C   UNL     1       4.675   4.290  16.871  0.00  0.00    +0.000 A 
ATOM      6  C   UNL     1       3.657   3.564  16.285  0.00  0.00    +0.000 A 
ATOM      7  C   UNL     1       2.574   3.199  17.083  0.00  0.00    +0.000 A 
ATOM      8  C   UNL     1       2.443   3.684  18.406  0.00  0.00    +0.000 A 
ATOM      9  C   UNL     1       1.265   3.468  19.137  0.00  0.00    +0.000 A 
ATOM     10  C   UNL     1       1.066   4.091  20.367  0.00  0.00    +0.000 A 
ATOM     11  C   UNL     1       2.056   4.915  20.899  0.00  0.00    +0.000 A 
ATOM     12  C   UNL     1       3.278   5.055  20.241  0.00  0.00    +0.000 A 
ATOM     13  C   UNL     1       3.489   4.436  18.988  0.00  0.00    +0.000 A 
ATOM     14  C   UNL     1       4.649   4.575  18.222  0.00  0.00    +0.000 A 
ENDROOT
BRANCH   4  15
ATOM     15  C   UNL     1       6.314   4.688  14.928  0.00  0.00    +0.000 A 
ATOM     16  C   UNL     1       7.424   5.267  14.313  0.00  0.00    +0.000 A 
ATOM     17  C   UNL     1       7.704   4.982  12.970  0.00  0.00    +0.000 A 
ATOM     18  C   UNL     1       6.888   4.115  12.237  0.00  0.00    +0.000 A 
ATOM     19  C   UNL     1       5.798   3.509  12.847  0.00  0.00    +0.000 A 
ATOM     20  C   UNL     1       5.520   3.790  14.179  0.00  0.00    +0.000 A 
ENDBRANCH   4  15
TORSDOF 1
ENDMDL
MODEL 5
REMARK VINA RESULT:      -7.4      1.817      2.900
REMARK  Name = 
REMARK  1 active torsions:
REMARK  status: ('A' for Active; 'I' for Inactive)
REMARK    1  A    between atoms: C_4  and  C_5
REMARK                            x       y       z     vdW  Elec       q    Type
REMARK                         _______ _______ _______ _____ _____    ______ ____
ROOT
ATOM      1  O   UNL     1       2.610   2.370  18.039  0.00  0.00    +0.000 OA
ATOM      2  C   UNL     1       3.371   3.179  17.558  0.00  0.00    +0.000 C 
ATOM      3  O   UNL     1       4.232   2.951  16.497  0.00  0.00    +0.000 OA
ATOM      4  C   UNL     1       5.156   4.042  16.445  0.00  0.00    +0.000 C 
ATOM      5  C   UNL     1       4.321   5.163  16.932  0.00  0.00    +0.000 A 
ATOM      6  C   UNL     1       4.347   6.525  16.709  0.00  0.00    +0.000 A 
ATOM      7  C   UNL     1       3.536   7.331  17.507  0.00  0.00    +0.000 A 
ATOM      8  C   UNL     1       2.825   6.795  18.607  0.00  0.00    +0.000 A 
ATOM      9  C   UNL     1       2.164   7.637  19.514  0.00  0.00    +0.000 A 
ATOM     10  C   UNL     1       1.615   7.127  20.688  0.00  0.00    +0.000 A 
ATOM     11  C   UNL     1       1.694   5.761  20.959  0.00  0.00    +0.000 A 
ATOM     12  C   UNL     1       2.249   4.893  20.020  0.00  0.00    +0.000 A 
ATOM     13  C   UNL     1       2.818   5.399  18.828  0.00  0.00    +0.000 A 
ATOM     14  C   UNL     1       3.459   4.618  17.863  0.00  0.00    +0.000 A 
ENDROOT
BRANCH   4  15
ATOM     15  C   UNL     1       6.018   4.250  15.228  0.00  0.00    +0.000 A 
ATOM     16  C   UNL     1       7.158   5.054  15.193  0.00  0.00    +0.000 A 
ATOM     17  C   UNL     1       7.825   5.266  13.980  0.00  0.00    +0.000 A 
ATOM     18  C   UNL     1       7.367   4.673  12.799  0.00  0.00    +0.000 A 
ATOM     19  C   UNL     1       6.252   3.846  12.826  0.00  0.00    +0.000 A 
ATOM     20  C   UNL     1       5.590   3.635  14.029  0.00  0.00    +0.000 A 
ENDBRANCH   4  15
TORSDOF 1
ENDMDL
MODEL 6
REMARK VINA RESULT:      -7.4      2.277      3.620
REMARK  Name = 
REMARK  1 active torsions:
REMARK  status: ('A' for Active; 'I' for Inactive)
REMARK    1  A    between atoms: C_4  and  C_5
REMARK                            x       y       z     vdW  Elec       q    Type
REMARK                         _______ _______ _______ _____ _____    ______ ____
ROOT
ATOM      1  O   UNL     1       2.077  10.831  17.454  0.00  0.00    +0.000 OA
ATOM      2  C   UNL     1       2.036   9.714  17.920  0.00  0.00    +0.000 C 
ATOM      3  O   UNL     1       2.694   8.603  17.418  0.00  0.00    +0.000 OA
ATOM      4  C   UNL     1       2.145   7.448  18.061  0.00  0.00    +0.000 C 
ATOM      5  C   UNL     1       1.802   7.985  19.396  0.00  0.00    +0.000 A 
ATOM      6  C   UNL     1       1.704   7.409  20.647  0.00  0.00    +0.000 A 
ATOM      7  C   UNL     1       1.140   8.169  21.672  0.00  0.00    +0.000 A 
ATOM      8  C   UNL     1       0.550   9.428  21.409  0.00  0.00    +0.000 A 
ATOM      9  C   UNL     1      -0.178  10.101  22.403  0.00  0.00    +0.000 A 
ATOM     10  C   UNL     1      -0.904  11.250  22.099  0.00  0.00    +0.000 A 
ATOM     11  C   UNL     1      -0.889  11.761  20.802  0.00  0.00    +0.000 A 
ATOM     12  C   UNL     1      -0.084  11.171  19.827  0.00  0.00    +0.000 A 
ATOM     13  C   UNL     1       0.650   9.999  20.120  0.00  0.00    +0.000 A 
ATOM     14  C   UNL     1       1.425   9.297  19.193  0.00  0.00    +0.000 A 
ENDROOT
BRANCH   4  15
ATOM     15  C   UNL     1       2.850   6.120  17.967  0.00  0.00    +0.000 A 
ATOM     16  C   UNL     1       4.233   5.964  17.869  0.00  0.00    +0.000 A 
ATOM     17  C   UNL     1       4.778   4.688  17.675  0.00  0.00    +0.000 A 
ATOM     18  C   UNL     1       3.952   3.563  17.586  0.00  0.00    +0.000 A 
ATOM     19  C   UNL     1       2.577   3.701  17.713  0.00  0.00    +0.000 A 
ATOM     20  C   UNL     1       2.035   4.967  17.906  0.00  0.00    +0.000 A 
ENDBRANCH   4  15
TORSDOF 1
ENDMDL
MODEL 7
REMARK VINA RESULT:      -7.4      2.572      4.226
REMARK  Name = 
REMARK  1 active torsions:
REMARK  status: ('A' for Active; 'I' for Inactive)
REMARK    1  A    between atoms: C_4  and  C_5
REMARK                            x       y       z     vdW  Elec       q    Type
REMARK                         _______ _______ _______ _____ _____    ______ ____
ROOT
ATOM      1  O   UNL     1       1.451  11.884  18.300  0.00  0.00    +0.000 OA
ATOM      2  C   UNL     1       1.524  10.701  18.541  0.00  0.00    +0.000 C 
ATOM      3  O   UNL     1       2.246   9.769  17.814  0.00  0.00    +0.000 OA
ATOM      4  C   UNL     1       1.825   8.468  18.237  0.00  0.00    +0.000 C 
ATOM      5  C   UNL     1       1.503   8.708  19.661  0.00  0.00    +0.000 A 
ATOM      6  C   UNL     1       1.512   7.897  20.779  0.00  0.00    +0.000 A 
ATOM      7  C   UNL     1       0.937   8.395  21.948  0.00  0.00    +0.000 A 
ATOM      8  C   UNL     1       0.234   9.623  21.953  0.00  0.00    +0.000 A 
ATOM      9  C   UNL     1      -0.500  10.025  23.081  0.00  0.00    +0.000 A 
ATOM     10  C   UNL     1      -1.331  11.141  23.027  0.00  0.00    +0.000 A 
ATOM     11  C   UNL     1      -1.419  11.890  21.854  0.00  0.00    +0.000 A 
ATOM     12  C   UNL     1      -0.616  11.571  20.759  0.00  0.00    +0.000 A 
ATOM     13  C   UNL     1       0.226  10.435  20.797  0.00  0.00    +0.000 A 
ATOM     14  C   UNL     1       1.010   9.995  19.728  0.00  0.00    +0.000 A 
ENDROOT
BRANCH   4  15
ATOM     15  C   UNL     1       2.632   7.251  17.865  0.00  0.00    +0.000 A 
ATOM     16  C   UNL     1       2.200   5.935  18.032  0.00  0.00    +0.000 A 
ATOM     17  C   UNL     1       3.073   4.875  17.756  0.00  0.00    +0.000 A 
ATOM     18  C   UNL     1       4.374   5.118  17.304  0.00  0.00    +0.000 A 
ATOM     19  C   UNL     1       4.805   6.423  17.105  0.00  0.00    +0.000 A 
ATOM     20  C   UNL     1       3.939   7.475  17.378  0.00  0.00    +0.000 A 
ENDBRANCH   4  15
TORSDOF 1
ENDMDL
MODEL 8
REMARK VINA RESULT:      -7.3      2.855      4.357
REMARK  Name = 
REMARK  1 active torsions:
REMARK  status: ('A' for Active; 'I' for Inactive)
REMARK    1  A    between atoms: C_4  and  C_5
REMARK                            x       y       z     vdW  Elec       q    Type
REMARK                         _______ _______ _______ _____ _____    ______ ____
ROOT
ATOM      1  O   UNL     1       3.742   7.461  18.188  0.00  0.00    +0.000 OA
ATOM      2  C   UNL     1       4.010   6.492  17.515  0.00  0.00    +0.000 C 
ATOM      3  O   UNL     1       4.827   6.483  16.396  0.00  0.00    +0.000 OA
ATOM      4  C   UNL     1       4.636   5.231  15.730  0.00  0.00    +0.000 C 
ATOM      5  C   UNL     1       4.358   4.327  16.868  0.00  0.00    +0.000 A 
ATOM      6  C   UNL     1       4.552   2.974  17.067  0.00  0.00    +0.000 A 
ATOM      7  C   UNL     1       3.971   2.392  18.193  0.00  0.00    +0.000 A 
ATOM      8  C   UNL     1       3.087   3.123  19.022  0.00  0.00    +0.000 A 
ATOM      9  C   UNL     1       2.362   2.483  20.039  0.00  0.00    +0.000 A 
ATOM     10  C   UNL     1       1.367   3.161  20.738  0.00  0.00    +0.000 A 
ATOM     11  C   UNL     1       1.101   4.499  20.450  0.00  0.00    +0.000 A 
ATOM     12  C   UNL     1       1.883   5.184  19.521  0.00  0.00    +0.000 A 
ATOM     13  C   UNL     1       2.892   4.505  18.798  0.00  0.00    +0.000 A 
ATOM     14  C   UNL     1       3.676   5.085  17.798  0.00  0.00    +0.000 A 
ENDROOT
BRANCH   4  15
ATOM     15  C   UNL     1       5.600   4.785  14.661  0.00  0.00    +0.000 A 
ATOM     16  C   UNL     1       6.913   5.240  14.541  0.00  0.00    +0.000 A 
ATOM     17  C   UNL     1       7.690   4.844  13.445  0.00  0.00    +0.000 A 
ATOM     18  C   UNL     1       7.168   3.988  12.470  0.00  0.00    +0.000 A 
ATOM     19  C   UNL     1       5.873   3.504  12.595  0.00  0.00    +0.000 A 
ATOM     20  C   UNL     1       5.102   3.896  13.682  0.00  0.00    +0.000 A 
ENDBRANCH   4  15
TORSDOF 1
ENDMDL
MODEL 9
REMARK VINA RESULT:      -7.2      2.261      3.735
REMARK  Name = 
REMARK  1 active torsions:
REMARK  status: ('A' for Active; 'I' for Inactive)
REMARK    1  A    between atoms: C_4  and  C_5
REMARK                            x       y       z     vdW  Elec       q    Type
REMARK                         _______ _______ _______ _____ _____    ______ ____
ROOT
ATOM      1  O   UNL     1       2.191  10.769  17.464  0.00  0.00    +0.000 OA
ATOM      2  C   UNL     1       2.100   9.652  17.920  0.00  0.00    +0.000 C 
ATOM      3  O   UNL     1       2.708   8.517  17.410  0.00  0.00    +0.000 OA
ATOM      4  C   UNL     1       2.108   7.382  18.042  0.00  0.00    +0.000 C 
ATOM      5  C   UNL     1       1.786   7.922  19.382  0.00  0.00    +0.000 A 
ATOM      6  C   UNL     1       1.660   7.340  20.628  0.00  0.00    +0.000 A 
ATOM      7  C   UNL     1       1.128   8.117  21.657  0.00  0.00    +0.000 A 
ATOM      8  C   UNL     1       0.595   9.403  21.405  0.00  0.00    +0.000 A 
ATOM      9  C   UNL     1      -0.106  10.099  22.403  0.00  0.00    +0.000 A 
ATOM     10  C   UNL     1      -0.779  11.281  22.107  0.00  0.00    +0.000 A 
ATOM     11  C   UNL     1      -0.738  11.802  20.814  0.00  0.00    +0.000 A 
ATOM     12  C   UNL     1       0.041  11.185  19.836  0.00  0.00    +0.000 A 
ATOM     13  C   UNL     1       0.723   9.979  20.121  0.00  0.00    +0.000 A 
ATOM     14  C   UNL     1       1.468   9.252  19.189  0.00  0.00    +0.000 A 
ENDROOT
BRANCH   4  15
ATOM     15  C   UNL     1       2.753   6.025  17.938  0.00  0.00    +0.000 A 
ATOM     16  C   UNL     1       2.055   4.818  17.896  0.00  0.00    +0.000 A 
ATOM     17  C   UNL     1       2.757   3.606  17.910  0.00  0.00    +0.000 A 
ATOM     18  C   UNL     1       4.155   3.589  17.957  0.00  0.00    +0.000 A 
ATOM     19  C   UNL     1       4.862   4.784  17.968  0.00  0.00    +0.000 A 
ATOM     20  C   UNL     1       4.166   5.986  17.953  0.00  0.00    +0.000 A 
ENDBRANCH   4  15
TORSDOF 1
ENDMDL
