MODEL 1
REMARK VINA RESULT:      -6.5      0.000      0.000
REMARK  Name = 
REMARK  3 active torsions:
REMARK  status: ('A' for Active; 'I' for Inactive)
REMARK    1  A    between atoms: C_1  and  C_2
REMARK    2  A    between atoms: C_6  and  C_7
REMARK    3  A    between atoms: C_10  and  O_11
REMARK                            x       y       z     vdW  Elec       q    Type
REMARK                         _______ _______ _______ _____ _____    ______ ____
ROOT
ATOM      1  C   UNL     1       4.038   2.225  20.301  0.00  0.00    +0.000 C 
ATOM      2  C   UNL     1       4.499   3.259  19.319  0.00  0.00    +0.000 A 
ATOM      3  C   UNL     1       3.813   3.465  18.138  0.00  0.00    +0.000 A 
ATOM      4  C   UNL     1       4.261   4.462  17.280  0.00  0.00    +0.000 A 
ATOM      5  C   UNL     1       5.394   5.240  17.589  0.00  0.00    +0.000 A 
ATOM      6  C   UNL     1       5.896   6.270  16.740  0.00  0.00    +0.000 A 
ATOM      7  C   UNL     1       5.270   6.664  15.427  0.00  0.00    +0.000 C 
ATOM      8  C   UNL     1       7.055   6.969  17.111  0.00  0.00    +0.000 A 
ATOM      9  C   UNL     1       7.705   6.679  18.302  0.00  0.00    +0.000 A 
ATOM     10  C   UNL     1       7.193   5.688  19.139  0.00  0.00    +0.000 A 
ATOM     11  C   UNL     1       6.043   4.948  18.815  0.00  0.00    +0.000 A 
ATOM     12  N   UNL     1       5.588   3.985  19.655  0.00  0.00    +0.000 NA
ENDROOT
BRANCH  10  13
ATOM     13  O   UNL     1       7.853   5.424  20.318  0.00  0.00    +0.000 OA
ATOM     14  H   UNL     1       7.723   6.162  20.932  0.00  0.00    +0.000 HD
ENDBRANCH  10  13
TORSDOF 1
ENDMDL
MODEL 2
REMARK VINA RESULT:      -6.5      1.806      4.223
REMARK  Name = 
REMARK  3 active torsions:
REMARK  status: ('A' for Active; 'I' for Inactive)
REMARK    1  A    between atoms: C_1  and  C_2
REMARK    2  A    between atoms: C_6  and  C_7
REMARK    3  A    between atoms: C_10  and  O_11
REMARK                            x       y       z     vdW  Elec       q    Type
REMARK                         _______ _______ _______ _____ _____    ______ ____
ROOT
ATOM      1  C   UNL     1       7.655   5.881  18.713  0.00  0.00    +0.000 C 
ATOM      2  C   UNL     1       6.239   5.415  18.559  0.00  0.00    +0.000 A 
ATOM      3  C   UNL     1       5.321   6.171  17.857  0.00  0.00    +0.000 A 
ATOM      4  C   UNL     1       4.031   5.675  17.711  0.00  0.00    +0.000 A 
ATOM      5  C   UNL     1       3.654   4.439  18.272  0.00  0.00    +0.000 A 
ATOM      6  C   UNL     1       2.343   3.890  18.155  0.00  0.00    +0.000 A 
ATOM      7  C   UNL     1       1.214   4.549  17.406  0.00  0.00    +0.000 C 
ATOM      8  C   UNL     1       2.046   2.669  18.780  0.00  0.00    +0.000 A 
ATOM      9  C   UNL     1       3.019   1.985  19.494  0.00  0.00    +0.000 A 
ATOM     10  C   UNL     1       4.306   2.516  19.583  0.00  0.00    +0.000 A 
ATOM     11  C   UNL     1       4.658   3.739  18.987  0.00  0.00    +0.000 A 
ATOM     12  N   UNL     1       5.919   4.223  19.109  0.00  0.00    +0.000 NA
ENDROOT
BRANCH  10  13
ATOM     13  O   UNL     1       5.254   1.815  20.292  0.00  0.00    +0.000 OA
ATOM     14  H   UNL     1       6.044   2.365  20.404  0.00  0.00    +0.000 HD
ENDBRANCH  10  13
TORSDOF 1
ENDMDL
MODEL 3
REMARK VINA RESULT:      -6.4      1.683      1.803
REMARK  Name = 
REMARK  3 active torsions:
REMARK  status: ('A' for Active; 'I' for Inactive)
REMARK    1  A    between atoms: C_1  and  C_2
REMARK    2  A    between atoms: C_6  and  C_7
REMARK    3  A    between atoms: C_10  and  O_11
REMARK                            x       y       z     vdW  Elec       q    Type
REMARK                         _______ _______ _______ _____ _____    ______ ____
ROOT
ATOM      1  C   UNL     1       2.161   4.777  20.546  0.00  0.00    +0.000 C 
ATOM      2  C   UNL     1       3.081   4.647  19.371  0.00  0.00    +0.000 A 
ATOM      3  C   UNL     1       2.590   4.303  18.127  0.00  0.00    +0.000 A 
ATOM      4  C   UNL     1       3.481   4.233  17.062  0.00  0.00    +0.000 A 
ATOM      5  C   UNL     1       4.855   4.490  17.238  0.00  0.00    +0.000 A 
ATOM      6  C   UNL     1       5.809   4.425  16.181  0.00  0.00    +0.000 A 
ATOM      7  C   UNL     1       5.466   4.096  14.751  0.00  0.00    +0.000 C 
ATOM      8  C   UNL     1       7.165   4.659  16.457  0.00  0.00    +0.000 A 
ATOM      9  C   UNL     1       7.582   4.968  17.744  0.00  0.00    +0.000 A 
ATOM     10  C   UNL     1       6.639   5.055  18.768  0.00  0.00    +0.000 A 
ATOM     11  C   UNL     1       5.270   4.821  18.553  0.00  0.00    +0.000 A 
ATOM     12  N   UNL     1       4.390   4.904  19.582  0.00  0.00    +0.000 NA
ENDROOT
BRANCH  10  13
ATOM     13  O   UNL     1       7.077   5.370  20.034  0.00  0.00    +0.000 OA
ATOM     14  H   UNL     1       7.557   4.615  20.406  0.00  0.00    +0.000 HD
ENDBRANCH  10  13
TORSDOF 1
ENDMDL
MODEL 4
REMARK VINA RESULT:      -6.3      2.584      2.912
REMARK  Name = 
REMARK  3 active torsions:
REMARK  status: ('A' for Active; 'I' for Inactive)
REMARK    1  A    between atoms: C_1  and  C_2
REMARK    2  A    between atoms: C_6  and  C_7
REMARK    3  A    between atoms: C_10  and  O_11
REMARK                            x       y       z     vdW  Elec       q    Type
REMARK                         _______ _______ _______ _____ _____    ______ ____
ROOT
ATOM      1  C   UNL     1       2.187   2.742  21.670  0.00  0.00    +0.000 C 
ATOM      2  C   UNL     1       2.445   3.868  20.715  0.00  0.00    +0.000 A 
ATOM      3  C   UNL     1       1.563   4.926  20.618  0.00  0.00    +0.000 A 
ATOM      4  C   UNL     1       1.870   5.962  19.744  0.00  0.00    +0.000 A 
ATOM      5  C   UNL     1       3.041   5.939  18.962  0.00  0.00    +0.000 A 
ATOM      6  C   UNL     1       3.397   6.973  18.047  0.00  0.00    +0.000 A 
ATOM      7  C   UNL     1       2.581   8.220  17.822  0.00  0.00    +0.000 C 
ATOM      8  C   UNL     1       4.565   6.847  17.280  0.00  0.00    +0.000 A 
ATOM      9  C   UNL     1       5.383   5.734  17.415  0.00  0.00    +0.000 A 
ATOM     10  C   UNL     1       5.042   4.739  18.330  0.00  0.00    +0.000 A 
ATOM     11  C   UNL     1       3.880   4.806  19.117  0.00  0.00    +0.000 A 
ATOM     12  N   UNL     1       3.581   3.808  19.986  0.00  0.00    +0.000 NA
ENDROOT
BRANCH  10  13
ATOM     13  O   UNL     1       5.873   3.649  18.450  0.00  0.00    +0.000 OA
ATOM     14  H   UNL     1       5.357   2.879  18.733  0.00  0.00    +0.000 HD
ENDBRANCH  10  13
TORSDOF 1
ENDMDL
MODEL 5
REMARK VINA RESULT:      -6.3      2.803      3.489
REMARK  Name = 
REMARK  3 active torsions:
REMARK  status: ('A' for Active; 'I' for Inactive)
REMARK    1  A    between atoms: C_1  and  C_2
REMARK    2  A    between atoms: C_6  and  C_7
REMARK    3  A    between atoms: C_10  and  O_11
REMARK                            x       y       z     vdW  Elec       q    Type
REMARK                         _______ _______ _______ _____ _____    ______ ____
ROOT
ATOM      1  C   UNL     1       1.471   2.608  21.744  0.00  0.00    +0.000 C 
ATOM      2  C   UNL     1       2.017   3.534  20.700  0.00  0.00    +0.000 A 
ATOM      3  C   UNL     1       1.758   4.890  20.756  0.00  0.00    +0.000 A 
ATOM      4  C   UNL     1       2.320   5.709  19.784  0.00  0.00    +0.000 A 
ATOM      5  C   UNL     1       3.124   5.180  18.755  0.00  0.00    +0.000 A 
ATOM      6  C   UNL     1       3.718   5.977  17.732  0.00  0.00    +0.000 A 
ATOM      7  C   UNL     1       3.577   7.474  17.639  0.00  0.00    +0.000 C 
ATOM      8  C   UNL     1       4.473   5.358  16.724  0.00  0.00    +0.000 A 
ATOM      9  C   UNL     1       4.660   3.983  16.723  0.00  0.00    +0.000 A 
ATOM     10  C   UNL     1       4.097   3.214  17.741  0.00  0.00    +0.000 A 
ATOM     11  C   UNL     1       3.323   3.776  18.770  0.00  0.00    +0.000 A 
ATOM     12  N   UNL     1       2.785   2.987  19.733  0.00  0.00    +0.000 NA
ENDROOT
BRANCH  10  13
ATOM     13  O   UNL     1       4.302   1.853  17.720  0.00  0.00    +0.000 OA
ATOM     14  H   UNL     1       3.906   1.479  16.919  0.00  0.00    +0.000 HD
ENDBRANCH  10  13
TORSDOF 1
ENDMDL
MODEL 6
REMARK VINA RESULT:      -6.3      3.163      5.102
REMARK  Name = 
REMARK  3 active torsions:
REMARK  status: ('A' for Active; 'I' for Inactive)
REMARK    1  A    between atoms: C_1  and  C_2
REMARK    2  A    between atoms: C_6  and  C_7
REMARK    3  A    between atoms: C_10  and  O_11
REMARK                            x       y       z     vdW  Elec       q    Type
REMARK                         _______ _______ _______ _____ _____    ______ ____
ROOT
ATOM      1  C   UNL     1       5.635   3.985  15.856  0.00  0.00    +0.000 C 
ATOM      2  C   UNL     1       4.685   4.357  16.953  0.00  0.00    +0.000 A 
ATOM      3  C   UNL     1       4.653   5.645  17.450  0.00  0.00    +0.000 A 
ATOM      4  C   UNL     1       3.726   5.947  18.441  0.00  0.00    +0.000 A 
ATOM      5  C   UNL     1       2.845   4.969  18.942  0.00  0.00    +0.000 A 
ATOM      6  C   UNL     1       1.880   5.227  19.961  0.00  0.00    +0.000 A 
ATOM      7  C   UNL     1       1.673   6.572  20.607  0.00  0.00    +0.000 C 
ATOM      8  C   UNL     1       1.069   4.181  20.426  0.00  0.00    +0.000 A 
ATOM      9  C   UNL     1       1.185   2.905  19.894  0.00  0.00    +0.000 A 
ATOM     10  C   UNL     1       2.113   2.666  18.881  0.00  0.00    +0.000 A 
ATOM     11  C   UNL     1       2.959   3.671  18.382  0.00  0.00    +0.000 A 
ATOM     12  N   UNL     1       3.855   3.390  17.403  0.00  0.00    +0.000 NA
ENDROOT
BRANCH  10  13
ATOM     13  O   UNL     1       2.204   1.393  18.365  0.00  0.00    +0.000 OA
ATOM     14  H   UNL     1       2.713   1.415  17.540  0.00  0.00    +0.000 HD
ENDBRANCH  10  13
TORSDOF 1
ENDMDL
MODEL 7
REMARK VINA RESULT:      -6.1      2.754      4.944
REMARK  Name = 
REMARK  3 active torsions:
REMARK  status: ('A' for Active; 'I' for Inactive)
REMARK    1  A    between atoms: C_1  and  C_2
REMARK    2  A    between atoms: C_6  and  C_7
REMARK    3  A    between atoms: C_10  and  O_11
REMARK                            x       y       z     vdW  Elec       q    Type
REMARK                         _______ _______ _______ _____ _____    ______ ____
ROOT
ATOM      1  C   UNL     1       5.603   6.280  16.280  0.00  0.00    +0.000 C 
ATOM      2  C   UNL     1       4.606   5.436  17.014  0.00  0.00    +0.000 A 
ATOM      3  C   UNL     1       4.392   4.121  16.650  0.00  0.00    +0.000 A 
ATOM      4  C   UNL     1       3.484   3.372  17.388  0.00  0.00    +0.000 A 
ATOM      5  C   UNL     1       2.783   3.932  18.474  0.00  0.00    +0.000 A 
ATOM      6  C   UNL     1       1.838   3.207  19.259  0.00  0.00    +0.000 A 
ATOM      7  C   UNL     1       1.490   1.758  19.037  0.00  0.00    +0.000 C 
ATOM      8  C   UNL     1       1.158   3.859  20.299  0.00  0.00    +0.000 A 
ATOM      9  C   UNL     1       1.408   5.194  20.581  0.00  0.00    +0.000 A 
ATOM     10  C   UNL     1       2.352   5.889  19.825  0.00  0.00    +0.000 A 
ATOM     11  C   UNL     1       3.056   5.292  18.766  0.00  0.00    +0.000 A 
ATOM     12  N   UNL     1       3.957   6.011  18.050  0.00  0.00    +0.000 NA
ENDROOT
BRANCH  10  13
ATOM     13  O   UNL     1       2.587   7.211  20.129  0.00  0.00    +0.000 OA
ATOM     14  H   UNL     1       1.749   7.698  20.118  0.00  0.00    +0.000 HD
ENDBRANCH  10  13
TORSDOF 1
ENDMDL
MODEL 8
REMARK VINA RESULT:      -6.0      2.734      3.131
REMARK  Name = 
REMARK  3 active torsions:
REMARK  status: ('A' for Active; 'I' for Inactive)
REMARK    1  A    between atoms: C_1  and  C_2
REMARK    2  A    between atoms: C_6  and  C_7
REMARK    3  A    between atoms: C_10  and  O_11
REMARK                            x       y       z     vdW  Elec       q    Type
REMARK                         _______ _______ _______ _____ _____    ______ ____
ROOT
ATOM      1  C   UNL     1       0.722   2.898  19.640  0.00  0.00    +0.000 C 
ATOM      2  C   UNL     1       1.874   3.320  18.779  0.00  0.00    +0.000 A 
ATOM      3  C   UNL     1       2.605   2.385  18.072  0.00  0.00    +0.000 A 
ATOM      4  C   UNL     1       3.639   2.833  17.259  0.00  0.00    +0.000 A 
ATOM      5  C   UNL     1       3.952   4.203  17.160  0.00  0.00    +0.000 A 
ATOM      6  C   UNL     1       5.005   4.713  16.344  0.00  0.00    +0.000 A 
ATOM      7  C   UNL     1       5.894   3.857  15.479  0.00  0.00    +0.000 C 
ATOM      8  C   UNL     1       5.270   6.091  16.338  0.00  0.00    +0.000 A 
ATOM      9  C   UNL     1       4.507   6.962  17.102  0.00  0.00    +0.000 A 
ATOM     10  C   UNL     1       3.462   6.459  17.877  0.00  0.00    +0.000 A 
ATOM     11  C   UNL     1       3.157   5.088  17.932  0.00  0.00    +0.000 A 
ATOM     12  N   UNL     1       2.139   4.643  18.709  0.00  0.00    +0.000 NA
ENDROOT
BRANCH  10  13
ATOM     13  O   UNL     1       2.716   7.344  18.621  0.00  0.00    +0.000 OA
ATOM     14  H   UNL     1       1.984   7.681  18.082  0.00  0.00    +0.000 HD
ENDBRANCH  10  13
TORSDOF 1
ENDMDL
MODEL 9
REMARK VINA RESULT:      -6.0      2.679      4.469
REMARK  Name = 
REMARK  3 active torsions:
REMARK  status: ('A' for Active; 'I' for Inactive)
REMARK    1  A    between atoms: C_1  and  C_2
REMARK    2  A    between atoms: C_6  and  C_7
REMARK    3  A    between atoms: C_10  and  O_11
REMARK                            x       y       z     vdW  Elec       q    Type
REMARK                         _______ _______ _______ _____ _____    ______ ____
ROOT
ATOM      1  C   UNL     1       6.343   4.224  14.534  0.00  0.00    +0.000 C 
ATOM      2  C   UNL     1       5.478   4.620  15.691  0.00  0.00    +0.000 A 
ATOM      3  C   UNL     1       5.211   5.950  15.948  0.00  0.00    +0.000 A 
ATOM      4  C   UNL     1       4.371   6.262  17.011  0.00  0.00    +0.000 A 
ATOM      5  C   UNL     1       3.813   5.255  17.822  0.00  0.00    +0.000 A 
ATOM      6  C   UNL     1       2.951   5.522  18.927  0.00  0.00    +0.000 A 
ATOM      7  C   UNL     1       2.520   6.903  19.347  0.00  0.00    +0.000 C 
ATOM      8  C   UNL     1       2.472   4.457  19.704  0.00  0.00    +0.000 A 
ATOM      9  C   UNL     1       2.813   3.147  19.398  0.00  0.00    +0.000 A 
ATOM     10  C   UNL     1       3.636   2.892  18.300  0.00  0.00    +0.000 A 
ATOM     11  C   UNL     1       4.154   3.918  17.493  0.00  0.00    +0.000 A 
ATOM     12  N   UNL     1       4.960   3.623  16.442  0.00  0.00    +0.000 NA
ENDROOT
BRANCH  10  13
ATOM     13  O   UNL     1       3.954   1.584  18.014  0.00  0.00    +0.000 OA
ATOM     14  H   UNL     1       4.343   1.534  17.127  0.00  0.00    +0.000 HD
ENDBRANCH  10  13
TORSDOF 1
ENDMDL
