MODEL 1
REMARK VINA RESULT:      -5.3      0.000      0.000
REMARK  Name = 
REMARK  4 active torsions:
REMARK  status: ('A' for Active; 'I' for Inactive)
REMARK    1  A    between atoms: C_1  and  C_2
REMARK    2  A    between atoms: C_2  and  C_3
REMARK    3  A    between atoms: C_7  and  C_8
REMARK    4  A    between atoms: C_7  and  C_9
REMARK                            x       y       z     vdW  Elec       q    Type
REMARK                         _______ _______ _______ _____ _____    ______ ____
ROOT
ATOM      1  C   UNL     1       6.632   4.249  14.913  0.00  0.00    +0.000 C 
ATOM      2  C   UNL     1       6.063   4.638  16.299  0.00  0.00    +0.000 C 
ATOM      3  C   UNL     1       7.274   4.733  17.244  0.00  0.00    +0.000 C 
ATOM      4  C   UNL     1       5.351   5.999  16.162  0.00  0.00    +0.000 C 
ATOM      5  C   UNL     1       4.495   6.339  17.375  0.00  0.00    +0.000 C 
ATOM      6  C   UNL     1       3.497   5.216  17.628  0.00  0.00    +0.000 C 
ATOM      7  C   UNL     1       4.176   3.841  17.791  0.00  0.00    +0.000 C 
ATOM      8  C   UNL     1       3.083   2.748  17.718  0.00  0.00    +0.000 C 
ATOM      9  C   UNL     1       4.825   3.703  19.180  0.00  0.00    +0.000 C 
ATOM     10  N   UNL     1       5.127   3.561  16.689  0.00  0.00    +0.000 NA
ATOM     11  H   UNL     1       4.578   3.316  15.864  0.00  0.00    +0.000 HD
ENDROOT
TORSDOF 0
ENDMDL
MODEL 2
REMARK VINA RESULT:      -5.2      2.487      3.895
REMARK  Name = 
REMARK  4 active torsions:
REMARK  status: ('A' for Active; 'I' for Inactive)
REMARK    1  A    between atoms: C_1  and  C_2
REMARK    2  A    between atoms: C_2  and  C_3
REMARK    3  A    between atoms: C_7  and  C_8
REMARK    4  A    between atoms: C_7  and  C_9
REMARK                            x       y       z     vdW  Elec       q    Type
REMARK                         _______ _______ _______ _____ _____    ______ ____
ROOT
ATOM      1  C   UNL     1       5.104   5.338  18.818  0.00  0.00    +0.000 C 
ATOM      2  C   UNL     1       3.704   4.689  18.701  0.00  0.00    +0.000 C 
ATOM      3  C   UNL     1       2.765   5.792  18.181  0.00  0.00    +0.000 C 
ATOM      4  C   UNL     1       3.799   3.517  17.704  0.00  0.00    +0.000 C 
ATOM      5  C   UNL     1       2.571   2.616  17.736  0.00  0.00    +0.000 C 
ATOM      6  C   UNL     1       2.341   2.116  19.157  0.00  0.00    +0.000 C 
ATOM      7  C   UNL     1       2.220   3.263  20.180  0.00  0.00    +0.000 C 
ATOM      8  C   UNL     1       2.314   2.658  21.600  0.00  0.00    +0.000 C 
ATOM      9  C   UNL     1       0.840   3.940  20.096  0.00  0.00    +0.000 C 
ATOM     10  N   UNL     1       3.335   4.231  20.059  0.00  0.00    +0.000 NA
ATOM     11  H   UNL     1       4.163   3.799  20.473  0.00  0.00    +0.000 HD
ENDROOT
TORSDOF 0
ENDMDL
MODEL 3
REMARK VINA RESULT:      -5.2      1.144      3.587
REMARK  Name = 
REMARK  4 active torsions:
REMARK  status: ('A' for Active; 'I' for Inactive)
REMARK    1  A    between atoms: C_1  and  C_2
REMARK    2  A    between atoms: C_2  and  C_3
REMARK    3  A    between atoms: C_7  and  C_8
REMARK    4  A    between atoms: C_7  and  C_9
REMARK                            x       y       z     vdW  Elec       q    Type
REMARK                         _______ _______ _______ _____ _____    ______ ____
ROOT
ATOM      1  C   UNL     1       4.070   2.540  20.151  0.00  0.00    +0.000 C 
ATOM      2  C   UNL     1       4.144   3.344  18.830  0.00  0.00    +0.000 C 
ATOM      3  C   UNL     1       3.417   2.494  17.773  0.00  0.00    +0.000 C 
ATOM      4  C   UNL     1       3.434   4.695  19.049  0.00  0.00    +0.000 C 
ATOM      5  C   UNL     1       3.705   5.690  17.927  0.00  0.00    +0.000 C 
ATOM      6  C   UNL     1       5.208   5.876  17.761  0.00  0.00    +0.000 C 
ATOM      7  C   UNL     1       5.950   4.545  17.519  0.00  0.00    +0.000 C 
ATOM      8  C   UNL     1       7.467   4.799  17.686  0.00  0.00    +0.000 C 
ATOM      9  C   UNL     1       5.756   4.055  16.072  0.00  0.00    +0.000 C 
ATOM     10  N   UNL     1       5.581   3.517  18.521  0.00  0.00    +0.000 NA
ATOM     11  H   UNL     1       6.057   3.754  19.393  0.00  0.00    +0.000 HD
ENDROOT
TORSDOF 0
ENDMDL
MODEL 4
REMARK VINA RESULT:      -5.2      2.525      3.620
REMARK  Name = 
REMARK  4 active torsions:
REMARK  status: ('A' for Active; 'I' for Inactive)
REMARK    1  A    between atoms: C_1  and  C_2
REMARK    2  A    between atoms: C_2  and  C_3
REMARK    3  A    between atoms: C_7  and  C_8
REMARK    4  A    between atoms: C_7  and  C_9
REMARK                            x       y       z     vdW  Elec       q    Type
REMARK                         _______ _______ _______ _____ _____    ______ ____
ROOT
ATOM      1  C   UNL     1       5.287   4.189  18.157  0.00  0.00    +0.000 C 
ATOM      2  C   UNL     1       3.828   4.587  18.484  0.00  0.00    +0.000 C 
ATOM      3  C   UNL     1       3.767   6.119  18.361  0.00  0.00    +0.000 C 
ATOM      4  C   UNL     1       2.902   3.904  17.457  0.00  0.00    +0.000 C 
ATOM      5  C   UNL     1       1.433   3.970  17.856  0.00  0.00    +0.000 C 
ATOM      6  C   UNL     1       1.252   3.373  19.246  0.00  0.00    +0.000 C 
ATOM      7  C   UNL     1       2.149   4.047  20.304  0.00  0.00    +0.000 C 
ATOM      8  C   UNL     1       2.131   3.173  21.581  0.00  0.00    +0.000 C 
ATOM      9  C   UNL     1       1.586   5.418  20.719  0.00  0.00    +0.000 C 
ATOM     10  N   UNL     1       3.562   4.122  19.864  0.00  0.00    +0.000 NA
ATOM     11  H   UNL     1       3.963   3.187  19.956  0.00  0.00    +0.000 HD
ENDROOT
TORSDOF 0
ENDMDL
MODEL 5
REMARK VINA RESULT:      -5.1      3.482      4.712
REMARK  Name = 
REMARK  4 active torsions:
REMARK  status: ('A' for Active; 'I' for Inactive)
REMARK    1  A    between atoms: C_1  and  C_2
REMARK    2  A    between atoms: C_2  and  C_3
REMARK    3  A    between atoms: C_7  and  C_8
REMARK    4  A    between atoms: C_7  and  C_9
REMARK                            x       y       z     vdW  Elec       q    Type
REMARK                         _______ _______ _______ _____ _____    ______ ____
ROOT
ATOM      1  C   UNL     1       4.688   2.109  20.324  0.00  0.00    +0.000 C 
ATOM      2  C   UNL     1       3.338   2.676  19.822  0.00  0.00    +0.000 C 
ATOM      3  C   UNL     1       2.894   1.761  18.667  0.00  0.00    +0.000 C 
ATOM      4  C   UNL     1       2.333   2.631  20.992  0.00  0.00    +0.000 C 
ATOM      5  C   UNL     1       1.071   3.437  20.714  0.00  0.00    +0.000 C 
ATOM      6  C   UNL     1       1.448   4.871  20.364  0.00  0.00    +0.000 C 
ATOM      7  C   UNL     1       2.436   4.956  19.183  0.00  0.00    +0.000 C 
ATOM      8  C   UNL     1       2.994   6.398  19.121  0.00  0.00    +0.000 C 
ATOM      9  C   UNL     1       1.722   4.718  17.840  0.00  0.00    +0.000 C 
ATOM     10  N   UNL     1       3.602   4.061  19.373  0.00  0.00    +0.000 NA
ATOM     11  H   UNL     1       4.215   4.497  20.064  0.00  0.00    +0.000 HD
ENDROOT
TORSDOF 0
ENDMDL
MODEL 6
REMARK VINA RESULT:      -5.1      1.627      3.112
REMARK  Name = 
REMARK  4 active torsions:
REMARK  status: ('A' for Active; 'I' for Inactive)
REMARK    1  A    between atoms: C_1  and  C_2
REMARK    2  A    between atoms: C_2  and  C_3
REMARK    3  A    between atoms: C_7  and  C_8
REMARK    4  A    between atoms: C_7  and  C_9
REMARK                            x       y       z     vdW  Elec       q    Type
REMARK                         _______ _______ _______ _____ _____    ______ ____
ROOT
ATOM      1  C   UNL     1       7.753   5.658  19.551  0.00  0.00    +0.000 C 
ATOM      2  C   UNL     1       7.119   5.787  18.145  0.00  0.00    +0.000 C 
ATOM      3  C   UNL     1       7.619   7.126  17.574  0.00  0.00    +0.000 C 
ATOM      4  C   UNL     1       7.602   4.597  17.290  0.00  0.00    +0.000 C 
ATOM      5  C   UNL     1       6.813   4.446  15.996  0.00  0.00    +0.000 C 
ATOM      6  C   UNL     1       5.327   4.332  16.312  0.00  0.00    +0.000 C 
ATOM      7  C   UNL     1       4.805   5.517  17.150  0.00  0.00    +0.000 C 
ATOM      8  C   UNL     1       3.398   5.151  17.682  0.00  0.00    +0.000 C 
ATOM      9  C   UNL     1       4.618   6.773  16.280  0.00  0.00    +0.000 C 
ATOM     10  N   UNL     1       5.653   5.770  18.339  0.00  0.00    +0.000 NA
ATOM     11  H   UNL     1       5.441   5.045  19.027  0.00  0.00    +0.000 HD
ENDROOT
TORSDOF 0
ENDMDL
MODEL 7
REMARK VINA RESULT:      -5.1      2.619      4.896
REMARK  Name = 
REMARK  4 active torsions:
REMARK  status: ('A' for Active; 'I' for Inactive)
REMARK    1  A    between atoms: C_1  and  C_2
REMARK    2  A    between atoms: C_2  and  C_3
REMARK    3  A    between atoms: C_7  and  C_8
REMARK    4  A    between atoms: C_7  and  C_9
REMARK                            x       y       z     vdW  Elec       q    Type
REMARK                         _______ _______ _______ _____ _____    ______ ____
ROOT
ATOM      1  C   UNL     1       1.556   5.529  20.785  0.00  0.00    +0.000 C 
ATOM      2  C   UNL     1       1.936   4.103  20.318  0.00  0.00    +0.000 C 
ATOM      3  C   UNL     1       2.225   3.299  21.598  0.00  0.00    +0.000 C 
ATOM      4  C   UNL     1       0.737   3.515  19.546  0.00  0.00    +0.000 C 
ATOM      5  C   UNL     1       1.095   2.248  18.781  0.00  0.00    +0.000 C 
ATOM      6  C   UNL     1       2.269   2.527  17.850  0.00  0.00    +0.000 C 
ATOM      7  C   UNL     1       3.494   3.097  18.592  0.00  0.00    +0.000 C 
ATOM      8  C   UNL     1       4.490   3.639  17.538  0.00  0.00    +0.000 C 
ATOM      9  C   UNL     1       4.245   1.992  19.358  0.00  0.00    +0.000 C 
ATOM     10  N   UNL     1       3.132   4.243  19.459  0.00  0.00    +0.000 NA
ATOM     11  H   UNL     1       2.982   5.052  18.853  0.00  0.00    +0.000 HD
ENDROOT
TORSDOF 0
ENDMDL
MODEL 8
REMARK VINA RESULT:      -5.1      1.236      3.561
REMARK  Name = 
REMARK  4 active torsions:
REMARK  status: ('A' for Active; 'I' for Inactive)
REMARK    1  A    between atoms: C_1  and  C_2
REMARK    2  A    between atoms: C_2  and  C_3
REMARK    3  A    between atoms: C_7  and  C_8
REMARK    4  A    between atoms: C_7  and  C_9
REMARK                            x       y       z     vdW  Elec       q    Type
REMARK                         _______ _______ _______ _____ _____    ______ ____
ROOT
ATOM      1  C   UNL     1       3.621   1.610  18.267  0.00  0.00    +0.000 C 
ATOM      2  C   UNL     1       3.788   3.139  18.092  0.00  0.00    +0.000 C 
ATOM      3  C   UNL     1       2.592   3.603  17.241  0.00  0.00    +0.000 C 
ATOM      4  C   UNL     1       3.765   3.787  19.492  0.00  0.00    +0.000 C 
ATOM      5  C   UNL     1       4.223   5.240  19.473  0.00  0.00    +0.000 C 
ATOM      6  C   UNL     1       5.607   5.333  18.843  0.00  0.00    +0.000 C 
ATOM      7  C   UNL     1       5.662   4.712  17.433  0.00  0.00    +0.000 C 
ATOM      8  C   UNL     1       7.147   4.567  17.025  0.00  0.00    +0.000 C 
ATOM      9  C   UNL     1       5.023   5.645  16.389  0.00  0.00    +0.000 C 
ATOM     10  N   UNL     1       5.082   3.348  17.406  0.00  0.00    +0.000 NA
ATOM     11  H   UNL     1       5.762   2.717  17.833  0.00  0.00    +0.000 HD
ENDROOT
TORSDOF 0
ENDMDL
MODEL 9
REMARK VINA RESULT:      -5.1      1.435      2.243
REMARK  Name = 
REMARK  4 active torsions:
REMARK  status: ('A' for Active; 'I' for Inactive)
REMARK    1  A    between atoms: C_1  and  C_2
REMARK    2  A    between atoms: C_2  and  C_3
REMARK    3  A    between atoms: C_7  and  C_8
REMARK    4  A    between atoms: C_7  and  C_9
REMARK                            x       y       z     vdW  Elec       q    Type
REMARK                         _______ _______ _______ _____ _____    ______ ____
ROOT
ATOM      1  C   UNL     1       7.420   4.568  17.388  0.00  0.00    +0.000 C 
ATOM      2  C   UNL     1       5.900   4.614  17.676  0.00  0.00    +0.000 C 
ATOM      3  C   UNL     1       5.552   6.099  17.886  0.00  0.00    +0.000 C 
ATOM      4  C   UNL     1       5.161   4.033  16.453  0.00  0.00    +0.000 C 
ATOM      5  C   UNL     1       3.693   3.744  16.737  0.00  0.00    +0.000 C 
ATOM      6  C   UNL     1       3.577   2.821  17.944  0.00  0.00    +0.000 C 
ATOM      7  C   UNL     1       4.287   3.382  19.193  0.00  0.00    +0.000 C 
ATOM      8  C   UNL     1       4.388   2.249  20.242  0.00  0.00    +0.000 C 
ATOM      9  C   UNL     1       3.458   4.499  19.851  0.00  0.00    +0.000 C 
ATOM     10  N   UNL     1       5.676   3.806  18.894  0.00  0.00    +0.000 NA
ATOM     11  H   UNL     1       6.244   2.961  18.812  0.00  0.00    +0.000 HD
ENDROOT
TORSDOF 0
ENDMDL
