MODEL 1
REMARK VINA RESULT:      -8.6      0.000      0.000
REMARK  Name = 
REMARK  5 active torsions:
REMARK  status: ('A' for Active; 'I' for Inactive)
REMARK    1  A    between atoms: C_2  and  C_16
REMARK    2  A    between atoms: N_3  and  C_4
REMARK    3  A    between atoms: C_7  and  N_8
REMARK    4  A    between atoms: C_21  and  S_22
REMARK    5  A    between atoms: S_22  and  N_25
REMARK                            x       y       z     vdW  Elec       q    Type
REMARK                         _______ _______ _______ _____ _____    ______ ____
ROOT
ATOM      1  O   UNL     1       2.130   9.619  17.301  0.00  0.00    +0.000 OA
ATOM      2  C   UNL     1       2.130   8.650  18.061  0.00  0.00    +0.000 C 
ATOM      3  N   UNL     1       1.440   8.520  19.251  0.00  0.00    +0.000 N 
ATOM      4  H   UNL     1       1.643   7.718  19.832  0.00  0.00    +0.000 HD
ENDROOT
BRANCH   2   5
ATOM      5  C   UNL     1       3.060   7.557  17.704  0.00  0.00    +0.000 A 
ATOM      6  C   UNL     1       4.232   7.750  16.978  0.00  0.00    +0.000 A 
ATOM      7  C   UNL     1       5.067   6.653  16.736  0.00  0.00    +0.000 A 
ATOM      8  C   UNL     1       4.723   5.364  17.185  0.00  0.00    +0.000 A 
ATOM      9 CL   UNL     1       5.815   4.084  16.805  0.00  0.00    +0.000 Cl
ATOM     10  C   UNL     1       3.533   5.182  17.892  0.00  0.00    +0.000 A 
ATOM     11  C   UNL     1       2.720   6.283  18.169  0.00  0.00    +0.000 A 
BRANCH  10  12
ATOM     12  S   UNL     1       2.948   3.551  18.270  0.00  0.00    +0.000 S 
ATOM     13  O   UNL     1       2.286   3.093  17.066  0.00  0.00    +0.000 OA
ATOM     14  O   UNL     1       4.020   2.809  18.896  0.00  0.00    +0.000 OA
BRANCH  12  15
ATOM     15  N   UNL     1       1.733   3.783  19.453  0.00  0.00    +0.000 NA
ATOM     16  C   UNL     1       2.080   4.622  20.630  0.00  0.00    +0.000 C 
ATOM     17  C   UNL     1       2.303   3.627  21.753  0.00  0.00    +0.000 C 
ATOM     18  C   UNL     1       1.292   2.533  21.473  0.00  0.00    +0.000 C 
ATOM     19  C   UNL     1       1.088   2.543  19.964  0.00  0.00    +0.000 C 
ENDBRANCH  12  15
ENDBRANCH  10  12
ENDBRANCH   2   5
BRANCH   3  20
ATOM     20  C   UNL     1       0.650   9.543  19.836  0.00  0.00    +0.000 A 
ATOM     21  C   UNL     1       0.099  10.589  19.100  0.00  0.00    +0.000 A 
ATOM     22  C   UNL     1      -0.628  11.612  19.723  0.00  0.00    +0.000 A 
ATOM     23  C   UNL     1      -0.832  11.633  21.101  0.00  0.00    +0.000 A 
ATOM     24  C   UNL     1      -0.290  10.564  21.832  0.00  0.00    +0.000 A 
ATOM     25  C   UNL     1       0.428   9.523  21.211  0.00  0.00    +0.000 A 
BRANCH  23  26
ATOM     26  N   UNL     1      -1.572  12.622  21.728  0.00  0.00    +0.000 N 
ATOM     27  C   UNL     1      -1.727  12.668  23.194  0.00  0.00    +0.000 C 
ATOM     28  C   UNL     1      -3.147  12.275  23.627  0.00  0.00    +0.000 C 
ATOM     29  O   UNL     1      -4.141  13.054  22.943  0.00  0.00    +0.000 OA
ATOM     30  C   UNL     1      -4.033  12.850  21.525  0.00  0.00    +0.000 C 
ATOM     31  C   UNL     1      -2.659  13.289  20.987  0.00  0.00    +0.000 C 
ENDBRANCH  23  26
ENDBRANCH   3  20
TORSDOF 5
ENDMDL
MODEL 2
REMARK VINA RESULT:      -8.6      2.209      3.283
REMARK  Name = 
REMARK  5 active torsions:
REMARK  status: ('A' for Active; 'I' for Inactive)
REMARK    1  A    between atoms: C_2  and  C_16
REMARK    2  A    between atoms: N_3  and  C_4
REMARK    3  A    between atoms: C_7  and  N_8
REMARK    4  A    between atoms: C_21  and  S_22
REMARK    5  A    between atoms: S_22  and  N_25
REMARK                            x       y       z     vdW  Elec       q    Type
REMARK                         _______ _______ _______ _____ _____    ______ ____
ROOT
ATOM      1  O   UNL     1      -0.397   8.703  21.465  0.00  0.00    +0.000 OA
ATOM      2  C   UNL     1       0.170   9.469  20.684  0.00  0.00    +0.000 C 
ATOM      3  N   UNL     1      -0.066  10.820  20.518  0.00  0.00    +0.000 N 
ATOM      4  H   UNL     1       0.386  11.289  19.745  0.00  0.00    +0.000 HD
ENDROOT
BRANCH   2   5
ATOM      5  C   UNL     1       1.128   8.837  19.751  0.00  0.00    +0.000 A 
ATOM      6  C   UNL     1       1.513   9.408  18.541  0.00  0.00    +0.000 A 
ATOM      7  C   UNL     1       2.465   8.748  17.755  0.00  0.00    +0.000 A 
ATOM      8  C   UNL     1       3.007   7.511  18.153  0.00  0.00    +0.000 A 
ATOM      9 CL   UNL     1       4.151   6.778  17.090  0.00  0.00    +0.000 Cl
ATOM     10  C   UNL     1       2.593   6.940  19.358  0.00  0.00    +0.000 A 
ATOM     11  C   UNL     1       1.675   7.618  20.163  0.00  0.00    +0.000 A 
BRANCH  10  12
ATOM     12  S   UNL     1       3.069   5.286  19.783  0.00  0.00    +0.000 S 
ATOM     13  O   UNL     1       4.512   5.259  19.661  0.00  0.00    +0.000 OA
ATOM     14  O   UNL     1       2.386   4.907  21.000  0.00  0.00    +0.000 OA
BRANCH  12  15
ATOM     15  N   UNL     1       2.442   4.311  18.524  0.00  0.00    +0.000 NA
ATOM     16  C   UNL     1       1.264   3.462  18.844  0.00  0.00    +0.000 C 
ATOM     17  C   UNL     1       1.832   2.063  18.987  0.00  0.00    +0.000 C 
ATOM     18  C   UNL     1       2.943   2.016  17.958  0.00  0.00    +0.000 C 
ATOM     19  C   UNL     1       3.433   3.452  17.821  0.00  0.00    +0.000 C 
ENDBRANCH  12  15
ENDBRANCH  10  12
ENDBRANCH   2   5
BRANCH   3  20
ATOM     20  C   UNL     1      -1.076  11.547  21.198  0.00  0.00    +0.000 A 
ATOM     21  C   UNL     1      -1.166  11.604  22.587  0.00  0.00    +0.000 A 
ATOM     22  C   UNL     1      -2.212  12.286  23.221  0.00  0.00    +0.000 A 
ATOM     23  C   UNL     1      -3.210  12.936  22.497  0.00  0.00    +0.000 A 
ATOM     24  C   UNL     1      -3.100  12.890  21.098  0.00  0.00    +0.000 A 
ATOM     25  C   UNL     1      -2.043  12.220  20.453  0.00  0.00    +0.000 A 
BRANCH  23  26
ATOM     26  N   UNL     1      -4.236  13.637  23.109  0.00  0.00    +0.000 N 
ATOM     27  C   UNL     1      -5.075  13.032  24.159  0.00  0.00    +0.000 C 
ATOM     28  C   UNL     1      -6.493  12.733  23.650  0.00  0.00    +0.000 C 
ATOM     29  O   UNL     1      -7.098  13.895  23.063  0.00  0.00    +0.000 OA
ATOM     30  C   UNL     1      -6.310  14.349  21.951  0.00  0.00    +0.000 C 
ATOM     31  C   UNL     1      -4.886  14.744  22.383  0.00  0.00    +0.000 C 
ENDBRANCH  23  26
ENDBRANCH   3  20
TORSDOF 5
ENDMDL
MODEL 3
REMARK VINA RESULT:      -8.5      2.019      2.672
REMARK  Name = 
REMARK  5 active torsions:
REMARK  status: ('A' for Active; 'I' for Inactive)
REMARK    1  A    between atoms: C_2  and  C_16
REMARK    2  A    between atoms: N_3  and  C_4
REMARK    3  A    between atoms: C_7  and  N_8
REMARK    4  A    between atoms: C_21  and  S_22
REMARK    5  A    between atoms: S_22  and  N_25
REMARK                            x       y       z     vdW  Elec       q    Type
REMARK                         _______ _______ _______ _____ _____    ______ ____
ROOT
ATOM      1  O   UNL     1       0.369   8.231  21.329  0.00  0.00    +0.000 OA
ATOM      2  C   UNL     1       0.833   8.948  20.442  0.00  0.00    +0.000 C 
ATOM      3  N   UNL     1       0.521  10.268  20.183  0.00  0.00    +0.000 N 
ATOM      4  H   UNL     1       0.885  10.685  19.338  0.00  0.00    +0.000 HD
ENDROOT
BRANCH   2   5
ATOM      5  C   UNL     1       1.742   8.276  19.488  0.00  0.00    +0.000 A 
ATOM      6  C   UNL     1       2.093   8.811  18.252  0.00  0.00    +0.000 A 
ATOM      7  C   UNL     1       3.000   8.115  17.445  0.00  0.00    +0.000 A 
ATOM      8  C   UNL     1       3.533   6.877  17.852  0.00  0.00    +0.000 A 
ATOM      9 CL   UNL     1       4.621   6.097  16.764  0.00  0.00    +0.000 Cl
ATOM     10  C   UNL     1       3.155   6.341  19.085  0.00  0.00    +0.000 A 
ATOM     11  C   UNL     1       2.282   7.055  19.907  0.00  0.00    +0.000 A 
BRANCH  10  12
ATOM     12  S   UNL     1       3.615   4.688  19.530  0.00  0.00    +0.000 S 
ATOM     13  O   UNL     1       5.048   4.623  19.332  0.00  0.00    +0.000 OA
ATOM     14  O   UNL     1       2.989   4.358  20.791  0.00  0.00    +0.000 OA
BRANCH  12  15
ATOM     15  N   UNL     1       2.899   3.695  18.333  0.00  0.00    +0.000 NA
ATOM     16  C   UNL     1       1.458   3.915  18.040  0.00  0.00    +0.000 C 
ATOM     17  C   UNL     1       0.751   2.763  18.727  0.00  0.00    +0.000 C 
ATOM     18  C   UNL     1       1.714   1.603  18.575  0.00  0.00    +0.000 C 
ATOM     19  C   UNL     1       3.100   2.231  18.507  0.00  0.00    +0.000 C 
ENDBRANCH  12  15
ENDBRANCH  10  12
ENDBRANCH   2   5
BRANCH   3  20
ATOM     20  C   UNL     1      -0.466  11.010  20.881  0.00  0.00    +0.000 A 
ATOM     21  C   UNL     1      -0.517  11.083  22.271  0.00  0.00    +0.000 A 
ATOM     22  C   UNL     1      -1.542  11.780  22.926  0.00  0.00    +0.000 A 
ATOM     23  C   UNL     1      -2.554  12.429  22.221  0.00  0.00    +0.000 A 
ATOM     24  C   UNL     1      -2.483  12.367  20.820  0.00  0.00    +0.000 A 
ATOM     25  C   UNL     1      -1.448  11.682  20.155  0.00  0.00    +0.000 A 
BRANCH  23  26
ATOM     26  N   UNL     1      -3.558  13.145  22.853  0.00  0.00    +0.000 N 
ATOM     27  C   UNL     1      -3.816  13.014  24.298  0.00  0.00    +0.000 C 
ATOM     28  C   UNL     1      -5.118  12.248  24.574  0.00  0.00    +0.000 C 
ATOM     29  O   UNL     1      -6.228  12.822  23.866  0.00  0.00    +0.000 OA
ATOM     30  C   UNL     1      -5.978  12.785  22.451  0.00  0.00    +0.000 C 
ATOM     31  C   UNL     1      -4.725  13.594  22.071  0.00  0.00    +0.000 C 
ENDBRANCH  23  26
ENDBRANCH   3  20
TORSDOF 5
ENDMDL
MODEL 4
REMARK VINA RESULT:      -8.5      1.031      1.403
REMARK  Name = 
REMARK  5 active torsions:
REMARK  status: ('A' for Active; 'I' for Inactive)
REMARK    1  A    between atoms: C_2  and  C_16
REMARK    2  A    between atoms: N_3  and  C_4
REMARK    3  A    between atoms: C_7  and  N_8
REMARK    4  A    between atoms: C_21  and  S_22
REMARK    5  A    between atoms: S_22  and  N_25
REMARK                            x       y       z     vdW  Elec       q    Type
REMARK                         _______ _______ _______ _____ _____    ______ ____
ROOT
ATOM      1  O   UNL     1       1.206   9.048  17.812  0.00  0.00    +0.000 OA
ATOM      2  C   UNL     1       1.768   8.324  18.635  0.00  0.00    +0.000 C 
ATOM      3  N   UNL     1       1.655   8.376  20.011  0.00  0.00    +0.000 N 
ATOM      4  H   UNL     1       2.280   7.803  20.561  0.00  0.00    +0.000 HD
ENDROOT
BRANCH   2   5
ATOM      5  C   UNL     1       2.755   7.372  18.080  0.00  0.00    +0.000 A 
ATOM      6  C   UNL     1       3.942   7.764  17.469  0.00  0.00    +0.000 A 
ATOM      7  C   UNL     1       4.831   6.779  17.021  0.00  0.00    +0.000 A 
ATOM      8  C   UNL     1       4.525   5.411  17.152  0.00  0.00    +0.000 A 
ATOM      9 CL   UNL     1       5.682   4.288  16.540  0.00  0.00    +0.000 Cl
ATOM     10  C   UNL     1       3.320   5.033  17.747  0.00  0.00    +0.000 A 
ATOM     11  C   UNL     1       2.453   6.015  18.231  0.00  0.00    +0.000 A 
BRANCH  10  12
ATOM     12  S   UNL     1       2.792   3.342  17.722  0.00  0.00    +0.000 S 
ATOM     13  O   UNL     1       1.406   3.379  17.300  0.00  0.00    +0.000 OA
ATOM     14  O   UNL     1       3.791   2.555  17.033  0.00  0.00    +0.000 OA
BRANCH  12  15
ATOM     15  N   UNL     1       2.803   2.852  19.362  0.00  0.00    +0.000 NA
ATOM     16  C   UNL     1       1.519   2.369  19.936  0.00  0.00    +0.000 C 
ATOM     17  C   UNL     1       1.026   3.522  20.788  0.00  0.00    +0.000 C 
ATOM     18  C   UNL     1       2.297   4.125  21.353  0.00  0.00    +0.000 C 
ATOM     19  C   UNL     1       3.380   3.831  20.322  0.00  0.00    +0.000 C 
ENDBRANCH  12  15
ENDBRANCH  10  12
ENDBRANCH   2   5
BRANCH   3  20
ATOM     20  C   UNL     1       0.898   9.346  20.717  0.00  0.00    +0.000 A 
ATOM     21  C   UNL     1       0.936  10.705  20.414  0.00  0.00    +0.000 A 
ATOM     22  C   UNL     1       0.218  11.639  21.172  0.00  0.00    +0.000 A 
ATOM     23  C   UNL     1      -0.564  11.256  22.261  0.00  0.00    +0.000 A 
ATOM     24  C   UNL     1      -0.611   9.882  22.546  0.00  0.00    +0.000 A 
ATOM     25  C   UNL     1       0.095   8.935  21.780  0.00  0.00    +0.000 A 
BRANCH  23  26
ATOM     26  N   UNL     1      -1.301  12.164  23.003  0.00  0.00    +0.000 N 
ATOM     27  C   UNL     1      -2.684  11.882  23.427  0.00  0.00    +0.000 C 
ATOM     28  C   UNL     1      -3.701  12.724  22.643  0.00  0.00    +0.000 C 
ATOM     29  O   UNL     1      -3.382  14.123  22.699  0.00  0.00    +0.000 OA
ATOM     30  C   UNL     1      -2.081  14.352  22.134  0.00  0.00    +0.000 C 
ATOM     31  C   UNL     1      -0.982  13.601  22.908  0.00  0.00    +0.000 C 
ENDBRANCH  23  26
ENDBRANCH   3  20
TORSDOF 5
ENDMDL
MODEL 5
REMARK VINA RESULT:      -8.5      6.123      8.276
REMARK  Name = 
REMARK  5 active torsions:
REMARK  status: ('A' for Active; 'I' for Inactive)
REMARK    1  A    between atoms: C_2  and  C_16
REMARK    2  A    between atoms: N_3  and  C_4
REMARK    3  A    between atoms: C_7  and  N_8
REMARK    4  A    between atoms: C_21  and  S_22
REMARK    5  A    between atoms: S_22  and  N_25
REMARK                            x       y       z     vdW  Elec       q    Type
REMARK                         _______ _______ _______ _____ _____    ______ ____
ROOT
ATOM      1  O   UNL     1       8.448   6.935  18.924  0.00  0.00    +0.000 OA
ATOM      2  C   UNL     1       7.702   7.329  18.028  0.00  0.00    +0.000 C 
ATOM      3  N   UNL     1       7.606   8.611  17.521  0.00  0.00    +0.000 N 
ATOM      4  H   UNL     1       6.854   8.813  16.878  0.00  0.00    +0.000 HD
ENDROOT
BRANCH   2   5
ATOM      5  C   UNL     1       6.729   6.336  17.522  0.00  0.00    +0.000 A 
ATOM      6  C   UNL     1       6.937   5.567  16.381  0.00  0.00    +0.000 A 
ATOM      7  C   UNL     1       5.973   4.620  16.017  0.00  0.00    +0.000 A 
ATOM      8  C   UNL     1       4.792   4.460  16.767  0.00  0.00    +0.000 A 
ATOM      9 CL   UNL     1       3.663   3.282  16.209  0.00  0.00    +0.000 Cl
ATOM     10  C   UNL     1       4.587   5.254  17.897  0.00  0.00    +0.000 A 
ATOM     11  C   UNL     1       5.567   6.170  18.283  0.00  0.00    +0.000 A 
BRANCH  10  12
ATOM     12  S   UNL     1       3.022   5.252  18.729  0.00  0.00    +0.000 S 
ATOM     13  O   UNL     1       3.232   6.017  19.942  0.00  0.00    +0.000 OA
ATOM     14  O   UNL     1       1.988   5.582  17.773  0.00  0.00    +0.000 OA
BRANCH  12  15
ATOM     15  N   UNL     1       2.776   3.625  19.200  0.00  0.00    +0.000 NA
ATOM     16  C   UNL     1       1.373   3.139  19.263  0.00  0.00    +0.000 C 
ATOM     17  C   UNL     1       1.047   3.108  20.743  0.00  0.00    +0.000 C 
ATOM     18  C   UNL     1       2.354   2.703  21.394  0.00  0.00    +0.000 C 
ATOM     19  C   UNL     1       3.447   3.212  20.463  0.00  0.00    +0.000 C 
ENDBRANCH  12  15
ENDBRANCH  10  12
ENDBRANCH   2   5
BRANCH   3  20
ATOM     20  C   UNL     1       8.331   9.725  18.017  0.00  0.00    +0.000 A 
ATOM     21  C   UNL     1       9.132   9.663  19.155  0.00  0.00    +0.000 A 
ATOM     22  C   UNL     1       9.786  10.800  19.647  0.00  0.00    +0.000 A 
ATOM     23  C   UNL     1       9.668  12.042  19.024  0.00  0.00    +0.000 A 
ATOM     24  C   UNL     1       8.874  12.090  17.867  0.00  0.00    +0.000 A 
ATOM     25  C   UNL     1       8.226  10.949  17.358  0.00  0.00    +0.000 A 
BRANCH  23  26
ATOM     26  N   UNL     1      10.331  13.169  19.482  0.00  0.00    +0.000 N 
ATOM     27  C   UNL     1       9.709  14.506  19.448  0.00  0.00    +0.000 C 
ATOM     28  C   UNL     1      10.343  15.398  18.370  0.00  0.00    +0.000 C 
ATOM     29  O   UNL     1      11.771  15.457  18.508  0.00  0.00    +0.000 OA
ATOM     30  C   UNL     1      12.331  14.140  18.383  0.00  0.00    +0.000 C 
ATOM     31  C   UNL     1      11.805  13.191  19.476  0.00  0.00    +0.000 C 
ENDBRANCH  23  26
ENDBRANCH   3  20
TORSDOF 5
ENDMDL
MODEL 6
REMARK VINA RESULT:      -8.5      2.258      3.218
REMARK  Name = 
REMARK  5 active torsions:
REMARK  status: ('A' for Active; 'I' for Inactive)
REMARK    1  A    between atoms: C_2  and  C_16
REMARK    2  A    between atoms: N_3  and  C_4
REMARK    3  A    between atoms: C_7  and  N_8
REMARK    4  A    between atoms: C_21  and  S_22
REMARK    5  A    between atoms: S_22  and  N_25
REMARK                            x       y       z     vdW  Elec       q    Type
REMARK                         _______ _______ _______ _____ _____    ______ ____
ROOT
ATOM      1  O   UNL     1      -0.185   8.662  21.375  0.00  0.00    +0.000 OA
ATOM      2  C   UNL     1       0.341   9.415  20.555  0.00  0.00    +0.000 C 
ATOM      3  N   UNL     1       0.071  10.755  20.356  0.00  0.00    +0.000 N 
ATOM      4  H   UNL     1       0.488  11.210  19.556  0.00  0.00    +0.000 HD
ENDROOT
BRANCH   2   5
ATOM      5  C   UNL     1       1.284   8.775  19.612  0.00  0.00    +0.000 A 
ATOM      6  C   UNL     1       1.637   9.327  18.384  0.00  0.00    +0.000 A 
ATOM      7  C   UNL     1       2.577   8.662  17.588  0.00  0.00    +0.000 A 
ATOM      8  C   UNL     1       3.140   7.438  17.997  0.00  0.00    +0.000 A 
ATOM      9 CL   UNL     1       4.268   6.697  16.923  0.00  0.00    +0.000 Cl
ATOM     10  C   UNL     1       2.760   6.886  19.222  0.00  0.00    +0.000 A 
ATOM     11  C   UNL     1       1.853   7.569  20.034  0.00  0.00    +0.000 A 
BRANCH  10  12
ATOM     12  S   UNL     1       3.261   5.245  19.666  0.00  0.00    +0.000 S 
ATOM     13  O   UNL     1       4.710   5.268  19.644  0.00  0.00    +0.000 OA
ATOM     14  O   UNL     1       2.509   4.831  20.830  0.00  0.00    +0.000 OA
BRANCH  12  15
ATOM     15  N   UNL     1       2.757   4.261  18.359  0.00  0.00    +0.000 NA
ATOM     16  C   UNL     1       1.424   3.612  18.471  0.00  0.00    +0.000 C 
ATOM     17  C   UNL     1       1.732   2.166  18.808  0.00  0.00    +0.000 C 
ATOM     18  C   UNL     1       3.006   1.879  18.039  0.00  0.00    +0.000 C 
ATOM     19  C   UNL     1       3.726   3.217  17.928  0.00  0.00    +0.000 C 
ENDBRANCH  12  15
ENDBRANCH  10  12
ENDBRANCH   2   5
BRANCH   3  20
ATOM     20  C   UNL     1      -0.935  11.482  21.044  0.00  0.00    +0.000 A 
ATOM     21  C   UNL     1      -1.988  12.121  20.394  0.00  0.00    +0.000 A 
ATOM     22  C   UNL     1      -2.929  12.877  21.104  0.00  0.00    +0.000 A 
ATOM     23  C   UNL     1      -2.858  13.026  22.488  0.00  0.00    +0.000 A 
ATOM     24  C   UNL     1      -1.804  12.362  23.136  0.00  0.00    +0.000 A 
ATOM     25  C   UNL     1      -0.863  11.587  22.432  0.00  0.00    +0.000 A 
BRANCH  23  26
ATOM     26  N   UNL     1      -3.796  13.747  23.207  0.00  0.00    +0.000 N 
ATOM     27  C   UNL     1      -4.557  14.856  22.603  0.00  0.00    +0.000 C 
ATOM     28  C   UNL     1      -4.094  16.219  23.138  0.00  0.00    +0.000 C 
ATOM     29  O   UNL     1      -4.112  16.256  24.574  0.00  0.00    +0.000 OA
ATOM     30  C   UNL     1      -3.236  15.247  25.101  0.00  0.00    +0.000 C 
ATOM     31  C   UNL     1      -3.670  13.833  24.674  0.00  0.00    +0.000 C 
ENDBRANCH  23  26
ENDBRANCH   3  20
TORSDOF 5
ENDMDL
MODEL 7
REMARK VINA RESULT:      -8.5      0.739      1.085
REMARK  Name = 
REMARK  5 active torsions:
REMARK  status: ('A' for Active; 'I' for Inactive)
REMARK    1  A    between atoms: C_2  and  C_16
REMARK    2  A    between atoms: N_3  and  C_4
REMARK    3  A    between atoms: C_7  and  N_8
REMARK    4  A    between atoms: C_21  and  S_22
REMARK    5  A    between atoms: S_22  and  N_25
REMARK                            x       y       z     vdW  Elec       q    Type
REMARK                         _______ _______ _______ _____ _____    ______ ____
ROOT
ATOM      1  O   UNL     1       2.279   9.910  17.588  0.00  0.00    +0.000 OA
ATOM      2  C   UNL     1       2.038   8.855  18.177  0.00  0.00    +0.000 C 
ATOM      3  N   UNL     1       1.133   8.657  19.203  0.00  0.00    +0.000 N 
ATOM      4  H   UNL     1       1.141   7.765  19.677  0.00  0.00    +0.000 HD
ENDROOT
BRANCH   2   5
ATOM      5  C   UNL     1       2.897   7.708  17.812  0.00  0.00    +0.000 A 
ATOM      6  C   UNL     1       4.200   7.842  17.343  0.00  0.00    +0.000 A 
ATOM      7  C   UNL     1       4.944   6.688  17.072  0.00  0.00    +0.000 A 
ATOM      8  C   UNL     1       4.384   5.406  17.237  0.00  0.00    +0.000 A 
ATOM      9 CL   UNL     1       5.386   4.057  16.847  0.00  0.00    +0.000 Cl
ATOM     10  C   UNL     1       3.068   5.288  17.687  0.00  0.00    +0.000 A 
ATOM     11  C   UNL     1       2.339   6.439  17.996  0.00  0.00    +0.000 A 
BRANCH  10  12
ATOM     12  S   UNL     1       2.251   3.715  17.685  0.00  0.00    +0.000 S 
ATOM     13  O   UNL     1       0.837   4.018  17.763  0.00  0.00    +0.000 OA
ATOM     14  O   UNL     1       2.813   2.903  16.628  0.00  0.00    +0.000 OA
BRANCH  12  15
ATOM     15  N   UNL     1       2.690   2.989  19.172  0.00  0.00    +0.000 NA
ATOM     16  C   UNL     1       1.690   2.096  19.814  0.00  0.00    +0.000 C 
ATOM     17  C   UNL     1       1.113   2.924  20.946  0.00  0.00    +0.000 C 
ATOM     18  C   UNL     1       2.291   3.744  21.432  0.00  0.00    +0.000 C 
ATOM     19  C   UNL     1       3.194   3.919  20.218  0.00  0.00    +0.000 C 
ENDBRANCH  12  15
ENDBRANCH  10  12
ENDBRANCH   2   5
BRANCH   3  20
ATOM     20  C   UNL     1       0.362   9.687  19.802  0.00  0.00    +0.000 A 
ATOM     21  C   UNL     1      -0.651  10.365  19.128  0.00  0.00    +0.000 A 
ATOM     22  C   UNL     1      -1.352  11.415  19.735  0.00  0.00    +0.000 A 
ATOM     23  C   UNL     1      -1.070  11.831  21.035  0.00  0.00    +0.000 A 
ATOM     24  C   UNL     1      -0.061  11.128  21.713  0.00  0.00    +0.000 A 
ATOM     25  C   UNL     1       0.637  10.061  21.116  0.00  0.00    +0.000 A 
BRANCH  23  26
ATOM     26  N   UNL     1      -1.772  12.848  21.659  0.00  0.00    +0.000 N 
ATOM     27  C   UNL     1      -1.848  12.956  23.127  0.00  0.00    +0.000 C 
ATOM     28  C   UNL     1      -3.243  12.588  23.652  0.00  0.00    +0.000 C 
ATOM     29  O   UNL     1      -4.271  13.342  22.991  0.00  0.00    +0.000 OA
ATOM     30  C   UNL     1      -4.240  13.078  21.579  0.00  0.00    +0.000 C 
ATOM     31  C   UNL     1      -2.896  13.489  20.950  0.00  0.00    +0.000 C 
ENDBRANCH  23  26
ENDBRANCH   3  20
TORSDOF 5
ENDMDL
MODEL 8
REMARK VINA RESULT:      -8.5      0.752      1.001
REMARK  Name = 
REMARK  5 active torsions:
REMARK  status: ('A' for Active; 'I' for Inactive)
REMARK    1  A    between atoms: C_2  and  C_16
REMARK    2  A    between atoms: N_3  and  C_4
REMARK    3  A    between atoms: C_7  and  N_8
REMARK    4  A    between atoms: C_21  and  S_22
REMARK    5  A    between atoms: S_22  and  N_25
REMARK                            x       y       z     vdW  Elec       q    Type
REMARK                         _______ _______ _______ _____ _____    ______ ____
ROOT
ATOM      1  O   UNL     1       2.463   9.757  17.680  0.00  0.00    +0.000 OA
ATOM      2  C   UNL     1       2.271   8.669  18.223  0.00  0.00    +0.000 C 
ATOM      3  N   UNL     1       1.459   8.406  19.309  0.00  0.00    +0.000 N 
ATOM      4  H   UNL     1       1.505   7.487  19.725  0.00  0.00    +0.000 HD
ENDROOT
BRANCH   2   5
ATOM      5  C   UNL     1       3.092   7.548  17.714  0.00  0.00    +0.000 A 
ATOM      6  C   UNL     1       4.143   7.709  16.816  0.00  0.00    +0.000 A 
ATOM      7  C   UNL     1       4.887   6.587  16.436  0.00  0.00    +0.000 A 
ATOM      8  C   UNL     1       4.568   5.304  16.922  0.00  0.00    +0.000 A 
ATOM      9 CL   UNL     1       5.538   3.991  16.365  0.00  0.00    +0.000 Cl
ATOM     10  C   UNL     1       3.498   5.155  17.805  0.00  0.00    +0.000 A 
ATOM     11  C   UNL     1       2.780   6.280  18.216  0.00  0.00    +0.000 A 
BRANCH  10  12
ATOM     12  S   UNL     1       2.918   3.541  18.256  0.00  0.00    +0.000 S 
ATOM     13  O   UNL     1       2.191   3.058  17.099  0.00  0.00    +0.000 OA
ATOM     14  O   UNL     1       4.013   2.804  18.847  0.00  0.00    +0.000 OA
BRANCH  12  15
ATOM     15  N   UNL     1       1.765   3.817  19.491  0.00  0.00    +0.000 NA
ATOM     16  C   UNL     1       2.228   4.542  20.704  0.00  0.00    +0.000 C 
ATOM     17  C   UNL     1       2.381   3.462  21.757  0.00  0.00    +0.000 C 
ATOM     18  C   UNL     1       1.257   2.492  21.447  0.00  0.00    +0.000 C 
ATOM     19  C   UNL     1       1.013   2.617  19.949  0.00  0.00    +0.000 C 
ENDBRANCH  12  15
ENDBRANCH  10  12
ENDBRANCH   2   5
BRANCH   3  20
ATOM     20  C   UNL     1       0.746   9.395  20.034  0.00  0.00    +0.000 A 
ATOM     21  C   UNL     1      -0.115  10.307  19.428  0.00  0.00    +0.000 A 
ATOM     22  C   UNL     1      -0.756  11.306  20.171  0.00  0.00    +0.000 A 
ATOM     23  C   UNL     1      -0.566  11.435  21.546  0.00  0.00    +0.000 A 
ATOM     24  C   UNL     1       0.287  10.499  22.151  0.00  0.00    +0.000 A 
ATOM     25  C   UNL     1       0.924   9.482  21.414  0.00  0.00    +0.000 A 
BRANCH  23  26
ATOM     26  N   UNL     1      -1.214  12.400  22.299  0.00  0.00    +0.000 N 
ATOM     27  C   UNL     1      -2.659  12.323  22.586  0.00  0.00    +0.000 C 
ATOM     28  C   UNL     1      -3.451  13.374  21.795  0.00  0.00    +0.000 C 
ATOM     29  O   UNL     1      -2.919  14.694  21.994  0.00  0.00    +0.000 OA
ATOM     30  C   UNL     1      -1.551  14.742  21.556  0.00  0.00    +0.000 C 
ATOM     31  C   UNL     1      -0.663  13.767  22.351  0.00  0.00    +0.000 C 
ENDBRANCH  23  26
ENDBRANCH   3  20
TORSDOF 5
ENDMDL
MODEL 9
REMARK VINA RESULT:      -8.5      2.369      3.812
REMARK  Name = 
REMARK  5 active torsions:
REMARK  status: ('A' for Active; 'I' for Inactive)
REMARK    1  A    between atoms: C_2  and  C_16
REMARK    2  A    between atoms: N_3  and  C_4
REMARK    3  A    between atoms: C_7  and  N_8
REMARK    4  A    between atoms: C_21  and  S_22
REMARK    5  A    between atoms: S_22  and  N_25
REMARK                            x       y       z     vdW  Elec       q    Type
REMARK                         _______ _______ _______ _____ _____    ______ ____
ROOT
ATOM      1  O   UNL     1       1.529   8.497  19.103  0.00  0.00    +0.000 OA
ATOM      2  C   UNL     1       1.532   7.797  20.116  0.00  0.00    +0.000 C 
ATOM      3  N   UNL     1       1.016   8.117  21.357  0.00  0.00    +0.000 N 
ATOM      4  H   UNL     1       1.211   7.493  22.128  0.00  0.00    +0.000 HD
ENDROOT
BRANCH   2   5
ATOM      5  C   UNL     1       2.270   6.520  20.008  0.00  0.00    +0.000 A 
ATOM      6  C   UNL     1       1.822   5.323  20.558  0.00  0.00    +0.000 A 
ATOM      7  C   UNL     1       2.574   4.160  20.355  0.00  0.00    +0.000 A 
ATOM      8  C   UNL     1       3.784   4.193  19.635  0.00  0.00    +0.000 A 
ATOM      9 CL   UNL     1       4.639   2.705  19.472  0.00  0.00    +0.000 Cl
ATOM     10  C   UNL     1       4.232   5.406  19.108  0.00  0.00    +0.000 A 
ATOM     11  C   UNL     1       3.461   6.558  19.275  0.00  0.00    +0.000 A 
BRANCH  10  12
ATOM     12  S   UNL     1       5.852   5.538  18.402  0.00  0.00    +0.000 S 
ATOM     13  O   UNL     1       5.884   6.834  17.756  0.00  0.00    +0.000 OA
ATOM     14  O   UNL     1       6.825   5.143  19.397  0.00  0.00    +0.000 OA
BRANCH  12  15
ATOM     15  N   UNL     1       5.890   4.359  17.161  0.00  0.00    +0.000 NA
ATOM     16  C   UNL     1       7.154   4.221  16.392  0.00  0.00    +0.000 C 
ATOM     17  C   UNL     1       6.871   4.903  15.068  0.00  0.00    +0.000 C 
ATOM     18  C   UNL     1       5.412   4.589  14.803  0.00  0.00    +0.000 C 
ATOM     19  C   UNL     1       4.775   4.425  16.177  0.00  0.00    +0.000 C 
ENDBRANCH  12  15
ENDBRANCH  10  12
ENDBRANCH   2   5
BRANCH   3  20
ATOM     20  C   UNL     1       0.440   9.371  21.687  0.00  0.00    +0.000 A 
ATOM     21  C   UNL     1       0.837  10.567  21.094  0.00  0.00    +0.000 A 
ATOM     22  C   UNL     1       0.285  11.793  21.488  0.00  0.00    +0.000 A 
ATOM     23  C   UNL     1      -0.682  11.874  22.488  0.00  0.00    +0.000 A 
ATOM     24  C   UNL     1      -1.090  10.662  23.066  0.00  0.00    +0.000 A 
ATOM     25  C   UNL     1      -0.552   9.424  22.664  0.00  0.00    +0.000 A 
BRANCH  23  26
ATOM     26  N   UNL     1      -1.258  13.075  22.869  0.00  0.00    +0.000 N 
ATOM     27  C   UNL     1      -2.712  13.213  23.068  0.00  0.00    +0.000 C 
ATOM     28  C   UNL     1      -3.363  14.034  21.946  0.00  0.00    +0.000 C 
ATOM     29  O   UNL     1      -2.708  15.300  21.771  0.00  0.00    +0.000 OA
ATOM     30  C   UNL     1      -1.327  15.095  21.432  0.00  0.00    +0.000 C 
ATOM     31  C   UNL     1      -0.573  14.340  22.542  0.00  0.00    +0.000 C 
ENDBRANCH  23  26
ENDBRANCH   3  20
TORSDOF 5
ENDMDL
