MODEL 1
REMARK VINA RESULT:      -6.1      0.000      0.000
REMARK  Name = 
REMARK  9 active torsions:
REMARK  status: ('A' for Active; 'I' for Inactive)
REMARK    1  A    between atoms: C_1  and  C_2
REMARK    2  A    between atoms: C_2  and  C_3
REMARK    3  A    between atoms: C_2  and  C_4
REMARK    4  A    between atoms: C_2  and  N_5
REMARK    5  A    between atoms: C_6  and  O_8
REMARK    6  A    between atoms: O_8  and  C_9
REMARK    7  A    between atoms: C_9  and  C_10
REMARK    8  A    between atoms: C_10  and  C_11
REMARK    9  A    between atoms: C_11  and  C_12
REMARK                            x       y       z     vdW  Elec       q    Type
REMARK                         _______ _______ _______ _____ _____    ______ ____
ROOT
ATOM      1  O   UNL     1       5.826   4.302  19.414  0.00  0.00    +0.000 OA
ENDROOT
BRANCH   1   3
ATOM      2  N   UNL     1       3.783   3.539  18.923  0.00  0.00    +0.000 N 
ATOM      3  C   UNL     1       4.511   4.617  19.335  0.00  0.00    +0.000 C 
ATOM      4  O   UNL     1       4.048   5.713  19.605  0.00  0.00    +0.000 OA
ATOM      5  H   UNL     1       4.312   2.690  18.756  0.00  0.00    +0.000 HD
BRANCH   2   7
ATOM      6  C   UNL     1       1.886   4.662  17.811  0.00  0.00    +0.000 C 
ATOM      7  C   UNL     1       2.324   3.549  18.778  0.00  0.00    +0.000 C 
ATOM      8  C   UNL     1       1.648   3.754  20.145  0.00  0.00    +0.000 C 
ATOM      9  C   UNL     1       1.852   2.204  18.196  0.00  0.00    +0.000 C 
ENDBRANCH   2   7
ENDBRANCH   1   3
BRANCH   1  10
ATOM     10  C   UNL     1       6.699   5.445  19.351  0.00  0.00    +0.000 C 
BRANCH  10  11
ATOM     11  C   UNL     1       7.657   5.313  18.170  0.00  0.00    +0.000 C 
BRANCH  11  12
ATOM     12  C   UNL     1       7.141   6.063  16.946  0.00  0.00    +0.000 C 
BRANCH  12  13
ATOM     13  C   UNL     1       6.819   5.143  15.822  0.00  0.00    +0.000 A 
ATOM     14  C   UNL     1       6.040   4.006  15.825  0.00  0.00    +0.000 A 
ATOM     15  N   UNL     1       6.086   3.535  14.542  0.00  0.00    +0.000 N 
ATOM     16  C   UNL     1       6.869   4.388  13.819  0.00  0.00    +0.000 A 
ATOM     17  N   UNL     1       7.324   5.370  14.562  0.00  0.00    +0.000 NA
ATOM     18  H   UNL     1       5.630   2.705  14.188  0.00  0.00    +0.000 HD
ENDBRANCH  12  13
ENDBRANCH  11  12
ENDBRANCH  10  11
ENDBRANCH   1  10
TORSDOF 6
ENDMDL
MODEL 2
REMARK VINA RESULT:      -6.1      0.641      1.322
REMARK  Name = 
REMARK  9 active torsions:
REMARK  status: ('A' for Active; 'I' for Inactive)
REMARK    1  A    between atoms: C_1  and  C_2
REMARK    2  A    between atoms: C_2  and  C_3
REMARK    3  A    between atoms: C_2  and  C_4
REMARK    4  A    between atoms: C_2  and  N_5
REMARK    5  A    between atoms: C_6  and  O_8
REMARK    6  A    between atoms: O_8  and  C_9
REMARK    7  A    between atoms: C_9  and  C_10
REMARK    8  A    between atoms: C_10  and  C_11
REMARK    9  A    between atoms: C_11  and  C_12
REMARK                            x       y       z     vdW  Elec       q    Type
REMARK                         _______ _______ _______ _____ _____    ______ ____
ROOT
ATOM      1  O   UNL     1       5.690   4.282  19.255  0.00  0.00    +0.000 OA
ENDROOT
BRANCH   1   3
ATOM      2  N   UNL     1       3.587   3.539  19.116  0.00  0.00    +0.000 N 
ATOM      3  C   UNL     1       4.389   4.642  19.148  0.00  0.00    +0.000 C 
ATOM      4  O   UNL     1       3.996   5.796  19.097  0.00  0.00    +0.000 OA
ATOM      5  H   UNL     1       4.064   2.646  19.188  0.00  0.00    +0.000 HD
BRANCH   2   7
ATOM      6  C   UNL     1       1.526   2.180  19.037  0.00  0.00    +0.000 C 
ATOM      7  C   UNL     1       2.123   3.597  19.046  0.00  0.00    +0.000 C 
ATOM      8  C   UNL     1       1.675   4.357  17.784  0.00  0.00    +0.000 C 
ATOM      9  C   UNL     1       1.574   4.335  20.281  0.00  0.00    +0.000 C 
ENDBRANCH   2   7
ENDBRANCH   1   3
BRANCH   1  10
ATOM     10  C   UNL     1       6.582   5.392  19.469  0.00  0.00    +0.000 C 
BRANCH  10  11
ATOM     11  C   UNL     1       7.623   5.456  18.354  0.00  0.00    +0.000 C 
BRANCH  11  12
ATOM     12  C   UNL     1       7.184   6.392  17.233  0.00  0.00    +0.000 C 
BRANCH  12  13
ATOM     13  C   UNL     1       6.676   5.648  16.050  0.00  0.00    +0.000 A 
ATOM     14  C   UNL     1       5.383   5.283  15.741  0.00  0.00    +0.000 A 
ATOM     15  N   UNL     1       5.474   4.608  14.555  0.00  0.00    +0.000 N 
ATOM     16  C   UNL     1       6.788   4.592  14.190  0.00  0.00    +0.000 A 
ATOM     17  N   UNL     1       7.539   5.213  15.070  0.00  0.00    +0.000 NA
ATOM     18  H   UNL     1       4.710   4.190  14.040  0.00  0.00    +0.000 HD
ENDBRANCH  12  13
ENDBRANCH  11  12
ENDBRANCH  10  11
ENDBRANCH   1  10
TORSDOF 6
ENDMDL
MODEL 3
REMARK VINA RESULT:      -6.1      1.226      1.912
REMARK  Name = 
REMARK  9 active torsions:
REMARK  status: ('A' for Active; 'I' for Inactive)
REMARK    1  A    between atoms: C_1  and  C_2
REMARK    2  A    between atoms: C_2  and  C_3
REMARK    3  A    between atoms: C_2  and  C_4
REMARK    4  A    between atoms: C_2  and  N_5
REMARK    5  A    between atoms: C_6  and  O_8
REMARK    6  A    between atoms: O_8  and  C_9
REMARK    7  A    between atoms: C_9  and  C_10
REMARK    8  A    between atoms: C_10  and  C_11
REMARK    9  A    between atoms: C_11  and  C_12
REMARK                            x       y       z     vdW  Elec       q    Type
REMARK                         _______ _______ _______ _____ _____    ______ ____
ROOT
ATOM      1  O   UNL     1       5.351   4.728  19.097  0.00  0.00    +0.000 OA
ENDROOT
BRANCH   1   3
ATOM      2  N   UNL     1       3.281   4.148  19.708  0.00  0.00    +0.000 N 
ATOM      3  C   UNL     1       4.567   3.720  19.548  0.00  0.00    +0.000 C 
ATOM      4  O   UNL     1       4.961   2.587  19.769  0.00  0.00    +0.000 OA
ATOM      5  H   UNL     1       3.106   5.117  19.463  0.00  0.00    +0.000 HD
BRANCH   2   7
ATOM      6  C   UNL     1       2.481   2.691  21.535  0.00  0.00    +0.000 C 
ATOM      7  C   UNL     1       2.183   3.280  20.146  0.00  0.00    +0.000 C 
ATOM      8  C   UNL     1       1.963   2.140  19.135  0.00  0.00    +0.000 C 
ATOM      9  C   UNL     1       0.884   4.100  20.247  0.00  0.00    +0.000 C 
ENDBRANCH   2   7
ENDBRANCH   1   3
BRANCH   1  10
ATOM     10  C   UNL     1       4.619   5.791  18.461  0.00  0.00    +0.000 C 
BRANCH  10  11
ATOM     11  C   UNL     1       5.488   6.477  17.410  0.00  0.00    +0.000 C 
BRANCH  11  12
ATOM     12  C   UNL     1       6.756   5.680  17.127  0.00  0.00    +0.000 C 
BRANCH  12  13
ATOM     13  C   UNL     1       6.692   4.971  15.820  0.00  0.00    +0.000 A 
ATOM     14  C   UNL     1       5.997   3.829  15.484  0.00  0.00    +0.000 A 
ATOM     15  N   UNL     1       6.294   3.601  14.169  0.00  0.00    +0.000 N 
ATOM     16  C   UNL     1       7.135   4.595  13.759  0.00  0.00    +0.000 A 
ATOM     17  N   UNL     1       7.392   5.439  14.732  0.00  0.00    +0.000 NA
ATOM     18  H   UNL     1       5.959   2.836  13.600  0.00  0.00    +0.000 HD
ENDBRANCH  12  13
ENDBRANCH  11  12
ENDBRANCH  10  11
ENDBRANCH   1  10
TORSDOF 6
ENDMDL
MODEL 4
REMARK VINA RESULT:      -6.0      1.130      1.578
REMARK  Name = 
REMARK  9 active torsions:
REMARK  status: ('A' for Active; 'I' for Inactive)
REMARK    1  A    between atoms: C_1  and  C_2
REMARK    2  A    between atoms: C_2  and  C_3
REMARK    3  A    between atoms: C_2  and  C_4
REMARK    4  A    between atoms: C_2  and  N_5
REMARK    5  A    between atoms: C_6  and  O_8
REMARK    6  A    between atoms: O_8  and  C_9
REMARK    7  A    between atoms: C_9  and  C_10
REMARK    8  A    between atoms: C_10  and  C_11
REMARK    9  A    between atoms: C_11  and  C_12
REMARK                            x       y       z     vdW  Elec       q    Type
REMARK                         _______ _______ _______ _____ _____    ______ ____
ROOT
ATOM      1  O   UNL     1       5.070   4.781  19.269  0.00  0.00    +0.000 OA
ENDROOT
BRANCH   1   3
ATOM      2  N   UNL     1       3.338   3.691  20.168  0.00  0.00    +0.000 N 
ATOM      3  C   UNL     1       3.798   4.359  19.071  0.00  0.00    +0.000 C 
ATOM      4  O   UNL     1       3.157   4.559  18.052  0.00  0.00    +0.000 OA
ATOM      5  H   UNL     1       3.986   3.624  20.946  0.00  0.00    +0.000 HD
BRANCH   2   7
ATOM      6  C   UNL     1       1.755   2.043  19.231  0.00  0.00    +0.000 C 
ATOM      7  C   UNL     1       1.981   3.146  20.280  0.00  0.00    +0.000 C 
ATOM      8  C   UNL     1       0.936   4.261  20.094  0.00  0.00    +0.000 C 
ATOM      9  C   UNL     1       1.786   2.522  21.673  0.00  0.00    +0.000 C 
ENDBRANCH   2   7
ENDBRANCH   1   3
BRANCH   1  10
ATOM     10  C   UNL     1       5.466   5.854  18.396  0.00  0.00    +0.000 C 
BRANCH  10  11
ATOM     11  C   UNL     1       6.985   5.874  18.238  0.00  0.00    +0.000 C 
BRANCH  11  12
ATOM     12  C   UNL     1       7.493   4.609  17.556  0.00  0.00    +0.000 C 
BRANCH  12  13
ATOM     13  C   UNL     1       7.003   4.494  16.156  0.00  0.00    +0.000 A 
ATOM     14  C   UNL     1       5.967   3.732  15.657  0.00  0.00    +0.000 A 
ATOM     15  N   UNL     1       5.952   3.982  14.313  0.00  0.00    +0.000 N 
ATOM     16  C   UNL     1       6.952   4.873  14.049  0.00  0.00    +0.000 A 
ATOM     17  N   UNL     1       7.602   5.203  15.141  0.00  0.00    +0.000 NA
ATOM     18  H   UNL     1       5.321   3.581  13.632  0.00  0.00    +0.000 HD
ENDBRANCH  12  13
ENDBRANCH  11  12
ENDBRANCH  10  11
ENDBRANCH   1  10
TORSDOF 6
ENDMDL
MODEL 5
REMARK VINA RESULT:      -5.9      1.901      5.407
REMARK  Name = 
REMARK  9 active torsions:
REMARK  status: ('A' for Active; 'I' for Inactive)
REMARK    1  A    between atoms: C_1  and  C_2
REMARK    2  A    between atoms: C_2  and  C_3
REMARK    3  A    between atoms: C_2  and  C_4
REMARK    4  A    between atoms: C_2  and  N_5
REMARK    5  A    between atoms: C_6  and  O_8
REMARK    6  A    between atoms: O_8  and  C_9
REMARK    7  A    between atoms: C_9  and  C_10
REMARK    8  A    between atoms: C_10  and  C_11
REMARK    9  A    between atoms: C_11  and  C_12
REMARK                            x       y       z     vdW  Elec       q    Type
REMARK                         _______ _______ _______ _____ _____    ______ ____
ROOT
ATOM      1  O   UNL     1       4.440   2.859  19.438  0.00  0.00    +0.000 OA
ENDROOT
BRANCH   1   3
ATOM      2  N   UNL     1       5.083   3.756  17.494  0.00  0.00    +0.000 N 
ATOM      3  C   UNL     1       5.239   3.780  18.850  0.00  0.00    +0.000 C 
ATOM      4  O   UNL     1       5.986   4.531  19.455  0.00  0.00    +0.000 OA
ATOM      5  H   UNL     1       4.408   3.086  17.142  0.00  0.00    +0.000 HD
BRANCH   2   7
ATOM      6  C   UNL     1       5.467   4.299  15.116  0.00  0.00    +0.000 C 
ATOM      7  C   UNL     1       5.781   4.663  16.578  0.00  0.00    +0.000 C 
ATOM      8  C   UNL     1       7.301   4.601  16.813  0.00  0.00    +0.000 C 
ATOM      9  C   UNL     1       5.308   6.108  16.818  0.00  0.00    +0.000 C 
ENDBRANCH   2   7
ENDBRANCH   1   3
BRANCH   1  10
ATOM     10  C   UNL     1       3.595   2.150  18.513  0.00  0.00    +0.000 C 
BRANCH  10  11
ATOM     11  C   UNL     1       2.167   2.078  19.049  0.00  0.00    +0.000 C 
BRANCH  11  12
ATOM     12  C   UNL     1       1.331   3.260  18.573  0.00  0.00    +0.000 C 
BRANCH  12  13
ATOM     13  C   UNL     1       1.732   4.531  19.234  0.00  0.00    +0.000 A 
ATOM     14  C   UNL     1       1.625   4.893  20.561  0.00  0.00    +0.000 A 
ATOM     15  N   UNL     1       2.125   6.164  20.628  0.00  0.00    +0.000 N 
ATOM     16  C   UNL     1       2.516   6.519  19.370  0.00  0.00    +0.000 A 
ATOM     17  N   UNL     1       2.294   5.555  18.507  0.00  0.00    +0.000 NA
ATOM     18  H   UNL     1       2.192   6.741  21.455  0.00  0.00    +0.000 HD
ENDBRANCH  12  13
ENDBRANCH  11  12
ENDBRANCH  10  11
ENDBRANCH   1  10
TORSDOF 6
ENDMDL
MODEL 6
REMARK VINA RESULT:      -5.9      1.206      1.483
REMARK  Name = 
REMARK  9 active torsions:
REMARK  status: ('A' for Active; 'I' for Inactive)
REMARK    1  A    between atoms: C_1  and  C_2
REMARK    2  A    between atoms: C_2  and  C_3
REMARK    3  A    between atoms: C_2  and  C_4
REMARK    4  A    between atoms: C_2  and  N_5
REMARK    5  A    between atoms: C_6  and  O_8
REMARK    6  A    between atoms: O_8  and  C_9
REMARK    7  A    between atoms: C_9  and  C_10
REMARK    8  A    between atoms: C_10  and  C_11
REMARK    9  A    between atoms: C_11  and  C_12
REMARK                            x       y       z     vdW  Elec       q    Type
REMARK                         _______ _______ _______ _____ _____    ______ ____
ROOT
ATOM      1  O   UNL     1       5.785   3.999  19.545  0.00  0.00    +0.000 OA
ENDROOT
BRANCH   1   3
ATOM      2  N   UNL     1       3.832   5.077  19.689  0.00  0.00    +0.000 N 
ATOM      3  C   UNL     1       4.462   3.947  19.255  0.00  0.00    +0.000 C 
ATOM      4  O   UNL     1       3.920   3.020  18.678  0.00  0.00    +0.000 OA
ATOM      5  H   UNL     1       4.426   5.768  20.135  0.00  0.00    +0.000 HD
BRANCH   2   7
ATOM      6  C   UNL     1       2.018   5.126  18.014  0.00  0.00    +0.000 C 
ATOM      7  C   UNL     1       2.404   5.340  19.488  0.00  0.00    +0.000 C 
ATOM      8  C   UNL     1       2.057   6.779  19.910  0.00  0.00    +0.000 C 
ATOM      9  C   UNL     1       1.572   4.367  20.342  0.00  0.00    +0.000 C 
ENDBRANCH   2   7
ENDBRANCH   1   3
BRANCH   1  10
ATOM     10  C   UNL     1       6.412   5.239  19.170  0.00  0.00    +0.000 C 
BRANCH  10  11
ATOM     11  C   UNL     1       7.461   4.995  18.088  0.00  0.00    +0.000 C 
BRANCH  11  12
ATOM     12  C   UNL     1       7.215   5.870  16.864  0.00  0.00    +0.000 C 
BRANCH  12  13
ATOM     13  C   UNL     1       6.924   5.063  15.649  0.00  0.00    +0.000 A 
ATOM     14  C   UNL     1       6.154   3.926  15.524  0.00  0.00    +0.000 A 
ATOM     15  N   UNL     1       6.231   3.583  14.202  0.00  0.00    +0.000 N 
ATOM     16  C   UNL     1       7.021   4.507  13.583  0.00  0.00    +0.000 A 
ATOM     17  N   UNL     1       7.453   5.415  14.428  0.00  0.00    +0.000 NA
ATOM     18  H   UNL     1       5.789   2.789  13.759  0.00  0.00    +0.000 HD
ENDBRANCH  12  13
ENDBRANCH  11  12
ENDBRANCH  10  11
ENDBRANCH   1  10
TORSDOF 6
ENDMDL
MODEL 7
REMARK VINA RESULT:      -5.9      1.358      1.719
REMARK  Name = 
REMARK  9 active torsions:
REMARK  status: ('A' for Active; 'I' for Inactive)
REMARK    1  A    between atoms: C_1  and  C_2
REMARK    2  A    between atoms: C_2  and  C_3
REMARK    3  A    between atoms: C_2  and  C_4
REMARK    4  A    between atoms: C_2  and  N_5
REMARK    5  A    between atoms: C_6  and  O_8
REMARK    6  A    between atoms: O_8  and  C_9
REMARK    7  A    between atoms: C_9  and  C_10
REMARK    8  A    between atoms: C_10  and  C_11
REMARK    9  A    between atoms: C_11  and  C_12
REMARK                            x       y       z     vdW  Elec       q    Type
REMARK                         _______ _______ _______ _____ _____    ______ ____
ROOT
ATOM      1  O   UNL     1       5.630   3.736  19.286  0.00  0.00    +0.000 OA
ENDROOT
BRANCH   1   3
ATOM      2  N   UNL     1       3.565   4.222  19.990  0.00  0.00    +0.000 N 
ATOM      3  C   UNL     1       4.399   3.236  19.548  0.00  0.00    +0.000 C 
ATOM      4  O   UNL     1       4.084   2.067  19.400  0.00  0.00    +0.000 OA
ATOM      5  H   UNL     1       3.971   5.150  20.041  0.00  0.00    +0.000 HD
BRANCH   2   7
ATOM      6  C   UNL     1       1.461   5.345  20.631  0.00  0.00    +0.000 C 
ATOM      7  C   UNL     1       2.153   4.006  20.320  0.00  0.00    +0.000 C 
ATOM      8  C   UNL     1       2.020   3.061  21.527  0.00  0.00    +0.000 C 
ATOM      9  C   UNL     1       1.431   3.369  19.119  0.00  0.00    +0.000 C 
ENDBRANCH   2   7
ENDBRANCH   1   3
BRANCH   1  10
ATOM     10  C   UNL     1       5.663   5.172  19.190  0.00  0.00    +0.000 C 
BRANCH  10  11
ATOM     11  C   UNL     1       7.102   5.659  19.038  0.00  0.00    +0.000 C 
BRANCH  11  12
ATOM     12  C   UNL     1       7.298   6.428  17.737  0.00  0.00    +0.000 C 
BRANCH  12  13
ATOM     13  C   UNL     1       6.815   5.663  16.556  0.00  0.00    +0.000 A 
ATOM     14  C   UNL     1       7.213   4.423  16.102  0.00  0.00    +0.000 A 
ATOM     15  N   UNL     1       6.467   4.195  14.979  0.00  0.00    +0.000 N 
ATOM     16  C   UNL     1       5.655   5.278  14.798  0.00  0.00    +0.000 A 
ATOM     17  N   UNL     1       5.840   6.179  15.735  0.00  0.00    +0.000 NA
ATOM     18  H   UNL     1       6.507   3.378  14.384  0.00  0.00    +0.000 HD
ENDBRANCH  12  13
ENDBRANCH  11  12
ENDBRANCH  10  11
ENDBRANCH   1  10
TORSDOF 6
ENDMDL
MODEL 8
REMARK VINA RESULT:      -5.8      2.303      5.395
REMARK  Name = 
REMARK  9 active torsions:
REMARK  status: ('A' for Active; 'I' for Inactive)
REMARK    1  A    between atoms: C_1  and  C_2
REMARK    2  A    between atoms: C_2  and  C_3
REMARK    3  A    between atoms: C_2  and  C_4
REMARK    4  A    between atoms: C_2  and  N_5
REMARK    5  A    between atoms: C_6  and  O_8
REMARK    6  A    between atoms: O_8  and  C_9
REMARK    7  A    between atoms: C_9  and  C_10
REMARK    8  A    between atoms: C_10  and  C_11
REMARK    9  A    between atoms: C_11  and  C_12
REMARK                            x       y       z     vdW  Elec       q    Type
REMARK                         _______ _______ _______ _____ _____    ______ ____
ROOT
ATOM      1  O   UNL     1       3.358   5.877  18.192  0.00  0.00    +0.000 OA
ENDROOT
BRANCH   1   3
ATOM      2  N   UNL     1       5.572   5.805  18.491  0.00  0.00    +0.000 N 
ATOM      3  C   UNL     1       4.565   5.974  17.585  0.00  0.00    +0.000 C 
ATOM      4  O   UNL     1       4.722   6.175  16.393  0.00  0.00    +0.000 OA
ATOM      5  H   UNL     1       5.278   5.626  19.446  0.00  0.00    +0.000 HD
BRANCH   2   7
ATOM      6  C   UNL     1       7.370   7.136  17.445  0.00  0.00    +0.000 C 
ATOM      7  C   UNL     1       6.994   5.814  18.138  0.00  0.00    +0.000 C 
ATOM      8  C   UNL     1       7.327   4.631  17.212  0.00  0.00    +0.000 C 
ATOM      9  C   UNL     1       7.846   5.690  19.415  0.00  0.00    +0.000 C 
ENDBRANCH   2   7
ENDBRANCH   1   3
BRANCH   1  10
ATOM     10  C   UNL     1       3.437   5.765  19.624  0.00  0.00    +0.000 C 
BRANCH  10  11
ATOM     11  C   UNL     1       2.070   5.405  20.203  0.00  0.00    +0.000 C 
BRANCH  11  12
ATOM     12  C   UNL     1       2.028   3.956  20.676  0.00  0.00    +0.000 C 
BRANCH  12  13
ATOM     13  C   UNL     1       2.343   3.001  19.580  0.00  0.00    +0.000 A 
ATOM     14  C   UNL     1       1.593   2.670  18.471  0.00  0.00    +0.000 A 
ATOM     15  N   UNL     1       2.335   1.738  17.800  0.00  0.00    +0.000 N 
ATOM     16  C   UNL     1       3.488   1.545  18.504  0.00  0.00    +0.000 A 
ATOM     17  N   UNL     1       3.524   2.294  19.582  0.00  0.00    +0.000 NA
ATOM     18  H   UNL     1       2.081   1.271  16.940  0.00  0.00    +0.000 HD
ENDBRANCH  12  13
ENDBRANCH  11  12
ENDBRANCH  10  11
ENDBRANCH   1  10
TORSDOF 6
ENDMDL
MODEL 9
REMARK VINA RESULT:      -5.8      2.216      5.278
REMARK  Name = 
REMARK  9 active torsions:
REMARK  status: ('A' for Active; 'I' for Inactive)
REMARK    1  A    between atoms: C_1  and  C_2
REMARK    2  A    between atoms: C_2  and  C_3
REMARK    3  A    between atoms: C_2  and  C_4
REMARK    4  A    between atoms: C_2  and  N_5
REMARK    5  A    between atoms: C_6  and  O_8
REMARK    6  A    between atoms: O_8  and  C_9
REMARK    7  A    between atoms: C_9  and  C_10
REMARK    8  A    between atoms: C_10  and  C_11
REMARK    9  A    between atoms: C_11  and  C_12
REMARK                            x       y       z     vdW  Elec       q    Type
REMARK                         _______ _______ _______ _____ _____    ______ ____
ROOT
ATOM      1  O   UNL     1       2.518   5.827  18.949  0.00  0.00    +0.000 OA
ENDROOT
BRANCH   1   3
ATOM      2  N   UNL     1       4.097   5.773  17.367  0.00  0.00    +0.000 N 
ATOM      3  C   UNL     1       3.846   5.710  18.707  0.00  0.00    +0.000 C 
ATOM      4  O   UNL     1       4.694   5.576  19.574  0.00  0.00    +0.000 OA
ATOM      5  H   UNL     1       3.285   5.907  16.774  0.00  0.00    +0.000 HD
BRANCH   2   7
ATOM      6  C   UNL     1       6.268   6.941  17.222  0.00  0.00    +0.000 C 
ATOM      7  C   UNL     1       5.443   5.718  16.788  0.00  0.00    +0.000 C 
ATOM      8  C   UNL     1       5.366   5.663  15.252  0.00  0.00    +0.000 C 
ATOM      9  C   UNL     1       6.169   4.455  17.286  0.00  0.00    +0.000 C 
ENDBRANCH   2   7
ENDBRANCH   1   3
BRANCH   1  10
ATOM     10  C   UNL     1       2.148   5.526  20.307  0.00  0.00    +0.000 C 
BRANCH  10  11
ATOM     11  C   UNL     1       1.055   4.461  20.333  0.00  0.00    +0.000 C 
BRANCH  11  12
ATOM     12  C   UNL     1       1.574   3.141  20.891  0.00  0.00    +0.000 C 
BRANCH  12  13
ATOM     13  C   UNL     1       2.635   2.549  20.033  0.00  0.00    +0.000 A 
ATOM     14  C   UNL     1       3.958   2.303  20.331  0.00  0.00    +0.000 A 
ATOM     15  N   UNL     1       4.490   1.769  19.191  0.00  0.00    +0.000 N 
ATOM     16  C   UNL     1       3.492   1.703  18.262  0.00  0.00    +0.000 A 
ATOM     17  N   UNL     1       2.359   2.165  18.741  0.00  0.00    +0.000 NA
ATOM     18  H   UNL     1       5.448   1.476  19.052  0.00  0.00    +0.000 HD
ENDBRANCH  12  13
ENDBRANCH  11  12
ENDBRANCH  10  11
ENDBRANCH   1  10
TORSDOF 6
ENDMDL
