MODEL 1
REMARK VINA RESULT:      -8.0      0.000      0.000
REMARK  Name = 
REMARK  9 active torsions:
REMARK  status: ('A' for Active; 'I' for Inactive)
REMARK    1  A    between atoms: C_1  and  C_2
REMARK    2  A    between atoms: C_2  and  O_3
REMARK    3  A    between atoms: C_2  and  C_11
REMARK    4  A    between atoms: O_3  and  C_4
REMARK    5  A    between atoms: N_13  and  N_14
REMARK    6  A    between atoms: C_15  and  C_17
REMARK    7  A    between atoms: C_17  and  C_18
REMARK    8  A    between atoms: C_21  and  S_22
REMARK    9  A    between atoms: S_22  and  N_25
REMARK                            x       y       z     vdW  Elec       q    Type
REMARK                         _______ _______ _______ _____ _____    ______ ____
ROOT
ATOM      1  N   UNL     1       8.316   8.143  18.248  0.00  0.00    +0.000 N 
ATOM      2  C   UNL     1       8.432   9.516  18.260  0.00  0.00    +0.000 C 
ATOM      3  O   UNL     1       7.751  10.256  17.552  0.00  0.00    +0.000 OA
ATOM      4  H   UNL     1       8.970   7.528  18.732  0.00  0.00    +0.000 HD
ENDROOT
BRANCH   1   7
ATOM      5  C   UNL     1       7.207   6.178  17.531  0.00  0.00    +0.000 C 
ATOM      6  O   UNL     1       7.790   5.550  18.420  0.00  0.00    +0.000 OA
ATOM      7  N   UNL     1       7.471   7.517  17.322  0.00  0.00    +0.000 N 
ATOM      8  H   UNL     1       6.892   8.105  16.724  0.00  0.00    +0.000 HD
BRANCH   5  10
ATOM      9  C   UNL     1       7.084   4.964  15.360  0.00  0.00    +0.000 C 
ATOM     10  C   UNL     1       6.252   5.522  16.517  0.00  0.00    +0.000 C 
BRANCH  10  11
ATOM     11  O   UNL     1       5.507   4.476  17.150  0.00  0.00    +0.000 OA
BRANCH  11  12
ATOM     12  C   UNL     1       4.480   4.807  17.997  0.00  0.00    +0.000 A 
ATOM     13  C   UNL     1       3.671   5.852  17.533  0.00  0.00    +0.000 A 
ATOM     14  C   UNL     1       2.579   6.305  18.282  0.00  0.00    +0.000 A 
ATOM     15  C   UNL     1       2.285   5.720  19.512  0.00  0.00    +0.000 A 
ATOM     16  C   UNL     1       3.083   4.685  19.987  0.00  0.00    +0.000 A 
ATOM     17  C   UNL     1       4.168   4.233  19.233  0.00  0.00    +0.000 A 
ATOM     18  F   UNL     1       4.895   3.236  19.754  0.00  0.00    +0.000 F 
ENDBRANCH  11  12
ENDBRANCH  10  11
ENDBRANCH   5  10
ENDBRANCH   1   7
BRANCH   2  19
ATOM     19  C   UNL     1       9.467  10.031  19.247  0.00  0.00    +0.000 C 
BRANCH  19  20
ATOM     20  C   UNL     1      10.056  11.320  18.758  0.00  0.00    +0.000 A 
ATOM     21  C   UNL     1      10.859  11.515  17.651  0.00  0.00    +0.000 A 
ATOM     22  C   UNL     1      11.240  12.876  17.494  0.00  0.00    +0.000 A 
ATOM     23  C   UNL     1      10.714  13.693  18.476  0.00  0.00    +0.000 A 
ATOM     24  S   UNL     1       9.751  12.801  19.575  0.00  0.00    +0.000 S 
BRANCH  23  25
ATOM     25  S   UNL     1      10.889  15.443  18.776  0.00  0.00    +0.000 S 
ATOM     26  O   UNL     1      10.352  15.658  20.102  0.00  0.00    +0.000 OA
ATOM     27  O   UNL     1      12.280  15.725  18.481  0.00  0.00    +0.000 OA
BRANCH  25  28
ATOM     28  N   UNL     1       9.950  16.306  17.660  0.00  0.00    +0.000 NA
ATOM     29  C   UNL     1      10.221  17.768  17.523  0.00  0.00    +0.000 C 
ATOM     30  C   UNL     1       9.373  18.631  18.468  0.00  0.00    +0.000 C 
ATOM     31  O   UNL     1       7.979  18.306  18.396  0.00  0.00    +0.000 OA
ATOM     32  C   UNL     1       7.772  16.927  18.728  0.00  0.00    +0.000 C 
ATOM     33  C   UNL     1       8.481  16.028  17.713  0.00  0.00    +0.000 C 
ENDBRANCH  25  28
ENDBRANCH  23  25
ENDBRANCH  19  20
ENDBRANCH   2  19
TORSDOF 8
ENDMDL
MODEL 2
REMARK VINA RESULT:      -7.7      1.278      1.412
REMARK  Name = 
REMARK  9 active torsions:
REMARK  status: ('A' for Active; 'I' for Inactive)
REMARK    1  A    between atoms: C_1  and  C_2
REMARK    2  A    between atoms: C_2  and  O_3
REMARK    3  A    between atoms: C_2  and  C_11
REMARK    4  A    between atoms: O_3  and  C_4
REMARK    5  A    between atoms: N_13  and  N_14
REMARK    6  A    between atoms: C_15  and  C_17
REMARK    7  A    between atoms: C_17  and  C_18
REMARK    8  A    between atoms: C_21  and  S_22
REMARK    9  A    between atoms: S_22  and  N_25
REMARK                            x       y       z     vdW  Elec       q    Type
REMARK                         _______ _______ _______ _____ _____    ______ ____
ROOT
ATOM      1  N   UNL     1       8.321   7.788  18.440  0.00  0.00    +0.000 N 
ATOM      2  C   UNL     1       8.407   9.160  18.340  0.00  0.00    +0.000 C 
ATOM      3  O   UNL     1       7.671   9.830  17.617  0.00  0.00    +0.000 OA
ATOM      4  H   UNL     1       9.015   7.225  18.933  0.00  0.00    +0.000 HD
ENDROOT
BRANCH   1   7
ATOM      5  C   UNL     1       6.965   5.876  18.105  0.00  0.00    +0.000 C 
ATOM      6  O   UNL     1       7.398   5.410  19.164  0.00  0.00    +0.000 OA
ATOM      7  N   UNL     1       7.441   7.077  17.615  0.00  0.00    +0.000 N 
ATOM      8  H   UNL     1       6.991   7.574  16.848  0.00  0.00    +0.000 HD
BRANCH   5  10
ATOM      9  C   UNL     1       6.677   4.826  15.866  0.00  0.00    +0.000 C 
ATOM     10  C   UNL     1       5.976   5.129  17.192  0.00  0.00    +0.000 C 
BRANCH  10  11
ATOM     11  O   UNL     1       5.545   3.918  17.822  0.00  0.00    +0.000 OA
BRANCH  11  12
ATOM     12  C   UNL     1       4.265   3.836  18.305  0.00  0.00    +0.000 A 
ATOM     13  C   UNL     1       3.302   4.428  17.477  0.00  0.00    +0.000 A 
ATOM     14  C   UNL     1       1.948   4.425  17.829  0.00  0.00    +0.000 A 
ATOM     15  C   UNL     1       1.538   3.834  19.022  0.00  0.00    +0.000 A 
ATOM     16  C   UNL     1       2.483   3.248  19.857  0.00  0.00    +0.000 A 
ATOM     17  C   UNL     1       3.833   3.249  19.498  0.00  0.00    +0.000 A 
ATOM     18  F   UNL     1       4.687   2.670  20.352  0.00  0.00    +0.000 F 
ENDBRANCH  11  12
ENDBRANCH  10  11
ENDBRANCH   5  10
ENDBRANCH   1   7
BRANCH   2  19
ATOM     19  C   UNL     1       9.482   9.769  19.224  0.00  0.00    +0.000 C 
BRANCH  19  20
ATOM     20  C   UNL     1       9.772  11.177  18.796  0.00  0.00    +0.000 A 
ATOM     21  C   UNL     1      10.514  11.592  17.708  0.00  0.00    +0.000 A 
ATOM     22  C   UNL     1      10.583  13.010  17.612  0.00  0.00    +0.000 A 
ATOM     23  C   UNL     1       9.888  13.646  18.621  0.00  0.00    +0.000 A 
ATOM     24  S   UNL     1       9.145  12.517  19.672  0.00  0.00    +0.000 S 
BRANCH  23  25
ATOM     25  S   UNL     1       9.670  15.377  18.997  0.00  0.00    +0.000 S 
ATOM     26  O   UNL     1       9.251  15.417  20.381  0.00  0.00    +0.000 OA
ATOM     27  O   UNL     1      10.909  15.999  18.575  0.00  0.00    +0.000 OA
BRANCH  25  28
ATOM     28  N   UNL     1       8.431  16.014  18.033  0.00  0.00    +0.000 NA
ATOM     29  C   UNL     1       7.917  17.371  18.385  0.00  0.00    +0.000 C 
ATOM     30  C   UNL     1       6.741  17.335  19.370  0.00  0.00    +0.000 C 
ATOM     31  O   UNL     1       5.709  16.434  18.951  0.00  0.00    +0.000 OA
ATOM     32  C   UNL     1       6.233  15.106  18.817  0.00  0.00    +0.000 C 
ATOM     33  C   UNL     1       7.309  15.071  17.731  0.00  0.00    +0.000 C 
ENDBRANCH  25  28
ENDBRANCH  23  25
ENDBRANCH  19  20
ENDBRANCH   2  19
TORSDOF 8
ENDMDL
MODEL 3
REMARK VINA RESULT:      -7.7      7.078      9.153
REMARK  Name = 
REMARK  9 active torsions:
REMARK  status: ('A' for Active; 'I' for Inactive)
REMARK    1  A    between atoms: C_1  and  C_2
REMARK    2  A    between atoms: C_2  and  O_3
REMARK    3  A    between atoms: C_2  and  C_11
REMARK    4  A    between atoms: O_3  and  C_4
REMARK    5  A    between atoms: N_13  and  N_14
REMARK    6  A    between atoms: C_15  and  C_17
REMARK    7  A    between atoms: C_17  and  C_18
REMARK    8  A    between atoms: C_21  and  S_22
REMARK    9  A    between atoms: S_22  and  N_25
REMARK                            x       y       z     vdW  Elec       q    Type
REMARK                         _______ _______ _______ _____ _____    ______ ____
ROOT
ATOM      1  N   UNL     1       3.083   7.913  17.665  0.00  0.00    +0.000 N 
ATOM      2  C   UNL     1       2.212   8.595  18.487  0.00  0.00    +0.000 C 
ATOM      3  O   UNL     1       1.793   8.140  19.550  0.00  0.00    +0.000 OA
ATOM      4  H   UNL     1       3.322   8.232  16.726  0.00  0.00    +0.000 HD
ENDROOT
BRANCH   1   7
ATOM      5  C   UNL     1       4.760   6.243  17.730  0.00  0.00    +0.000 C 
ATOM      6  O   UNL     1       5.532   7.027  17.169  0.00  0.00    +0.000 OA
ATOM      7  N   UNL     1       3.444   6.593  17.965  0.00  0.00    +0.000 N 
ATOM      8  H   UNL     1       2.832   6.052  18.573  0.00  0.00    +0.000 HD
BRANCH   5  10
ATOM      9  C   UNL     1       6.665   4.700  18.163  0.00  0.00    +0.000 C 
ATOM     10  C   UNL     1       5.139   4.797  18.097  0.00  0.00    +0.000 C 
BRANCH  10  11
ATOM     11  O   UNL     1       4.557   4.440  19.355  0.00  0.00    +0.000 OA
BRANCH  11  12
ATOM     12  C   UNL     1       3.319   3.852  19.374  0.00  0.00    +0.000 A 
ATOM     13  C   UNL     1       3.104   2.939  18.334  0.00  0.00    +0.000 A 
ATOM     14  C   UNL     1       1.889   2.252  18.217  0.00  0.00    +0.000 A 
ATOM     15  C   UNL     1       0.869   2.476  19.139  0.00  0.00    +0.000 A 
ATOM     16  C   UNL     1       1.067   3.384  20.174  0.00  0.00    +0.000 A 
ATOM     17  C   UNL     1       2.283   4.062  20.289  0.00  0.00    +0.000 A 
ATOM     18  F   UNL     1       2.402   4.924  21.307  0.00  0.00    +0.000 F 
ENDBRANCH  11  12
ENDBRANCH  10  11
ENDBRANCH   5  10
ENDBRANCH   1   7
BRANCH   2  19
ATOM     19  C   UNL     1       1.836   9.973  17.966  0.00  0.00    +0.000 C 
BRANCH  19  20
ATOM     20  C   UNL     1       0.678  10.524  18.744  0.00  0.00    +0.000 A 
ATOM     21  C   UNL     1      -0.667  10.382  18.469  0.00  0.00    +0.000 A 
ATOM     22  C   UNL     1      -1.487  11.047  19.422  0.00  0.00    +0.000 A 
ATOM     23  C   UNL     1      -0.752  11.676  20.409  0.00  0.00    +0.000 A 
ATOM     24  S   UNL     1       0.928  11.442  20.175  0.00  0.00    +0.000 S 
BRANCH  23  25
ATOM     25  S   UNL     1      -1.253  12.663  21.808  0.00  0.00    +0.000 S 
ATOM     26  O   UNL     1      -0.475  12.167  22.922  0.00  0.00    +0.000 OA
ATOM     27  O   UNL     1      -1.117  14.032  21.354  0.00  0.00    +0.000 OA
BRANCH  25  28
ATOM     28  N   UNL     1      -2.896  12.398  22.129  0.00  0.00    +0.000 NA
ATOM     29  C   UNL     1      -3.881  13.266  21.418  0.00  0.00    +0.000 C 
ATOM     30  C   UNL     1      -4.232  14.543  22.194  0.00  0.00    +0.000 C 
ATOM     31  O   UNL     1      -4.597  14.270  23.553  0.00  0.00    +0.000 OA
ATOM     32  C   UNL     1      -3.525  13.603  24.232  0.00  0.00    +0.000 C 
ATOM     33  C   UNL     1      -3.246  12.249  23.576  0.00  0.00    +0.000 C 
ENDBRANCH  25  28
ENDBRANCH  23  25
ENDBRANCH  19  20
ENDBRANCH   2  19
TORSDOF 8
ENDMDL
MODEL 4
REMARK VINA RESULT:      -7.6      4.259     11.579
REMARK  Name = 
REMARK  9 active torsions:
REMARK  status: ('A' for Active; 'I' for Inactive)
REMARK    1  A    between atoms: C_1  and  C_2
REMARK    2  A    between atoms: C_2  and  O_3
REMARK    3  A    between atoms: C_2  and  C_11
REMARK    4  A    between atoms: O_3  and  C_4
REMARK    5  A    between atoms: N_13  and  N_14
REMARK    6  A    between atoms: C_15  and  C_17
REMARK    7  A    between atoms: C_17  and  C_18
REMARK    8  A    between atoms: C_21  and  S_22
REMARK    9  A    between atoms: S_22  and  N_25
REMARK                            x       y       z     vdW  Elec       q    Type
REMARK                         _______ _______ _______ _____ _____    ______ ____
ROOT
ATOM      1  N   UNL     1       8.342   8.555  18.498  0.00  0.00    +0.000 N 
ATOM      2  C   UNL     1       7.834   7.499  17.770  0.00  0.00    +0.000 C 
ATOM      3  O   UNL     1       7.603   7.562  16.564  0.00  0.00    +0.000 OA
ATOM      4  H   UNL     1       8.405   8.545  19.516  0.00  0.00    +0.000 HD
ENDROOT
BRANCH   1   7
ATOM      5  C   UNL     1       9.256  10.736  18.593  0.00  0.00    +0.000 C 
ATOM      6  O   UNL     1       9.637  10.502  19.745  0.00  0.00    +0.000 OA
ATOM      7  N   UNL     1       8.513   9.807  17.893  0.00  0.00    +0.000 N 
ATOM      8  H   UNL     1       8.332   9.888  16.893  0.00  0.00    +0.000 HD
BRANCH   5  10
ATOM      9  C   UNL     1       8.101  12.569  17.367  0.00  0.00    +0.000 C 
ATOM     10  C   UNL     1       9.456  12.093  17.895  0.00  0.00    +0.000 C 
BRANCH  10  11
ATOM     11  O   UNL     1      10.000  13.044  18.815  0.00  0.00    +0.000 OA
BRANCH  11  12
ATOM     12  C   UNL     1      10.392  14.274  18.351  0.00  0.00    +0.000 A 
ATOM     13  C   UNL     1      11.655  14.279  17.745  0.00  0.00    +0.000 A 
ATOM     14  C   UNL     1      12.196  15.458  17.218  0.00  0.00    +0.000 A 
ATOM     15  C   UNL     1      11.482  16.650  17.296  0.00  0.00    +0.000 A 
ATOM     16  C   UNL     1      10.228  16.661  17.900  0.00  0.00    +0.000 A 
ATOM     17  C   UNL     1       9.691  15.481  18.420  0.00  0.00    +0.000 A 
ATOM     18  F   UNL     1       8.482  15.566  18.990  0.00  0.00    +0.000 F 
ENDBRANCH  11  12
ENDBRANCH  10  11
ENDBRANCH   5  10
ENDBRANCH   1   7
BRANCH   2  19
ATOM     19  C   UNL     1       7.607   6.244  18.597  0.00  0.00    +0.000 C 
BRANCH  19  20
ATOM     20  C   UNL     1       6.306   5.602  18.219  0.00  0.00    +0.000 A 
ATOM     21  C   UNL     1       6.022   4.877  17.078  0.00  0.00    +0.000 A 
ATOM     22  C   UNL     1       4.676   4.420  17.050  0.00  0.00    +0.000 A 
ATOM     23  C   UNL     1       3.962   4.796  18.172  0.00  0.00    +0.000 A 
ATOM     24  S   UNL     1       4.938   5.692  19.256  0.00  0.00    +0.000 S 
BRANCH  23  25
ATOM     25  S   UNL     1       2.261   4.526  18.635  0.00  0.00    +0.000 S 
ATOM     26  O   UNL     1       1.947   5.586  19.569  0.00  0.00    +0.000 OA
ATOM     27  O   UNL     1       1.555   4.410  17.375  0.00  0.00    +0.000 OA
BRANCH  25  28
ATOM     28  N   UNL     1       2.120   3.038  19.433  0.00  0.00    +0.000 NA
ATOM     29  C   UNL     1       2.966   2.827  20.645  0.00  0.00    +0.000 C 
ATOM     30  C   UNL     1       4.331   2.202  20.329  0.00  0.00    +0.000 C 
ATOM     31  O   UNL     1       4.216   1.031  19.511  0.00  0.00    +0.000 OA
ATOM     32  C   UNL     1       3.562   1.349  18.276  0.00  0.00    +0.000 C 
ATOM     33  C   UNL     1       2.136   1.834  18.544  0.00  0.00    +0.000 C 
ENDBRANCH  25  28
ENDBRANCH  23  25
ENDBRANCH  19  20
ENDBRANCH   2  19
TORSDOF 8
ENDMDL
MODEL 5
REMARK VINA RESULT:      -7.5      4.595     10.792
REMARK  Name = 
REMARK  9 active torsions:
REMARK  status: ('A' for Active; 'I' for Inactive)
REMARK    1  A    between atoms: C_1  and  C_2
REMARK    2  A    between atoms: C_2  and  O_3
REMARK    3  A    between atoms: C_2  and  C_11
REMARK    4  A    between atoms: O_3  and  C_4
REMARK    5  A    between atoms: N_13  and  N_14
REMARK    6  A    between atoms: C_15  and  C_17
REMARK    7  A    between atoms: C_17  and  C_18
REMARK    8  A    between atoms: C_21  and  S_22
REMARK    9  A    between atoms: S_22  and  N_25
REMARK                            x       y       z     vdW  Elec       q    Type
REMARK                         _______ _______ _______ _____ _____    ______ ____
ROOT
ATOM      1  N   UNL     1       8.466   9.118  18.165  0.00  0.00    +0.000 N 
ATOM      2  C   UNL     1       8.200   7.765  18.154  0.00  0.00    +0.000 C 
ATOM      3  O   UNL     1       8.415   7.029  19.115  0.00  0.00    +0.000 OA
ATOM      4  H   UNL     1       8.414   9.699  17.328  0.00  0.00    +0.000 HD
ENDROOT
BRANCH   1   7
ATOM      5  C   UNL     1       9.383  11.050  19.182  0.00  0.00    +0.000 C 
ATOM      6  O   UNL     1       9.168  11.675  18.138  0.00  0.00    +0.000 OA
ATOM      7  N   UNL     1       9.115   9.697  19.264  0.00  0.00    +0.000 N 
ATOM      8  H   UNL     1       9.113   9.190  20.147  0.00  0.00    +0.000 HD
BRANCH   5  10
ATOM      9  C   UNL     1      11.543  11.905  20.078  0.00  0.00    +0.000 C 
ATOM     10  C   UNL     1      10.069  11.668  20.413  0.00  0.00    +0.000 C 
BRANCH  10  11
ATOM     11  O   UNL     1       9.428  12.900  20.765  0.00  0.00    +0.000 OA
BRANCH  11  12
ATOM     12  C   UNL     1       8.447  12.892  21.722  0.00  0.00    +0.000 A 
ATOM     13  C   UNL     1       8.480  11.774  22.565  0.00  0.00    +0.000 A 
ATOM     14  C   UNL     1       7.546  11.621  23.596  0.00  0.00    +0.000 A 
ATOM     15  C   UNL     1       6.559  12.584  23.794  0.00  0.00    +0.000 A 
ATOM     16  C   UNL     1       6.511  13.697  22.960  0.00  0.00    +0.000 A 
ATOM     17  C   UNL     1       7.449  13.848  21.936  0.00  0.00    +0.000 A 
ATOM     18  F   UNL     1       7.341  14.942  21.171  0.00  0.00    +0.000 F 
ENDBRANCH  11  12
ENDBRANCH  10  11
ENDBRANCH   5  10
ENDBRANCH   1   7
BRANCH   2  19
ATOM     19  C   UNL     1       7.593   7.276  16.850  0.00  0.00    +0.000 C 
BRANCH  19  20
ATOM     20  C   UNL     1       6.260   6.637  17.105  0.00  0.00    +0.000 A 
ATOM     21  C   UNL     1       5.010   7.150  16.821  0.00  0.00    +0.000 A 
ATOM     22  C   UNL     1       3.963   6.268  17.207  0.00  0.00    +0.000 A 
ATOM     23  C   UNL     1       4.435   5.097  17.769  0.00  0.00    +0.000 A 
ATOM     24  S   UNL     1       6.145   5.075  17.813  0.00  0.00    +0.000 S 
BRANCH  23  25
ATOM     25  S   UNL     1       3.581   3.683  18.444  0.00  0.00    +0.000 S 
ATOM     26  O   UNL     1       3.136   2.923  17.297  0.00  0.00    +0.000 OA
ATOM     27  O   UNL     1       4.515   3.117  19.398  0.00  0.00    +0.000 OA
BRANCH  25  28
ATOM     28  N   UNL     1       2.223   4.204  19.315  0.00  0.00    +0.000 NA
ATOM     29  C   UNL     1       2.442   4.652  20.722  0.00  0.00    +0.000 C 
ATOM     30  C   UNL     1       2.305   3.517  21.746  0.00  0.00    +0.000 C 
ATOM     31  O   UNL     1       1.093   2.772  21.573  0.00  0.00    +0.000 OA
ATOM     32  C   UNL     1       1.039   2.208  20.256  0.00  0.00    +0.000 C 
ATOM     33  C   UNL     1       1.020   3.321  19.206  0.00  0.00    +0.000 C 
ENDBRANCH  25  28
ENDBRANCH  23  25
ENDBRANCH  19  20
ENDBRANCH   2  19
TORSDOF 8
ENDMDL
MODEL 6
REMARK VINA RESULT:      -7.4      4.271     11.219
REMARK  Name = 
REMARK  9 active torsions:
REMARK  status: ('A' for Active; 'I' for Inactive)
REMARK    1  A    between atoms: C_1  and  C_2
REMARK    2  A    between atoms: C_2  and  O_3
REMARK    3  A    between atoms: C_2  and  C_11
REMARK    4  A    between atoms: O_3  and  C_4
REMARK    5  A    between atoms: N_13  and  N_14
REMARK    6  A    between atoms: C_15  and  C_17
REMARK    7  A    between atoms: C_17  and  C_18
REMARK    8  A    between atoms: C_21  and  S_22
REMARK    9  A    between atoms: S_22  and  N_25
REMARK                            x       y       z     vdW  Elec       q    Type
REMARK                         _______ _______ _______ _____ _____    ______ ____
ROOT
ATOM      1  N   UNL     1       8.031   8.115  18.098  0.00  0.00    +0.000 N 
ATOM      2  C   UNL     1       7.809   6.779  18.354  0.00  0.00    +0.000 C 
ATOM      3  O   UNL     1       8.298   6.187  19.314  0.00  0.00    +0.000 OA
ATOM      4  H   UNL     1       7.737   8.569  17.233  0.00  0.00    +0.000 HD
ENDROOT
BRANCH   1   7
ATOM      5  C   UNL     1       8.937  10.212  18.722  0.00  0.00    +0.000 C 
ATOM      6  O   UNL     1       8.258  10.744  17.838  0.00  0.00    +0.000 OA
ATOM      7  N   UNL     1       8.936   8.840  18.884  0.00  0.00    +0.000 N 
ATOM      8  H   UNL     1       9.339   8.383  19.700  0.00  0.00    +0.000 HD
BRANCH   5  10
ATOM      9  C   UNL     1      11.170  11.311  18.798  0.00  0.00    +0.000 C 
ATOM     10  C   UNL     1       9.918  10.988  19.618  0.00  0.00    +0.000 C 
BRANCH  10  11
ATOM     11  O   UNL     1       9.304  12.190  20.094  0.00  0.00    +0.000 OA
BRANCH  11  12
ATOM     12  C   UNL     1       9.797  13.401  19.681  0.00  0.00    +0.000 A 
ATOM     13  C   UNL     1      10.751  13.953  20.546  0.00  0.00    +0.000 A 
ATOM     14  C   UNL     1      11.352  15.185  20.262  0.00  0.00    +0.000 A 
ATOM     15  C   UNL     1      11.001  15.886  19.111  0.00  0.00    +0.000 A 
ATOM     16  C   UNL     1      10.050  15.351  18.247  0.00  0.00    +0.000 A 
ATOM     17  C   UNL     1       9.458  14.119  18.531  0.00  0.00    +0.000 A 
ATOM     18  F   UNL     1       8.549  13.668  17.657  0.00  0.00    +0.000 F 
ENDBRANCH  11  12
ENDBRANCH  10  11
ENDBRANCH   5  10
ENDBRANCH   1   7
BRANCH   2  19
ATOM     19  C   UNL     1       6.886   6.112  17.348  0.00  0.00    +0.000 C 
BRANCH  19  20
ATOM     20  C   UNL     1       5.472   6.131  17.848  0.00  0.00    +0.000 A 
ATOM     21  C   UNL     1       4.443   6.957  17.438  0.00  0.00    +0.000 A 
ATOM     22  C   UNL     1       3.233   6.698  18.138  0.00  0.00    +0.000 A 
ATOM     23  C   UNL     1       3.359   5.677  19.060  0.00  0.00    +0.000 A 
ATOM     24  S   UNL     1       4.945   5.033  19.060  0.00  0.00    +0.000 S 
BRANCH  23  25
ATOM     25  S   UNL     1       2.191   4.973  20.211  0.00  0.00    +0.000 S 
ATOM     26  O   UNL     1       2.991   4.469  21.306  0.00  0.00    +0.000 OA
ATOM     27  O   UNL     1       1.214   6.022  20.424  0.00  0.00    +0.000 OA
BRANCH  25  28
ATOM     28  N   UNL     1       1.387   3.674  19.479  0.00  0.00    +0.000 NA
ATOM     29  C   UNL     1       1.831   2.297  19.848  0.00  0.00    +0.000 C 
ATOM     30  C   UNL     1       2.938   1.753  18.934  0.00  0.00    +0.000 C 
ATOM     31  O   UNL     1       2.609   1.887  17.546  0.00  0.00    +0.000 OA
ATOM     32  C   UNL     1       2.382   3.264  17.218  0.00  0.00    +0.000 C 
ATOM     33  C   UNL     1       1.183   3.801  18.002  0.00  0.00    +0.000 C 
ENDBRANCH  25  28
ENDBRANCH  23  25
ENDBRANCH  19  20
ENDBRANCH   2  19
TORSDOF 8
ENDMDL
MODEL 7
REMARK VINA RESULT:      -7.4      4.330     11.234
REMARK  Name = 
REMARK  9 active torsions:
REMARK  status: ('A' for Active; 'I' for Inactive)
REMARK    1  A    between atoms: C_1  and  C_2
REMARK    2  A    between atoms: C_2  and  O_3
REMARK    3  A    between atoms: C_2  and  C_11
REMARK    4  A    between atoms: O_3  and  C_4
REMARK    5  A    between atoms: N_13  and  N_14
REMARK    6  A    between atoms: C_15  and  C_17
REMARK    7  A    between atoms: C_17  and  C_18
REMARK    8  A    between atoms: C_21  and  S_22
REMARK    9  A    between atoms: S_22  and  N_25
REMARK                            x       y       z     vdW  Elec       q    Type
REMARK                         _______ _______ _______ _____ _____    ______ ____
ROOT
ATOM      1  N   UNL     1       8.740   8.456  18.918  0.00  0.00    +0.000 N 
ATOM      2  C   UNL     1       8.040   7.639  18.056  0.00  0.00    +0.000 C 
ATOM      3  O   UNL     1       7.766   7.957  16.900  0.00  0.00    +0.000 OA
ATOM      4  H   UNL     1       8.848   8.249  19.911  0.00  0.00    +0.000 HD
ENDROOT
BRANCH   1   7
ATOM      5  C   UNL     1       9.401  10.641  19.544  0.00  0.00    +0.000 C 
ATOM      6  O   UNL     1       9.277  10.316  20.730  0.00  0.00    +0.000 OA
ATOM      7  N   UNL     1       9.076   9.760  18.532  0.00  0.00    +0.000 N 
ATOM      8  H   UNL     1       9.327   9.925  17.558  0.00  0.00    +0.000 HD
BRANCH   5  10
ATOM      9  C   UNL     1      10.173  12.006  17.610  0.00  0.00    +0.000 C 
ATOM     10  C   UNL     1       9.797  12.059  19.092  0.00  0.00    +0.000 C 
BRANCH  10  11
ATOM     11  O   UNL     1       8.708  12.963  19.304  0.00  0.00    +0.000 OA
BRANCH  11  12
ATOM     12  C   UNL     1       8.931  14.312  19.201  0.00  0.00    +0.000 A 
ATOM     13  C   UNL     1       8.072  14.968  18.310  0.00  0.00    +0.000 A 
ATOM     14  C   UNL     1       8.171  16.347  18.096  0.00  0.00    +0.000 A 
ATOM     15  C   UNL     1       9.138  17.091  18.769  0.00  0.00    +0.000 A 
ATOM     16  C   UNL     1      10.001  16.452  19.653  0.00  0.00    +0.000 A 
ATOM     17  C   UNL     1       9.895  15.076  19.867  0.00  0.00    +0.000 A 
ATOM     18  F   UNL     1      10.761  14.528  20.729  0.00  0.00    +0.000 F 
ENDBRANCH  11  12
ENDBRANCH  10  11
ENDBRANCH   5  10
ENDBRANCH   1   7
BRANCH   2  19
ATOM     19  C   UNL     1       7.659   6.299  18.663  0.00  0.00    +0.000 C 
BRANCH  19  20
ATOM     20  C   UNL     1       6.277   5.907  18.231  0.00  0.00    +0.000 A 
ATOM     21  C   UNL     1       5.403   6.628  17.442  0.00  0.00    +0.000 A 
ATOM     22  C   UNL     1       4.171   5.948  17.240  0.00  0.00    +0.000 A 
ATOM     23  C   UNL     1       4.131   4.721  17.872  0.00  0.00    +0.000 A 
ATOM     24  S   UNL     1       5.597   4.398  18.695  0.00  0.00    +0.000 S 
BRANCH  23  25
ATOM     25  S   UNL     1       2.846   3.487  17.978  0.00  0.00    +0.000 S 
ATOM     26  O   UNL     1       2.258   3.434  16.658  0.00  0.00    +0.000 OA
ATOM     27  O   UNL     1       3.502   2.327  18.549  0.00  0.00    +0.000 OA
BRANCH  25  28
ATOM     28  N   UNL     1       1.664   3.993  19.082  0.00  0.00    +0.000 NA
ATOM     29  C   UNL     1       2.065   5.016  20.093  0.00  0.00    +0.000 C 
ATOM     30  C   UNL     1       2.604   4.403  21.393  0.00  0.00    +0.000 C 
ATOM     31  O   UNL     1       1.731   3.398  21.922  0.00  0.00    +0.000 OA
ATOM     32  C   UNL     1       1.543   2.347  20.965  0.00  0.00    +0.000 C 
ATOM     33  C   UNL     1       0.864   2.894  19.708  0.00  0.00    +0.000 C 
ENDBRANCH  25  28
ENDBRANCH  23  25
ENDBRANCH  19  20
ENDBRANCH   2  19
TORSDOF 8
ENDMDL
MODEL 8
REMARK VINA RESULT:      -7.4      7.864     10.156
REMARK  Name = 
REMARK  9 active torsions:
REMARK  status: ('A' for Active; 'I' for Inactive)
REMARK    1  A    between atoms: C_1  and  C_2
REMARK    2  A    between atoms: C_2  and  O_3
REMARK    3  A    between atoms: C_2  and  C_11
REMARK    4  A    between atoms: O_3  and  C_4
REMARK    5  A    between atoms: N_13  and  N_14
REMARK    6  A    between atoms: C_15  and  C_17
REMARK    7  A    between atoms: C_17  and  C_18
REMARK    8  A    between atoms: C_21  and  S_22
REMARK    9  A    between atoms: S_22  and  N_25
REMARK                            x       y       z     vdW  Elec       q    Type
REMARK                         _______ _______ _______ _____ _____    ______ ____
ROOT
ATOM      1  N   UNL     1       1.923   7.199  21.074  0.00  0.00    +0.000 N 
ATOM      2  C   UNL     1       1.333   8.437  20.929  0.00  0.00    +0.000 C 
ATOM      3  O   UNL     1       1.141   8.967  19.837  0.00  0.00    +0.000 OA
ATOM      4  H   UNL     1       2.203   6.822  21.980  0.00  0.00    +0.000 HD
ENDROOT
BRANCH   1   7
ATOM      5  C   UNL     1       2.082   5.207  19.804  0.00  0.00    +0.000 C 
ATOM      6  O   UNL     1       1.440   4.622  20.682  0.00  0.00    +0.000 OA
ATOM      7  N   UNL     1       2.441   6.532  19.955  0.00  0.00    +0.000 N 
ATOM      8  H   UNL     1       2.812   7.092  19.189  0.00  0.00    +0.000 HD
BRANCH   5  10
ATOM      9  C   UNL     1       1.461   3.961  17.740  0.00  0.00    +0.000 C 
ATOM     10  C   UNL     1       2.638   4.506  18.552  0.00  0.00    +0.000 C 
BRANCH  10  11
ATOM     11  O   UNL     1       3.404   5.429  17.771  0.00  0.00    +0.000 OA
BRANCH  11  12
ATOM     12  C   UNL     1       4.725   5.159  17.523  0.00  0.00    +0.000 A 
ATOM     13  C   UNL     1       4.994   4.789  16.199  0.00  0.00    +0.000 A 
ATOM     14  C   UNL     1       6.296   4.483  15.786  0.00  0.00    +0.000 A 
ATOM     15  C   UNL     1       7.348   4.538  16.696  0.00  0.00    +0.000 A 
ATOM     16  C   UNL     1       7.095   4.899  18.016  0.00  0.00    +0.000 A 
ATOM     17  C   UNL     1       5.795   5.208  18.421  0.00  0.00    +0.000 A 
ATOM     18  F   UNL     1       5.625   5.543  19.707  0.00  0.00    +0.000 F 
ENDBRANCH  11  12
ENDBRANCH  10  11
ENDBRANCH   5  10
ENDBRANCH   1   7
BRANCH   2  19
ATOM     19  C   UNL     1       0.923   9.072  22.247  0.00  0.00    +0.000 C 
BRANCH  19  20
ATOM     20  C   UNL     1       0.295  10.413  22.004  0.00  0.00    +0.000 A 
ATOM     21  C   UNL     1       0.704  11.387  21.114  0.00  0.00    +0.000 A 
ATOM     22  C   UNL     1      -0.129  12.539  21.155  0.00  0.00    +0.000 A 
ATOM     23  C   UNL     1      -1.159  12.418  22.068  0.00  0.00    +0.000 A 
ATOM     24  S   UNL     1      -1.113  10.901  22.859  0.00  0.00    +0.000 S 
BRANCH  23  25
ATOM     25  S   UNL     1      -2.454  13.550  22.544  0.00  0.00    +0.000 S 
ATOM     26  O   UNL     1      -2.090  14.011  23.866  0.00  0.00    +0.000 OA
ATOM     27  O   UNL     1      -2.554  14.475  21.433  0.00  0.00    +0.000 OA
BRANCH  25  28
ATOM     28  N   UNL     1      -3.926  12.716  22.642  0.00  0.00    +0.000 NA
ATOM     29  C   UNL     1      -4.788  12.702  21.423  0.00  0.00    +0.000 C 
ATOM     30  C   UNL     1      -5.783  13.870  21.373  0.00  0.00    +0.000 C 
ATOM     31  O   UNL     1      -6.529  14.001  22.590  0.00  0.00    +0.000 OA
ATOM     32  C   UNL     1      -5.641  14.204  23.697  0.00  0.00    +0.000 C 
ATOM     33  C   UNL     1      -4.731  12.987  23.874  0.00  0.00    +0.000 C 
ENDBRANCH  25  28
ENDBRANCH  23  25
ENDBRANCH  19  20
ENDBRANCH   2  19
TORSDOF 8
ENDMDL
MODEL 9
REMARK VINA RESULT:      -7.4      8.322     12.232
REMARK  Name = 
REMARK  9 active torsions:
REMARK  status: ('A' for Active; 'I' for Inactive)
REMARK    1  A    between atoms: C_1  and  C_2
REMARK    2  A    between atoms: C_2  and  O_3
REMARK    3  A    between atoms: C_2  and  C_11
REMARK    4  A    between atoms: O_3  and  C_4
REMARK    5  A    between atoms: N_13  and  N_14
REMARK    6  A    between atoms: C_15  and  C_17
REMARK    7  A    between atoms: C_17  and  C_18
REMARK    8  A    between atoms: C_21  and  S_22
REMARK    9  A    between atoms: S_22  and  N_25
REMARK                            x       y       z     vdW  Elec       q    Type
REMARK                         _______ _______ _______ _____ _____    ______ ____
ROOT
ATOM      1  N   UNL     1      -1.411  10.211  19.540  0.00  0.00    +0.000 N 
ATOM      2  C   UNL     1      -0.249  10.878  19.865  0.00  0.00    +0.000 C 
ATOM      3  O   UNL     1      -0.037  12.049  19.557  0.00  0.00    +0.000 OA
ATOM      4  H   UNL     1      -1.529   9.207  19.678  0.00  0.00    +0.000 HD
ENDROOT
BRANCH   1   7
ATOM      5  C   UNL     1      -2.440  10.399  17.417  0.00  0.00    +0.000 C 
ATOM      6  O   UNL     1      -1.609   9.604  16.967  0.00  0.00    +0.000 OA
ATOM      7  N   UNL     1      -2.372  10.827  18.728  0.00  0.00    +0.000 N 
ATOM      8  H   UNL     1      -3.129  11.338  19.180  0.00  0.00    +0.000 HD
BRANCH   5  10
ATOM      9  C   UNL     1      -3.191  10.822  15.081  0.00  0.00    +0.000 C 
ATOM     10  C   UNL     1      -3.524  11.070  16.554  0.00  0.00    +0.000 C 
BRANCH  10  11
ATOM     11  O   UNL     1      -4.811  10.532  16.876  0.00  0.00    +0.000 OA
BRANCH  11  12
ATOM     12  C   UNL     1      -5.711  11.315  17.553  0.00  0.00    +0.000 A 
ATOM     13  C   UNL     1      -5.832  12.615  17.046  0.00  0.00    +0.000 A 
ATOM     14  C   UNL     1      -6.712  13.536  17.626  0.00  0.00    +0.000 A 
ATOM     15  C   UNL     1      -7.481  13.168  18.728  0.00  0.00    +0.000 A 
ATOM     16  C   UNL     1      -7.367  11.882  19.245  0.00  0.00    +0.000 A 
ATOM     17  C   UNL     1      -6.491  10.965  18.659  0.00  0.00    +0.000 A 
ATOM     18  F   UNL     1      -6.430   9.747  19.211  0.00  0.00    +0.000 F 
ENDBRANCH  11  12
ENDBRANCH  10  11
ENDBRANCH   5  10
ENDBRANCH   1   7
BRANCH   2  19
ATOM     19  C   UNL     1       0.735  10.036  20.659  0.00  0.00    +0.000 C 
BRANCH  19  20
ATOM     20  C   UNL     1       1.412   9.043  19.761  0.00  0.00    +0.000 A 
ATOM     21  C   UNL     1       1.665   9.164  18.409  0.00  0.00    +0.000 A 
ATOM     22  C   UNL     1       2.323   8.020  17.879  0.00  0.00    +0.000 A 
ATOM     23  C   UNL     1       2.567   7.055  18.836  0.00  0.00    +0.000 A 
ATOM     24  S   UNL     1       2.005   7.551  20.375  0.00  0.00    +0.000 S 
BRANCH  23  25
ATOM     25  S   UNL     1       3.320   5.442  18.723  0.00  0.00    +0.000 S 
ATOM     26  O   UNL     1       3.004   4.966  17.394  0.00  0.00    +0.000 OA
ATOM     27  O   UNL     1       4.695   5.653  19.132  0.00  0.00    +0.000 OA
BRANCH  25  28
ATOM     28  N   UNL     1       2.609   4.404  19.858  0.00  0.00    +0.000 NA
ATOM     29  C   UNL     1       3.384   3.192  20.258  0.00  0.00    +0.000 C 
ATOM     30  C   UNL     1       3.086   1.968  19.381  0.00  0.00    +0.000 C 
ATOM     31  O   UNL     1       1.681   1.721  19.250  0.00  0.00    +0.000 OA
ATOM     32  C   UNL     1       1.026   2.862  18.680  0.00  0.00    +0.000 C 
ATOM     33  C   UNL     1       1.172   4.071  19.605  0.00  0.00    +0.000 C 
ENDBRANCH  25  28
ENDBRANCH  23  25
ENDBRANCH  19  20
ENDBRANCH   2  19
TORSDOF 8
ENDMDL
