MODEL 1
REMARK VINA RESULT:      -7.8      0.000      0.000
REMARK  Name = 
REMARK  3 active torsions:
REMARK  status: ('A' for Active; 'I' for Inactive)
REMARK    1  A    between atoms: O_1  and  C_2
REMARK    2  A    between atoms: C_5  and  N_6
REMARK    3  A    between atoms: C_8  and  C_9
REMARK                            x       y       z     vdW  Elec       q    Type
REMARK                         _______ _______ _______ _____ _____    ______ ____
ROOT
ATOM      1  N   UNL     1       2.914   7.400  18.026  0.00  0.00    +0.000 N 
ATOM      2  C   UNL     1       2.306   7.516  19.250  0.00  0.00    +0.000 A 
ATOM      3  C   UNL     1       1.670   8.734  19.218  0.00  0.00    +0.000 A 
ATOM      4  N   UNL     1       1.894   9.326  18.006  0.00  0.00    +0.000 NA
ATOM      5  N   UNL     1       2.660   8.512  17.289  0.00  0.00    +0.000 NA
ENDROOT
BRANCH   3   6
ATOM      6  C   UNL     1       0.894   9.308  20.300  0.00  0.00    +0.000 A 
ATOM      7  C   UNL     1       0.971   8.784  21.582  0.00  0.00    +0.000 A 
ATOM      8  C   UNL     1       0.195   9.361  22.581  0.00  0.00    +0.000 A 
ATOM      9  C   UNL     1      -0.639  10.443  22.275  0.00  0.00    +0.000 A 
ATOM     10  C   UNL     1      -1.448  11.052  23.250  0.00  0.00    +0.000 A 
ATOM     11  C   UNL     1      -2.275  12.121  22.911  0.00  0.00    +0.000 A 
ATOM     12  C   UNL     1      -2.294  12.586  21.601  0.00  0.00    +0.000 A 
ATOM     13  C   UNL     1      -1.485  11.981  20.635  0.00  0.00    +0.000 A 
ATOM     14  C   UNL     1      -0.653  10.913  20.945  0.00  0.00    +0.000 A 
ATOM     15  N   UNL     1       0.100  10.362  19.979  0.00  0.00    +0.000 NA
ENDBRANCH   3   6
BRANCH   1  19
ATOM     16  C   UNL     1       5.208   4.220  16.499  0.00  0.00    +0.000 A 
ATOM     17  C   UNL     1       4.134   3.945  17.338  0.00  0.00    +0.000 A 
ATOM     18  C   UNL     1       3.376   4.998  17.858  0.00  0.00    +0.000 A 
ATOM     19  C   UNL     1       3.692   6.324  17.527  0.00  0.00    +0.000 A 
ATOM     20  C   UNL     1       4.785   6.587  16.686  0.00  0.00    +0.000 A 
ATOM     21  C   UNL     1       5.542   5.530  16.176  0.00  0.00    +0.000 A 
BRANCH  16  22
ATOM     22  O   UNL     1       5.962   3.220  15.963  0.00  0.00    +0.000 OA
ATOM     23  H   UNL     1       5.370   2.576  15.540  0.00  0.00    +0.000 HD
ENDBRANCH  16  22
ENDBRANCH   1  19
TORSDOF 3
ENDMDL
MODEL 2
REMARK VINA RESULT:      -7.7      0.214      1.052
REMARK  Name = 
REMARK  3 active torsions:
REMARK  status: ('A' for Active; 'I' for Inactive)
REMARK    1  A    between atoms: O_1  and  C_2
REMARK    2  A    between atoms: C_5  and  N_6
REMARK    3  A    between atoms: C_8  and  C_9
REMARK                            x       y       z     vdW  Elec       q    Type
REMARK                         _______ _______ _______ _____ _____    ______ ____
ROOT
ATOM      1  N   UNL     1       2.784   7.543  18.077  0.00  0.00    +0.000 N 
ATOM      2  C   UNL     1       2.180   7.662  19.302  0.00  0.00    +0.000 A 
ATOM      3  C   UNL     1       1.543   8.880  19.269  0.00  0.00    +0.000 A 
ATOM      4  N   UNL     1       1.763   9.468  18.054  0.00  0.00    +0.000 NA
ATOM      5  N   UNL     1       2.527   8.652  17.337  0.00  0.00    +0.000 NA
ENDROOT
BRANCH   3   6
ATOM      6  C   UNL     1       0.771   9.457  20.352  0.00  0.00    +0.000 A 
ATOM      7  C   UNL     1       0.842   8.927  21.632  0.00  0.00    +0.000 A 
ATOM      8  C   UNL     1       0.070   9.509  22.633  0.00  0.00    +0.000 A 
ATOM      9  C   UNL     1      -0.754  10.598  22.329  0.00  0.00    +0.000 A 
ATOM     10  C   UNL     1      -1.559  11.211  23.305  0.00  0.00    +0.000 A 
ATOM     11  C   UNL     1      -2.377  12.288  22.969  0.00  0.00    +0.000 A 
ATOM     12  C   UNL     1      -2.391  12.758  21.660  0.00  0.00    +0.000 A 
ATOM     13  C   UNL     1      -1.585  12.149  20.693  0.00  0.00    +0.000 A 
ATOM     14  C   UNL     1      -0.763  11.073  21.001  0.00  0.00    +0.000 A 
ATOM     15  N   UNL     1      -0.014  10.519  20.033  0.00  0.00    +0.000 NA
ENDBRANCH   3   6
BRANCH   1  19
ATOM     16  C   UNL     1       5.098   4.332  16.646  0.00  0.00    +0.000 A 
ATOM     17  C   UNL     1       5.503   5.636  16.381  0.00  0.00    +0.000 A 
ATOM     18  C   UNL     1       4.731   6.707  16.843  0.00  0.00    +0.000 A 
ATOM     19  C   UNL     1       3.561   6.466  17.578  0.00  0.00    +0.000 A 
ATOM     20  C   UNL     1       3.160   5.144  17.830  0.00  0.00    +0.000 A 
ATOM     21  C   UNL     1       3.932   4.080  17.359  0.00  0.00    +0.000 A 
BRANCH  16  22
ATOM     22  O   UNL     1       5.830   3.264  16.222  0.00  0.00    +0.000 OA
ATOM     23  H   UNL     1       5.604   3.081  15.295  0.00  0.00    +0.000 HD
ENDBRANCH  16  22
ENDBRANCH   1  19
TORSDOF 3
ENDMDL
MODEL 3
REMARK VINA RESULT:      -7.6      1.281      2.280
REMARK  Name = 
REMARK  3 active torsions:
REMARK  status: ('A' for Active; 'I' for Inactive)
REMARK    1  A    between atoms: O_1  and  C_2
REMARK    2  A    between atoms: C_5  and  N_6
REMARK    3  A    between atoms: C_8  and  C_9
REMARK                            x       y       z     vdW  Elec       q    Type
REMARK                         _______ _______ _______ _____ _____    ______ ____
ROOT
ATOM      1  N   UNL     1       3.322   6.295  18.234  0.00  0.00    +0.000 N 
ATOM      2  C   UNL     1       2.725   7.528  18.155  0.00  0.00    +0.000 A 
ATOM      3  C   UNL     1       2.090   7.694  19.363  0.00  0.00    +0.000 A 
ATOM      4  N   UNL     1       2.306   6.590  20.139  0.00  0.00    +0.000 NA
ATOM      5  N   UNL     1       3.049   5.738  19.442  0.00  0.00    +0.000 NA
ENDROOT
BRANCH   3   6
ATOM      6  C   UNL     1       1.306   8.851  19.750  0.00  0.00    +0.000 A 
ATOM      7  C   UNL     1       1.140   9.917  18.878  0.00  0.00    +0.000 A 
ATOM      8  C   UNL     1       0.390  11.009  19.304  0.00  0.00    +0.000 A 
ATOM      9  C   UNL     1      -0.169  11.010  20.587  0.00  0.00    +0.000 A 
ATOM     10  C   UNL     1      -0.925  12.096  21.063  0.00  0.00    +0.000 A 
ATOM     11  C   UNL     1      -1.459  12.071  22.349  0.00  0.00    +0.000 A 
ATOM     12  C   UNL     1      -1.244  10.963  23.162  0.00  0.00    +0.000 A 
ATOM     13  C   UNL     1      -0.496   9.883  22.683  0.00  0.00    +0.000 A 
ATOM     14  C   UNL     1       0.050   9.884  21.406  0.00  0.00    +0.000 A 
ATOM     15  N   UNL     1       0.767   8.824  20.997  0.00  0.00    +0.000 NA
ENDBRANCH   3   6
BRANCH   1  19
ATOM     16  C   UNL     1       5.718   4.328  15.389  0.00  0.00    +0.000 A 
ATOM     17  C   UNL     1       5.667   5.718  15.394  0.00  0.00    +0.000 A 
ATOM     18  C   UNL     1       4.863   6.376  16.329  0.00  0.00    +0.000 A 
ATOM     19  C   UNL     1       4.120   5.638  17.263  0.00  0.00    +0.000 A 
ATOM     20  C   UNL     1       4.174   4.236  17.239  0.00  0.00    +0.000 A 
ATOM     21  C   UNL     1       4.974   3.585  16.297  0.00  0.00    +0.000 A 
BRANCH  16  22
ATOM     22  O   UNL     1       6.499   3.652  14.501  0.00  0.00    +0.000 OA
ATOM     23  H   UNL     1       7.313   3.371  14.953  0.00  0.00    +0.000 HD
ENDBRANCH  16  22
ENDBRANCH   1  19
TORSDOF 3
ENDMDL
MODEL 4
REMARK VINA RESULT:      -7.5      1.897      2.081
REMARK  Name = 
REMARK  3 active torsions:
REMARK  status: ('A' for Active; 'I' for Inactive)
REMARK    1  A    between atoms: O_1  and  C_2
REMARK    2  A    between atoms: C_5  and  N_6
REMARK    3  A    between atoms: C_8  and  C_9
REMARK                            x       y       z     vdW  Elec       q    Type
REMARK                         _______ _______ _______ _____ _____    ______ ____
ROOT
ATOM      1  N   UNL     1       2.469   5.927  19.167  0.00  0.00    +0.000 N 
ATOM      2  C   UNL     1       1.722   6.445  20.195  0.00  0.00    +0.000 A 
ATOM      3  C   UNL     1       1.641   7.792  19.931  0.00  0.00    +0.000 A 
ATOM      4  N   UNL     1       2.319   8.065  18.777  0.00  0.00    +0.000 NA
ATOM      5  N   UNL     1       2.828   6.926  18.322  0.00  0.00    +0.000 NA
ENDROOT
BRANCH   3   6
ATOM      6  C   UNL     1       0.954   8.770  20.753  0.00  0.00    +0.000 A 
ATOM      7  C   UNL     1       1.045   8.722  22.135  0.00  0.00    +0.000 A 
ATOM      8  C   UNL     1       0.355   9.675  22.878  0.00  0.00    +0.000 A 
ATOM      9  C   UNL     1      -0.409  10.647  22.221  0.00  0.00    +0.000 A 
ATOM     10  C   UNL     1      -1.130  11.623  22.930  0.00  0.00    +0.000 A 
ATOM     11  C   UNL     1      -1.890  12.571  22.247  0.00  0.00    +0.000 A 
ATOM     12  C   UNL     1      -1.930  12.548  20.857  0.00  0.00    +0.000 A 
ATOM     13  C   UNL     1      -1.207  11.579  20.156  0.00  0.00    +0.000 A 
ATOM     14  C   UNL     1      -0.444  10.622  20.812  0.00  0.00    +0.000 A 
ATOM     15  N   UNL     1       0.226   9.707  20.091  0.00  0.00    +0.000 NA
ENDBRANCH   3   6
BRANCH   1  19
ATOM     16  C   UNL     1       3.620   1.937  18.486  0.00  0.00    +0.000 A 
ATOM     17  C   UNL     1       2.580   2.483  17.741  0.00  0.00    +0.000 A 
ATOM     18  C   UNL     1       2.186   3.804  17.971  0.00  0.00    +0.000 A 
ATOM     19  C   UNL     1       2.841   4.576  18.943  0.00  0.00    +0.000 A 
ATOM     20  C   UNL     1       3.882   4.008  19.693  0.00  0.00    +0.000 A 
ATOM     21  C   UNL     1       4.266   2.685  19.461  0.00  0.00    +0.000 A 
BRANCH  16  22
ATOM     22  O   UNL     1       4.040   0.657  18.281  0.00  0.00    +0.000 OA
ATOM     23  H   UNL     1       4.744   0.455  18.920  0.00  0.00    +0.000 HD
ENDBRANCH  16  22
ENDBRANCH   1  19
TORSDOF 3
ENDMDL
MODEL 5
REMARK VINA RESULT:      -7.5      1.767      2.114
REMARK  Name = 
REMARK  3 active torsions:
REMARK  status: ('A' for Active; 'I' for Inactive)
REMARK    1  A    between atoms: O_1  and  C_2
REMARK    2  A    between atoms: C_5  and  N_6
REMARK    3  A    between atoms: C_8  and  C_9
REMARK                            x       y       z     vdW  Elec       q    Type
REMARK                         _______ _______ _______ _____ _____    ______ ____
ROOT
ATOM      1  N   UNL     1       2.354   6.772  19.882  0.00  0.00    +0.000 N 
ATOM      2  C   UNL     1       1.591   7.298  20.893  0.00  0.00    +0.000 A 
ATOM      3  C   UNL     1       1.180   8.525  20.427  0.00  0.00    +0.000 A 
ATOM      4  N   UNL     1       1.685   8.720  19.172  0.00  0.00    +0.000 NA
ATOM      5  N   UNL     1       2.406   7.652  18.850  0.00  0.00    +0.000 NA
ENDROOT
BRANCH   3   6
ATOM      6  C   UNL     1       0.353   9.467  21.155  0.00  0.00    +0.000 A 
ATOM      7  C   UNL     1       0.127   9.310  22.514  0.00  0.00    +0.000 A 
ATOM      8  C   UNL     1      -0.686  10.234  23.162  0.00  0.00    +0.000 A 
ATOM      9  C   UNL     1      -1.255  11.287  22.437  0.00  0.00    +0.000 A 
ATOM     10  C   UNL     1      -2.091  12.238  23.047  0.00  0.00    +0.000 A 
ATOM     11  C   UNL     1      -2.650  13.269  22.295  0.00  0.00    +0.000 A 
ATOM     12  C   UNL     1      -2.375  13.355  20.935  0.00  0.00    +0.000 A 
ATOM     13  C   UNL     1      -1.539  12.410  20.333  0.00  0.00    +0.000 A 
ATOM     14  C   UNL     1      -0.971  11.371  21.058  0.00  0.00    +0.000 A 
ATOM     15  N   UNL     1      -0.181  10.485  20.430  0.00  0.00    +0.000 NA
ENDBRANCH   3   6
BRANCH   1  19
ATOM     16  C   UNL     1       4.294   3.042  19.694  0.00  0.00    +0.000 A 
ATOM     17  C   UNL     1       3.067   3.141  20.342  0.00  0.00    +0.000 A 
ATOM     18  C   UNL     1       2.424   4.380  20.418  0.00  0.00    +0.000 A 
ATOM     19  C   UNL     1       3.009   5.514  19.836  0.00  0.00    +0.000 A 
ATOM     20  C   UNL     1       4.252   5.401  19.193  0.00  0.00    +0.000 A 
ATOM     21  C   UNL     1       4.892   4.161  19.128  0.00  0.00    +0.000 A 
BRANCH  16  22
ATOM     22  O   UNL     1       4.945   1.850  19.590  0.00  0.00    +0.000 OA
ATOM     23  H   UNL     1       5.856   1.964  19.908  0.00  0.00    +0.000 HD
ENDBRANCH  16  22
ENDBRANCH   1  19
TORSDOF 3
ENDMDL
MODEL 6
REMARK VINA RESULT:      -7.5      1.782      2.541
REMARK  Name = 
REMARK  3 active torsions:
REMARK  status: ('A' for Active; 'I' for Inactive)
REMARK    1  A    between atoms: O_1  and  C_2
REMARK    2  A    between atoms: C_5  and  N_6
REMARK    3  A    between atoms: C_8  and  C_9
REMARK                            x       y       z     vdW  Elec       q    Type
REMARK                         _______ _______ _______ _____ _____    ______ ____
ROOT
ATOM      1  N   UNL     1       2.906   6.025  18.479  0.00  0.00    +0.000 N 
ATOM      2  C   UNL     1       2.015   6.693  19.280  0.00  0.00    +0.000 A 
ATOM      3  C   UNL     1       2.095   8.007  18.883  0.00  0.00    +0.000 A 
ATOM      4  N   UNL     1       3.008   8.115  17.871  0.00  0.00    +0.000 NA
ATOM      5  N   UNL     1       3.504   6.906  17.637  0.00  0.00    +0.000 NA
ENDROOT
BRANCH   3   6
ATOM      6  C   UNL     1       1.341   9.106  19.453  0.00  0.00    +0.000 A 
ATOM      7  C   UNL     1       1.181  10.294  18.754  0.00  0.00    +0.000 A 
ATOM      8  C   UNL     1       0.461  11.322  19.353  0.00  0.00    +0.000 A 
ATOM      9  C   UNL     1      -0.077  11.140  20.632  0.00  0.00    +0.000 A 
ATOM     10  C   UNL     1      -0.804  12.155  21.279  0.00  0.00    +0.000 A 
ATOM     11  C   UNL     1      -1.318  11.946  22.558  0.00  0.00    +0.000 A 
ATOM     12  C   UNL     1      -1.111  10.726  23.191  0.00  0.00    +0.000 A 
ATOM     13  C   UNL     1      -0.393   9.717  22.541  0.00  0.00    +0.000 A 
ATOM     14  C   UNL     1       0.133   9.900  21.269  0.00  0.00    +0.000 A 
ATOM     15  N   UNL     1       0.822   8.902  20.692  0.00  0.00    +0.000 NA
ENDBRANCH   3   6
BRANCH   1  19
ATOM     16  C   UNL     1       3.749   1.903  18.440  0.00  0.00    +0.000 A 
ATOM     17  C   UNL     1       4.453   2.735  19.303  0.00  0.00    +0.000 A 
ATOM     18  C   UNL     1       4.186   4.107  19.312  0.00  0.00    +0.000 A 
ATOM     19  C   UNL     1       3.206   4.639  18.460  0.00  0.00    +0.000 A 
ATOM     20  C   UNL     1       2.510   3.788  17.587  0.00  0.00    +0.000 A 
ATOM     21  C   UNL     1       2.788   2.419  17.579  0.00  0.00    +0.000 A 
BRANCH  16  22
ATOM     22  O   UNL     1       3.973   0.559  18.412  0.00  0.00    +0.000 OA
ATOM     23  H   UNL     1       4.581   0.360  17.680  0.00  0.00    +0.000 HD
ENDBRANCH  16  22
ENDBRANCH   1  19
TORSDOF 3
ENDMDL
MODEL 7
REMARK VINA RESULT:      -7.5      1.813      2.517
REMARK  Name = 
REMARK  3 active torsions:
REMARK  status: ('A' for Active; 'I' for Inactive)
REMARK    1  A    between atoms: O_1  and  C_2
REMARK    2  A    between atoms: C_5  and  N_6
REMARK    3  A    between atoms: C_8  and  C_9
REMARK                            x       y       z     vdW  Elec       q    Type
REMARK                         _______ _______ _______ _____ _____    ______ ____
ROOT
ATOM      1  N   UNL     1       2.847   6.023  18.525  0.00  0.00    +0.000 N 
ATOM      2  C   UNL     1       1.974   6.712  19.327  0.00  0.00    +0.000 A 
ATOM      3  C   UNL     1       2.078   8.022  18.923  0.00  0.00    +0.000 A 
ATOM      4  N   UNL     1       2.988   8.107  17.907  0.00  0.00    +0.000 NA
ATOM      5  N   UNL     1       3.459   6.888  17.676  0.00  0.00    +0.000 NA
ENDROOT
BRANCH   3   6
ATOM      6  C   UNL     1       1.348   9.139  19.492  0.00  0.00    +0.000 A 
ATOM      7  C   UNL     1       1.246  10.341  18.807  0.00  0.00    +0.000 A 
ATOM      8  C   UNL     1       0.547  11.385  19.403  0.00  0.00    +0.000 A 
ATOM      9  C   UNL     1      -0.027  11.204  20.667  0.00  0.00    +0.000 A 
ATOM     10  C   UNL     1      -0.734  12.234  21.312  0.00  0.00    +0.000 A 
ATOM     11  C   UNL     1      -1.286  12.026  22.574  0.00  0.00    +0.000 A 
ATOM     12  C   UNL     1      -1.137  10.790  23.194  0.00  0.00    +0.000 A 
ATOM     13  C   UNL     1      -0.438   9.766  22.547  0.00  0.00    +0.000 A 
ATOM     14  C   UNL     1       0.124   9.948  21.290  0.00  0.00    +0.000 A 
ATOM     15  N   UNL     1       0.793   8.935  20.715  0.00  0.00    +0.000 NA
ENDBRANCH   3   6
BRANCH   1  19
ATOM     16  C   UNL     1       3.703   1.903  18.468  0.00  0.00    +0.000 A 
ATOM     17  C   UNL     1       2.714   2.406  17.629  0.00  0.00    +0.000 A 
ATOM     18  C   UNL     1       2.417   3.772  17.653  0.00  0.00    +0.000 A 
ATOM     19  C   UNL     1       3.120   4.631  18.511  0.00  0.00    +0.000 A 
ATOM     20  C   UNL     1       4.108   4.107  19.359  0.00  0.00    +0.000 A 
ATOM     21  C   UNL     1       4.394   2.740  19.335  0.00  0.00    +0.000 A 
BRANCH  16  22
ATOM     22  O   UNL     1       4.028   0.580  18.465  0.00  0.00    +0.000 OA
ATOM     23  H   UNL     1       4.250   0.316  17.556  0.00  0.00    +0.000 HD
ENDBRANCH  16  22
ENDBRANCH   1  19
TORSDOF 3
ENDMDL
MODEL 8
REMARK VINA RESULT:      -7.5      3.140      8.540
REMARK  Name = 
REMARK  3 active torsions:
REMARK  status: ('A' for Active; 'I' for Inactive)
REMARK    1  A    between atoms: O_1  and  C_2
REMARK    2  A    between atoms: C_5  and  N_6
REMARK    3  A    between atoms: C_8  and  C_9
REMARK                            x       y       z     vdW  Elec       q    Type
REMARK                         _______ _______ _______ _____ _____    ______ ____
ROOT
ATOM      1  N   UNL     1       1.056   9.545  19.605  0.00  0.00    +0.000 N 
ATOM      2  C   UNL     1       1.551   8.267  19.592  0.00  0.00    +0.000 A 
ATOM      3  C   UNL     1       2.225   8.159  18.398  0.00  0.00    +0.000 A 
ATOM      4  N   UNL     1       2.133   9.343  17.722  0.00  0.00    +0.000 NA
ATOM      5  N   UNL     1       1.412  10.180  18.459  0.00  0.00    +0.000 NA
ENDROOT
BRANCH   3   6
ATOM      6  C   UNL     1       2.915   6.974  17.925  0.00  0.00    +0.000 A 
ATOM      7  C   UNL     1       2.395   5.710  18.162  0.00  0.00    +0.000 A 
ATOM      8  C   UNL     1       3.103   4.606  17.699  0.00  0.00    +0.000 A 
ATOM      9  C   UNL     1       4.312   4.792  17.017  0.00  0.00    +0.000 A 
ATOM     10  C   UNL     1       5.066   3.706  16.540  0.00  0.00    +0.000 A 
ATOM     11  C   UNL     1       6.270   3.924  15.874  0.00  0.00    +0.000 A 
ATOM     12  C   UNL     1       6.722   5.224  15.679  0.00  0.00    +0.000 A 
ATOM     13  C   UNL     1       5.966   6.302  16.150  0.00  0.00    +0.000 A 
ATOM     14  C   UNL     1       4.764   6.112  16.819  0.00  0.00    +0.000 A 
ATOM     15  N   UNL     1       4.080   7.182  17.259  0.00  0.00    +0.000 NA
ENDBRANCH   3   6
BRANCH   1  19
ATOM     16  C   UNL     1      -1.235  11.401  22.608  0.00  0.00    +0.000 A 
ATOM     17  C   UNL     1      -1.146  11.994  21.354  0.00  0.00    +0.000 A 
ATOM     18  C   UNL     1      -0.376  11.389  20.356  0.00  0.00    +0.000 A 
ATOM     19  C   UNL     1       0.294  10.184  20.617  0.00  0.00    +0.000 A 
ATOM     20  C   UNL     1       0.202   9.602  21.891  0.00  0.00    +0.000 A 
ATOM     21  C   UNL     1      -0.564  10.216  22.885  0.00  0.00    +0.000 A 
BRANCH  16  22
ATOM     22  O   UNL     1      -1.985  11.955  23.602  0.00  0.00    +0.000 OA
ATOM     23  H   UNL     1      -1.464  11.955  24.422  0.00  0.00    +0.000 HD
ENDBRANCH  16  22
ENDBRANCH   1  19
TORSDOF 3
ENDMDL
MODEL 9
REMARK VINA RESULT:      -7.5      1.245      2.006
REMARK  Name = 
REMARK  3 active torsions:
REMARK  status: ('A' for Active; 'I' for Inactive)
REMARK    1  A    between atoms: O_1  and  C_2
REMARK    2  A    between atoms: C_5  and  N_6
REMARK    3  A    between atoms: C_8  and  C_9
REMARK                            x       y       z     vdW  Elec       q    Type
REMARK                         _______ _______ _______ _____ _____    ______ ____
ROOT
ATOM      1  N   UNL     1       3.231   6.375  18.351  0.00  0.00    +0.000 N 
ATOM      2  C   UNL     1       2.585   7.576  18.200  0.00  0.00    +0.000 A 
ATOM      3  C   UNL     1       1.947   7.790  19.399  0.00  0.00    +0.000 A 
ATOM      4  N   UNL     1       2.208   6.744  20.239  0.00  0.00    +0.000 NA
ATOM      5  N   UNL     1       2.983   5.883  19.591  0.00  0.00    +0.000 NA
ENDROOT
BRANCH   3   6
ATOM      6  C   UNL     1       1.118   8.936  19.718  0.00  0.00    +0.000 A 
ATOM      7  C   UNL     1       0.814   9.882  18.751  0.00  0.00    +0.000 A 
ATOM      8  C   UNL     1       0.027  10.970  19.113  0.00  0.00    +0.000 A 
ATOM      9  C   UNL     1      -0.432  11.088  20.430  0.00  0.00    +0.000 A 
ATOM     10  C   UNL     1      -1.221  12.175  20.844  0.00  0.00    +0.000 A 
ATOM     11  C   UNL     1      -1.653  12.269  22.165  0.00  0.00    +0.000 A 
ATOM     12  C   UNL     1      -1.302  11.277  23.075  0.00  0.00    +0.000 A 
ATOM     13  C   UNL     1      -0.521  10.195  22.658  0.00  0.00    +0.000 A 
ATOM     14  C   UNL     1      -0.075  10.079  21.348  0.00  0.00    +0.000 A 
ATOM     15  N   UNL     1       0.679   9.023  21.001  0.00  0.00    +0.000 NA
ENDBRANCH   3   6
BRANCH   1  19
ATOM     16  C   UNL     1       5.640   4.372  15.542  0.00  0.00    +0.000 A 
ATOM     17  C   UNL     1       4.879   3.631  16.439  0.00  0.00    +0.000 A 
ATOM     18  C   UNL     1       4.086   4.291  17.382  0.00  0.00    +0.000 A 
ATOM     19  C   UNL     1       4.053   5.693  17.417  0.00  0.00    +0.000 A 
ATOM     20  C   UNL     1       4.833   6.428  16.511  0.00  0.00    +0.000 A 
ATOM     21  C   UNL     1       5.629   5.761  15.576  0.00  0.00    +0.000 A 
BRANCH  16  22
ATOM     22  O   UNL     1       6.416   3.764  14.601  0.00  0.00    +0.000 OA
ATOM     23  H   UNL     1       6.262   4.196  13.744  0.00  0.00    +0.000 HD
ENDBRANCH  16  22
ENDBRANCH   1  19
TORSDOF 3
ENDMDL
