MODEL 1
REMARK VINA RESULT:      -9.1      0.000      0.000
REMARK  Name = 
REMARK  8 active torsions:
REMARK  status: ('A' for Active; 'I' for Inactive)
REMARK    1  A    between atoms: C_1  and  C_2
REMARK    2  A    between atoms: C_5  and  C_6
REMARK    3  A    between atoms: C_6  and  N_7
REMARK    4  A    between atoms: N_7  and  C_8
REMARK    5  A    between atoms: C_8  and  C_9
REMARK    6  A    between atoms: C_8  and  C_15
REMARK    7  A    between atoms: C_17  and  C_18
REMARK    8  A    between atoms: C_24  and  N_25
REMARK                            x       y       z     vdW  Elec       q    Type
REMARK                         _______ _______ _______ _____ _____    ______ ____
ROOT
ATOM      1  C   UNL     1       1.634   9.685  18.800  0.00  0.00    +0.000 C 
ENDROOT
BRANCH   1   2
ATOM      2  C   UNL     1       0.923   9.856  20.141  0.00  0.00    +0.000 A 
ATOM      3  C   UNL     1       0.447  11.113  20.549  0.00  0.00    +0.000 A 
ATOM      4  C   UNL     1      -0.139  11.278  21.805  0.00  0.00    +0.000 A 
ATOM      5  C   UNL     1      -0.256  10.190  22.666  0.00  0.00    +0.000 A 
ATOM      6  C   UNL     1       0.203   8.934  22.273  0.00  0.00    +0.000 A 
ATOM      7  C   UNL     1       0.788   8.766  21.017  0.00  0.00    +0.000 A 
ENDBRANCH   1   2
BRANCH   1   8
ATOM      8  C   UNL     1       2.128   8.265  18.567  0.00  0.00    +0.000 A 
ATOM      9  N   UNL     1       1.501   7.130  18.828  0.00  0.00    +0.000 NA
ATOM     10  C   UNL     1       2.402   6.159  18.445  0.00  0.00    +0.000 A 
ATOM     11  C   UNL     1       3.520   6.746  17.864  0.00  0.00    +0.000 A 
ATOM     12  O   UNL     1       3.344   8.104  17.957  0.00  0.00    +0.000 OA
BRANCH  10  13
ATOM     13  C   UNL     1       2.151   4.742  18.661  0.00  0.00    +0.000 A 
ATOM     14  C   UNL     1       1.490   4.321  19.821  0.00  0.00    +0.000 A 
ATOM     15  C   UNL     1       1.180   2.970  20.009  0.00  0.00    +0.000 A 
ATOM     16  C   UNL     1       1.522   2.030  19.037  0.00  0.00    +0.000 A 
ATOM     17  C   UNL     1       2.214   2.432  17.899  0.00  0.00    +0.000 A 
ATOM     18  C   UNL     1       2.556   3.775  17.731  0.00  0.00    +0.000 A 
ENDBRANCH  10  13
BRANCH  11  19
ATOM     19  N   UNL     1       4.669   6.304  17.276  0.00  0.00    +0.000 N 
ATOM     20  C   UNL     1       4.991   6.681  15.901  0.00  0.00    +0.000 C 
ATOM     21  C   UNL     1       5.604   5.469  15.199  0.00  0.00    +0.000 C 
ATOM     22  C   UNL     1       6.835   4.968  15.960  0.00  0.00    +0.000 C 
ATOM     23  C   UNL     1       6.531   4.749  17.444  0.00  0.00    +0.000 C 
ATOM     24  C   UNL     1       5.837   5.957  18.084  0.00  0.00    +0.000 C 
ENDBRANCH  11  19
ENDBRANCH   1   8
BRANCH   1  25
ATOM     25  N   UNL     1       0.762  10.117  17.685  0.00  0.00    +0.000 NA
ATOM     26  H   UNL     1       0.426  11.058  17.894  0.00  0.00    +0.000 HD
BRANCH  25  27
ATOM     27  C   UNL     1      -0.373   9.229  17.459  0.00  0.00    +0.000 C 
BRANCH  27  32
ATOM     28  C   UNL     1      -5.396  12.160  17.013  0.00  0.00    +0.000 C 
ATOM     29  C   UNL     1      -4.099  11.415  17.116  0.00  0.00    +0.000 A 
ATOM     30  C   UNL     1      -3.616  10.660  16.043  0.00  0.00    +0.000 A 
ATOM     31  C   UNL     1      -2.411   9.965  16.155  0.00  0.00    +0.000 A 
ATOM     32  C   UNL     1      -1.661  10.013  17.341  0.00  0.00    +0.000 A 
ATOM     33  C   UNL     1      -2.149  10.765  18.416  0.00  0.00    +0.000 A 
ATOM     34  C   UNL     1      -3.356  11.462  18.303  0.00  0.00    +0.000 A 
ENDBRANCH  27  32
ENDBRANCH  25  27
ENDBRANCH   1  25
TORSDOF 7
ENDMDL
MODEL 2
REMARK VINA RESULT:      -9.1      0.119      1.457
REMARK  Name = 
REMARK  8 active torsions:
REMARK  status: ('A' for Active; 'I' for Inactive)
REMARK    1  A    between atoms: C_1  and  C_2
REMARK    2  A    between atoms: C_5  and  C_6
REMARK    3  A    between atoms: C_6  and  N_7
REMARK    4  A    between atoms: N_7  and  C_8
REMARK    5  A    between atoms: C_8  and  C_9
REMARK    6  A    between atoms: C_8  and  C_15
REMARK    7  A    between atoms: C_17  and  C_18
REMARK    8  A    between atoms: C_24  and  N_25
REMARK                            x       y       z     vdW  Elec       q    Type
REMARK                         _______ _______ _______ _____ _____    ______ ____
ROOT
ATOM      1  C   UNL     1       1.638   9.699  18.883  0.00  0.00    +0.000 C 
ENDROOT
BRANCH   1   2
ATOM      2  C   UNL     1       0.928   9.863  20.226  0.00  0.00    +0.000 A 
ATOM      3  C   UNL     1       0.617   8.745  21.018  0.00  0.00    +0.000 A 
ATOM      4  C   UNL     1      -0.093   8.895  22.210  0.00  0.00    +0.000 A 
ATOM      5  C   UNL     1      -0.500  10.160  22.624  0.00  0.00    +0.000 A 
ATOM      6  C   UNL     1      -0.192  11.280  21.854  0.00  0.00    +0.000 A 
ATOM      7  C   UNL     1       0.520  11.135  20.662  0.00  0.00    +0.000 A 
ENDBRANCH   1   2
BRANCH   1   8
ATOM      8  C   UNL     1       2.112   8.275  18.633  0.00  0.00    +0.000 A 
ATOM      9  N   UNL     1       1.470   7.147  18.879  0.00  0.00    +0.000 NA
ATOM     10  C   UNL     1       2.359   6.168  18.484  0.00  0.00    +0.000 A 
ATOM     11  C   UNL     1       3.485   6.747  17.913  0.00  0.00    +0.000 A 
ATOM     12  O   UNL     1       3.327   8.106  18.023  0.00  0.00    +0.000 OA
BRANCH  10  13
ATOM     13  C   UNL     1       2.089   4.752  18.682  0.00  0.00    +0.000 A 
ATOM     14  C   UNL     1       2.447   3.829  17.693  0.00  0.00    +0.000 A 
ATOM     15  C   UNL     1       2.258   2.459  17.899  0.00  0.00    +0.000 A 
ATOM     16  C   UNL     1       1.715   1.999  19.098  0.00  0.00    +0.000 A 
ATOM     17  C   UNL     1       1.318   2.910  20.072  0.00  0.00    +0.000 A 
ATOM     18  C   UNL     1       1.473   4.279  19.849  0.00  0.00    +0.000 A 
ENDBRANCH  10  13
BRANCH  11  19
ATOM     19  N   UNL     1       4.629   6.297  17.321  0.00  0.00    +0.000 N 
ATOM     20  C   UNL     1       4.969   6.703  15.958  0.00  0.00    +0.000 C 
ATOM     21  C   UNL     1       5.561   5.497  15.229  0.00  0.00    +0.000 C 
ATOM     22  C   UNL     1       6.777   4.952  15.985  0.00  0.00    +0.000 C 
ATOM     23  C   UNL     1       6.459   4.701  17.460  0.00  0.00    +0.000 C 
ATOM     24  C   UNL     1       5.785   5.907  18.127  0.00  0.00    +0.000 C 
ENDBRANCH  11  19
ENDBRANCH   1   8
BRANCH   1  25
ATOM     25  N   UNL     1       0.772  10.157  17.773  0.00  0.00    +0.000 NA
ATOM     26  H   UNL     1       0.392  11.070  18.026  0.00  0.00    +0.000 HD
BRANCH  25  27
ATOM     27  C   UNL     1      -0.318   9.236  17.471  0.00  0.00    +0.000 C 
BRANCH  27  32
ATOM     28  C   UNL     1      -5.349  12.163  17.090  0.00  0.00    +0.000 C 
ATOM     29  C   UNL     1      -4.061  11.403  17.200  0.00  0.00    +0.000 A 
ATOM     30  C   UNL     1      -3.253  11.517  18.335  0.00  0.00    +0.000 A 
ATOM     31  C   UNL     1      -2.053  10.811  18.422  0.00  0.00    +0.000 A 
ATOM     32  C   UNL     1      -1.637   9.970  17.376  0.00  0.00    +0.000 A 
ATOM     33  C   UNL     1      -2.444   9.862  16.239  0.00  0.00    +0.000 A 
ATOM     34  C   UNL     1      -3.647  10.570  16.153  0.00  0.00    +0.000 A 
ENDBRANCH  27  32
ENDBRANCH  25  27
ENDBRANCH   1  25
TORSDOF 7
ENDMDL
MODEL 3
REMARK VINA RESULT:      -8.9      0.690      1.073
REMARK  Name = 
REMARK  8 active torsions:
REMARK  status: ('A' for Active; 'I' for Inactive)
REMARK    1  A    between atoms: C_1  and  C_2
REMARK    2  A    between atoms: C_5  and  C_6
REMARK    3  A    between atoms: C_6  and  N_7
REMARK    4  A    between atoms: N_7  and  C_8
REMARK    5  A    between atoms: C_8  and  C_9
REMARK    6  A    between atoms: C_8  and  C_15
REMARK    7  A    between atoms: C_17  and  C_18
REMARK    8  A    between atoms: C_24  and  N_25
REMARK                            x       y       z     vdW  Elec       q    Type
REMARK                         _______ _______ _______ _____ _____    ______ ____
ROOT
ATOM      1  C   UNL     1       1.480   9.881  19.080  0.00  0.00    +0.000 C 
ENDROOT
BRANCH   1   2
ATOM      2  C   UNL     1       0.689  10.186  20.350  0.00  0.00    +0.000 A 
ATOM      3  C   UNL     1       0.378  11.509  20.706  0.00  0.00    +0.000 A 
ATOM      4  C   UNL     1      -0.283  11.787  21.903  0.00  0.00    +0.000 A 
ATOM      5  C   UNL     1      -0.642  10.747  22.757  0.00  0.00    +0.000 A 
ATOM      6  C   UNL     1      -0.348   9.429  22.415  0.00  0.00    +0.000 A 
ATOM      7  C   UNL     1       0.312   9.147  21.218  0.00  0.00    +0.000 A 
ENDBRANCH   1   2
BRANCH   1   8
ATOM      8  C   UNL     1       1.952   8.436  19.007  0.00  0.00    +0.000 A 
ATOM      9  N   UNL     1       1.382   7.365  19.532  0.00  0.00    +0.000 NA
ATOM     10  C   UNL     1       2.230   6.335  19.182  0.00  0.00    +0.000 A 
ATOM     11  C   UNL     1       3.247   6.810  18.362  0.00  0.00    +0.000 A 
ATOM     12  O   UNL     1       3.070   8.167  18.263  0.00  0.00    +0.000 OA
BRANCH  10  13
ATOM     13  C   UNL     1       2.030   4.974  19.654  0.00  0.00    +0.000 A 
ATOM     14  C   UNL     1       1.658   3.971  18.751  0.00  0.00    +0.000 A 
ATOM     15  C   UNL     1       1.530   2.645  19.176  0.00  0.00    +0.000 A 
ATOM     16  C   UNL     1       1.779   2.309  20.506  0.00  0.00    +0.000 A 
ATOM     17  C   UNL     1       2.110   3.303  21.422  0.00  0.00    +0.000 A 
ATOM     18  C   UNL     1       2.201   4.631  21.002  0.00  0.00    +0.000 A 
ENDBRANCH  10  13
BRANCH  11  19
ATOM     19  N   UNL     1       4.306   6.267  17.694  0.00  0.00    +0.000 N 
ATOM     20  C   UNL     1       4.864   6.937  16.520  0.00  0.00    +0.000 C 
ATOM     21  C   UNL     1       5.225   5.872  15.484  0.00  0.00    +0.000 C 
ATOM     22  C   UNL     1       6.197   4.848  16.076  0.00  0.00    +0.000 C 
ATOM     23  C   UNL     1       5.684   4.285  17.404  0.00  0.00    +0.000 C 
ATOM     24  C   UNL     1       5.251   5.387  18.379  0.00  0.00    +0.000 C 
ENDBRANCH  11  19
ENDBRANCH   1   8
BRANCH   1  25
ATOM     25  N   UNL     1       0.692  10.227  17.876  0.00  0.00    +0.000 NA
ATOM     26  H   UNL     1       0.347  11.182  17.989  0.00  0.00    +0.000 HD
BRANCH  25  27
ATOM     27  C   UNL     1      -0.429   9.325  17.637  0.00  0.00    +0.000 C 
BRANCH  27  32
ATOM     28  C   UNL     1      -5.465  12.200  17.015  0.00  0.00    +0.000 C 
ATOM     29  C   UNL     1      -4.164  11.469  17.163  0.00  0.00    +0.000 A 
ATOM     30  C   UNL     1      -3.657  10.687  16.122  0.00  0.00    +0.000 A 
ATOM     31  C   UNL     1      -2.449  10.005  16.276  0.00  0.00    +0.000 A 
ATOM     32  C   UNL     1      -1.720  10.095  17.473  0.00  0.00    +0.000 A 
ATOM     33  C   UNL     1      -2.233  10.874  18.516  0.00  0.00    +0.000 A 
ATOM     34  C   UNL     1      -3.443  11.557  18.361  0.00  0.00    +0.000 A 
ENDBRANCH  27  32
ENDBRANCH  25  27
ENDBRANCH   1  25
TORSDOF 7
ENDMDL
MODEL 4
REMARK VINA RESULT:      -8.9      0.933      1.734
REMARK  Name = 
REMARK  8 active torsions:
REMARK  status: ('A' for Active; 'I' for Inactive)
REMARK    1  A    between atoms: C_1  and  C_2
REMARK    2  A    between atoms: C_5  and  C_6
REMARK    3  A    between atoms: C_6  and  N_7
REMARK    4  A    between atoms: N_7  and  C_8
REMARK    5  A    between atoms: C_8  and  C_9
REMARK    6  A    between atoms: C_8  and  C_15
REMARK    7  A    between atoms: C_17  and  C_18
REMARK    8  A    between atoms: C_24  and  N_25
REMARK                            x       y       z     vdW  Elec       q    Type
REMARK                         _______ _______ _______ _____ _____    ______ ____
ROOT
ATOM      1  C   UNL     1       1.488   9.921  19.388  0.00  0.00    +0.000 C 
ENDROOT
BRANCH   1   2
ATOM      2  C   UNL     1       0.699  10.226  20.659  0.00  0.00    +0.000 A 
ATOM      3  C   UNL     1       0.280   9.192  21.514  0.00  0.00    +0.000 A 
ATOM      4  C   UNL     1      -0.501   9.471  22.637  0.00  0.00    +0.000 A 
ATOM      5  C   UNL     1      -0.871  10.783  22.919  0.00  0.00    +0.000 A 
ATOM      6  C   UNL     1      -0.458  11.820  22.086  0.00  0.00    +0.000 A 
ATOM      7  C   UNL     1       0.325  11.546  20.963  0.00  0.00    +0.000 A 
ENDBRANCH   1   2
BRANCH   1   8
ATOM      8  C   UNL     1       1.886   8.457  19.274  0.00  0.00    +0.000 A 
ATOM      9  N   UNL     1       1.364   7.419  19.905  0.00  0.00    +0.000 NA
ATOM     10  C   UNL     1       2.106   6.349  19.449  0.00  0.00    +0.000 A 
ATOM     11  C   UNL     1       2.999   6.767  18.470  0.00  0.00    +0.000 A 
ATOM     12  O   UNL     1       2.861   8.129  18.369  0.00  0.00    +0.000 OA
BRANCH  10  13
ATOM     13  C   UNL     1       1.930   5.004  19.976  0.00  0.00    +0.000 A 
ATOM     14  C   UNL     1       2.459   4.671  21.229  0.00  0.00    +0.000 A 
ATOM     15  C   UNL     1       2.236   3.405  21.779  0.00  0.00    +0.000 A 
ATOM     16  C   UNL     1       1.478   2.463  21.086  0.00  0.00    +0.000 A 
ATOM     17  C   UNL     1       0.981   2.769  19.822  0.00  0.00    +0.000 A 
ATOM     18  C   UNL     1       1.236   4.020  19.259  0.00  0.00    +0.000 A 
ENDBRANCH  10  13
BRANCH  11  19
ATOM     19  N   UNL     1       3.917   6.170  17.655  0.00  0.00    +0.000 N 
ATOM     20  C   UNL     1       3.687   4.821  17.142  0.00  0.00    +0.000 C 
ATOM     21  C   UNL     1       5.016   4.064  17.165  0.00  0.00    +0.000 C 
ATOM     22  C   UNL     1       6.078   4.813  16.355  0.00  0.00    +0.000 C 
ATOM     23  C   UNL     1       6.182   6.280  16.779  0.00  0.00    +0.000 C 
ATOM     24  C   UNL     1       4.815   6.973  16.827  0.00  0.00    +0.000 C 
ENDBRANCH  11  19
ENDBRANCH   1   8
BRANCH   1  25
ATOM     25  N   UNL     1       0.734  10.345  18.187  0.00  0.00    +0.000 NA
ATOM     26  H   UNL     1       0.305  11.250  18.389  0.00  0.00    +0.000 HD
BRANCH  25  27
ATOM     27  C   UNL     1      -0.293   9.393  17.781  0.00  0.00    +0.000 C 
BRANCH  27  32
ATOM     28  C   UNL     1      -5.386  12.142  17.053  0.00  0.00    +0.000 C 
ATOM     29  C   UNL     1      -4.083  11.428  17.252  0.00  0.00    +0.000 A 
ATOM     30  C   UNL     1      -3.340  11.601  18.424  0.00  0.00    +0.000 A 
ATOM     31  C   UNL     1      -2.125  10.937  18.594  0.00  0.00    +0.000 A 
ATOM     32  C   UNL     1      -1.628  10.081  17.597  0.00  0.00    +0.000 A 
ATOM     33  C   UNL     1      -2.370   9.914  16.422  0.00  0.00    +0.000 A 
ATOM     34  C   UNL     1      -3.588  10.580  16.253  0.00  0.00    +0.000 A 
ENDBRANCH  27  32
ENDBRANCH  25  27
ENDBRANCH   1  25
TORSDOF 7
ENDMDL
MODEL 5
REMARK VINA RESULT:      -8.8      1.243      3.356
REMARK  Name = 
REMARK  8 active torsions:
REMARK  status: ('A' for Active; 'I' for Inactive)
REMARK    1  A    between atoms: C_1  and  C_2
REMARK    2  A    between atoms: C_5  and  C_6
REMARK    3  A    between atoms: C_6  and  N_7
REMARK    4  A    between atoms: N_7  and  C_8
REMARK    5  A    between atoms: C_8  and  C_9
REMARK    6  A    between atoms: C_8  and  C_15
REMARK    7  A    between atoms: C_17  and  C_18
REMARK    8  A    between atoms: C_24  and  N_25
REMARK                            x       y       z     vdW  Elec       q    Type
REMARK                         _______ _______ _______ _____ _____    ______ ____
ROOT
ATOM      1  C   UNL     1       1.551   9.909  19.146  0.00  0.00    +0.000 C 
ENDROOT
BRANCH   1   2
ATOM      2  C   UNL     1       0.778   9.968  20.461  0.00  0.00    +0.000 A 
ATOM      3  C   UNL     1       0.352   8.792  21.101  0.00  0.00    +0.000 A 
ATOM      4  C   UNL     1      -0.414   8.854  22.265  0.00  0.00    +0.000 A 
ATOM      5  C   UNL     1      -0.764  10.089  22.804  0.00  0.00    +0.000 A 
ATOM      6  C   UNL     1      -0.343  11.265  22.186  0.00  0.00    +0.000 A 
ATOM      7  C   UNL     1       0.426  11.207  21.022  0.00  0.00    +0.000 A 
ENDBRANCH   1   2
BRANCH   1   8
ATOM      8  C   UNL     1       2.136   8.533  18.862  0.00  0.00    +0.000 A 
ATOM      9  N   UNL     1       3.016   8.197  17.935  0.00  0.00    +0.000 NA
ATOM     10  C   UNL     1       3.175   6.837  18.110  0.00  0.00    +0.000 A 
ATOM     11  C   UNL     1       2.451   6.408  19.216  0.00  0.00    +0.000 A 
ATOM     12  O   UNL     1       1.773   7.504  19.690  0.00  0.00    +0.000 OA
BRANCH  10  13
ATOM     13  C   UNL     1       3.992   6.033  17.214  0.00  0.00    +0.000 A 
ATOM     14  C   UNL     1       3.847   4.641  17.200  0.00  0.00    +0.000 A 
ATOM     15  C   UNL     1       4.575   3.861  16.295  0.00  0.00    +0.000 A 
ATOM     16  C   UNL     1       5.449   4.466  15.394  0.00  0.00    +0.000 A 
ATOM     17  C   UNL     1       5.631   5.846  15.426  0.00  0.00    +0.000 A 
ATOM     18  C   UNL     1       4.931   6.618  16.354  0.00  0.00    +0.000 A 
ENDBRANCH  10  13
BRANCH  11  19
ATOM     19  N   UNL     1       2.273   5.229  19.878  0.00  0.00    +0.000 N 
ATOM     20  C   UNL     1       3.393   4.586  20.564  0.00  0.00    +0.000 C 
ATOM     21  C   UNL     1       3.292   3.077  20.342  0.00  0.00    +0.000 C 
ATOM     22  C   UNL     1       1.940   2.548  20.830  0.00  0.00    +0.000 C 
ATOM     23  C   UNL     1       0.775   3.349  20.245  0.00  0.00    +0.000 C 
ATOM     24  C   UNL     1       0.962   4.862  20.412  0.00  0.00    +0.000 C 
ENDBRANCH  11  19
ENDBRANCH   1   8
BRANCH   1  25
ATOM     25  N   UNL     1       0.702  10.352  18.017  0.00  0.00    +0.000 NA
ATOM     26  H   UNL     1       0.314  11.266  18.254  0.00  0.00    +0.000 HD
BRANCH  25  27
ATOM     27  C   UNL     1      -0.380   9.424  17.707  0.00  0.00    +0.000 C 
BRANCH  27  32
ATOM     28  C   UNL     1      -5.508  12.148  17.158  0.00  0.00    +0.000 C 
ATOM     29  C   UNL     1      -4.185  11.456  17.287  0.00  0.00    +0.000 A 
ATOM     30  C   UNL     1      -3.706  10.625  16.270  0.00  0.00    +0.000 A 
ATOM     31  C   UNL     1      -2.476   9.980  16.406  0.00  0.00    +0.000 A 
ATOM     32  C   UNL     1      -1.696  10.155  17.560  0.00  0.00    +0.000 A 
ATOM     33  C   UNL     1      -2.180  10.982  18.580  0.00  0.00    +0.000 A 
ATOM     34  C   UNL     1      -3.412  11.629  18.442  0.00  0.00    +0.000 A 
ENDBRANCH  27  32
ENDBRANCH  25  27
ENDBRANCH   1  25
TORSDOF 7
ENDMDL
MODEL 6
REMARK VINA RESULT:      -8.8      1.126      3.540
REMARK  Name = 
REMARK  8 active torsions:
REMARK  status: ('A' for Active; 'I' for Inactive)
REMARK    1  A    between atoms: C_1  and  C_2
REMARK    2  A    between atoms: C_5  and  C_6
REMARK    3  A    between atoms: C_6  and  N_7
REMARK    4  A    between atoms: N_7  and  C_8
REMARK    5  A    between atoms: C_8  and  C_9
REMARK    6  A    between atoms: C_8  and  C_15
REMARK    7  A    between atoms: C_17  and  C_18
REMARK    8  A    between atoms: C_24  and  N_25
REMARK                            x       y       z     vdW  Elec       q    Type
REMARK                         _______ _______ _______ _____ _____    ______ ____
ROOT
ATOM      1  C   UNL     1       1.594   9.796  19.107  0.00  0.00    +0.000 C 
ENDROOT
BRANCH   1   2
ATOM      2  C   UNL     1       0.833   9.824  20.430  0.00  0.00    +0.000 A 
ATOM      3  C   UNL     1       0.400   8.633  21.039  0.00  0.00    +0.000 A 
ATOM      4  C   UNL     1      -0.355   8.668  22.212  0.00  0.00    +0.000 A 
ATOM      5  C   UNL     1      -0.686   9.891  22.791  0.00  0.00    +0.000 A 
ATOM      6  C   UNL     1      -0.257  11.080  22.205  0.00  0.00    +0.000 A 
ATOM      7  C   UNL     1       0.500  11.049  21.033  0.00  0.00    +0.000 A 
ENDBRANCH   1   2
BRANCH   1   8
ATOM      8  C   UNL     1       2.176   8.427  18.786  0.00  0.00    +0.000 A 
ATOM      9  N   UNL     1       3.111   8.126  17.901  0.00  0.00    +0.000 NA
ATOM     10  C   UNL     1       3.238   6.757  18.009  0.00  0.00    +0.000 A 
ATOM     11  C   UNL     1       2.436   6.281  19.040  0.00  0.00    +0.000 A 
ATOM     12  O   UNL     1       1.744   7.360  19.529  0.00  0.00    +0.000 OA
BRANCH  10  13
ATOM     13  C   UNL     1       4.102   5.988  17.126  0.00  0.00    +0.000 A 
ATOM     14  C   UNL     1       4.941   6.650  16.223  0.00  0.00    +0.000 A 
ATOM     15  C   UNL     1       5.827   5.928  15.417  0.00  0.00    +0.000 A 
ATOM     16  C   UNL     1       5.886   4.538  15.512  0.00  0.00    +0.000 A 
ATOM     17  C   UNL     1       5.028   3.866  16.378  0.00  0.00    +0.000 A 
ATOM     18  C   UNL     1       4.119   4.587  17.153  0.00  0.00    +0.000 A 
ENDBRANCH  10  13
BRANCH  11  19
ATOM     19  N   UNL     1       2.197   5.070  19.622  0.00  0.00    +0.000 N 
ATOM     20  C   UNL     1       1.402   4.058  18.928  0.00  0.00    +0.000 C 
ATOM     21  C   UNL     1       0.506   3.363  19.954  0.00  0.00    +0.000 C 
ATOM     22  C   UNL     1       1.345   2.759  21.084  0.00  0.00    +0.000 C 
ATOM     23  C   UNL     1       2.309   3.786  21.683  0.00  0.00    +0.000 C 
ATOM     24  C   UNL     1       3.123   4.520  20.611  0.00  0.00    +0.000 C 
ENDBRANCH  11  19
ENDBRANCH   1   8
BRANCH   1  25
ATOM     25  N   UNL     1       0.734  10.264  17.997  0.00  0.00    +0.000 NA
ATOM     26  H   UNL     1       0.327  11.161  18.270  0.00  0.00    +0.000 HD
BRANCH  25  27
ATOM     27  C   UNL     1      -0.329   9.327  17.652  0.00  0.00    +0.000 C 
BRANCH  27  32
ATOM     28  C   UNL     1      -5.392  12.169  17.101  0.00  0.00    +0.000 C 
ATOM     29  C   UNL     1      -4.096  11.431  17.255  0.00  0.00    +0.000 A 
ATOM     30  C   UNL     1      -3.326  11.564  18.414  0.00  0.00    +0.000 A 
ATOM     31  C   UNL     1      -2.118  10.878  18.541  0.00  0.00    +0.000 A 
ATOM     32  C   UNL     1      -1.656  10.039  17.513  0.00  0.00    +0.000 A 
ATOM     33  C   UNL     1      -2.426   9.912  16.352  0.00  0.00    +0.000 A 
ATOM     34  C   UNL     1      -3.637  10.599  16.226  0.00  0.00    +0.000 A 
ENDBRANCH  27  32
ENDBRANCH  25  27
ENDBRANCH   1  25
TORSDOF 7
ENDMDL
MODEL 7
REMARK VINA RESULT:      -8.8      0.963      1.675
REMARK  Name = 
REMARK  8 active torsions:
REMARK  status: ('A' for Active; 'I' for Inactive)
REMARK    1  A    between atoms: C_1  and  C_2
REMARK    2  A    between atoms: C_5  and  C_6
REMARK    3  A    between atoms: C_6  and  N_7
REMARK    4  A    between atoms: N_7  and  C_8
REMARK    5  A    between atoms: C_8  and  C_9
REMARK    6  A    between atoms: C_8  and  C_15
REMARK    7  A    between atoms: C_17  and  C_18
REMARK    8  A    between atoms: C_24  and  N_25
REMARK                            x       y       z     vdW  Elec       q    Type
REMARK                         _______ _______ _______ _____ _____    ______ ____
ROOT
ATOM      1  C   UNL     1       1.486   9.906  19.433  0.00  0.00    +0.000 C 
ENDROOT
BRANCH   1   2
ATOM      2  C   UNL     1       0.691  10.231  20.695  0.00  0.00    +0.000 A 
ATOM      3  C   UNL     1       0.259   9.210  21.559  0.00  0.00    +0.000 A 
ATOM      4  C   UNL     1      -0.526   9.507  22.673  0.00  0.00    +0.000 A 
ATOM      5  C   UNL     1      -0.890  10.824  22.938  0.00  0.00    +0.000 A 
ATOM      6  C   UNL     1      -0.463  11.850  22.096  0.00  0.00    +0.000 A 
ATOM      7  C   UNL     1       0.325  11.557  20.981  0.00  0.00    +0.000 A 
ENDBRANCH   1   2
BRANCH   1   8
ATOM      8  C   UNL     1       1.860   8.434  19.329  0.00  0.00    +0.000 A 
ATOM      9  N   UNL     1       1.342   7.413  19.990  0.00  0.00    +0.000 NA
ATOM     10  C   UNL     1       2.055   6.326  19.530  0.00  0.00    +0.000 A 
ATOM     11  C   UNL     1       2.925   6.717  18.519  0.00  0.00    +0.000 A 
ATOM     12  O   UNL     1       2.804   8.080  18.402  0.00  0.00    +0.000 OA
BRANCH  10  13
ATOM     13  C   UNL     1       1.874   4.992  20.082  0.00  0.00    +0.000 A 
ATOM     14  C   UNL     1       1.150   4.033  19.364  0.00  0.00    +0.000 A 
ATOM     15  C   UNL     1       1.028   2.727  19.849  0.00  0.00    +0.000 A 
ATOM     16  C   UNL     1       1.634   2.367  21.052  0.00  0.00    +0.000 A 
ATOM     17  C   UNL     1       2.322   3.322  21.794  0.00  0.00    +0.000 A 
ATOM     18  C   UNL     1       2.411   4.634  21.326  0.00  0.00    +0.000 A 
ENDBRANCH  10  13
BRANCH  11  19
ATOM     19  N   UNL     1       3.811   6.095  17.688  0.00  0.00    +0.000 N 
ATOM     20  C   UNL     1       3.546   4.743  17.199  0.00  0.00    +0.000 C 
ATOM     21  C   UNL     1       4.862   3.965  17.196  0.00  0.00    +0.000 C 
ATOM     22  C   UNL     1       5.915   4.686  16.349  0.00  0.00    +0.000 C 
ATOM     23  C   UNL     1       6.054   6.156  16.751  0.00  0.00    +0.000 C 
ATOM     24  C   UNL     1       4.700   6.873  16.826  0.00  0.00    +0.000 C 
ENDBRANCH  11  19
ENDBRANCH   1   8
BRANCH   1  25
ATOM     25  N   UNL     1       0.750  10.337  18.223  0.00  0.00    +0.000 NA
ATOM     26  H   UNL     1       0.351  11.259  18.409  0.00  0.00    +0.000 HD
BRANCH  25  27
ATOM     27  C   UNL     1      -0.307   9.413  17.827  0.00  0.00    +0.000 C 
BRANCH  27  32
ATOM     28  C   UNL     1      -5.422  12.124  17.113  0.00  0.00    +0.000 C 
ATOM     29  C   UNL     1      -4.102  11.435  17.285  0.00  0.00    +0.000 A 
ATOM     30  C   UNL     1      -3.597  10.591  16.291  0.00  0.00    +0.000 A 
ATOM     31  C   UNL     1      -2.371   9.949  16.466  0.00  0.00    +0.000 A 
ATOM     32  C   UNL     1      -1.619  10.141  17.638  0.00  0.00    +0.000 A 
ATOM     33  C   UNL     1      -2.130  10.982  18.633  0.00  0.00    +0.000 A 
ATOM     34  C   UNL     1      -3.358  11.625  18.456  0.00  0.00    +0.000 A 
ENDBRANCH  27  32
ENDBRANCH  25  27
ENDBRANCH   1  25
TORSDOF 7
ENDMDL
MODEL 8
REMARK VINA RESULT:      -8.8      0.842      3.401
REMARK  Name = 
REMARK  8 active torsions:
REMARK  status: ('A' for Active; 'I' for Inactive)
REMARK    1  A    between atoms: C_1  and  C_2
REMARK    2  A    between atoms: C_5  and  C_6
REMARK    3  A    between atoms: C_6  and  N_7
REMARK    4  A    between atoms: N_7  and  C_8
REMARK    5  A    between atoms: C_8  and  C_9
REMARK    6  A    between atoms: C_8  and  C_15
REMARK    7  A    between atoms: C_17  and  C_18
REMARK    8  A    between atoms: C_24  and  N_25
REMARK                            x       y       z     vdW  Elec       q    Type
REMARK                         _______ _______ _______ _____ _____    ______ ____
ROOT
ATOM      1  C   UNL     1       1.565   9.873  18.698  0.00  0.00    +0.000 C 
ENDROOT
BRANCH   1   2
ATOM      2  C   UNL     1       0.895   9.997  20.065  0.00  0.00    +0.000 A 
ATOM      3  C   UNL     1       0.653   8.861  20.856  0.00  0.00    +0.000 A 
ATOM      4  C   UNL     1      -0.021   8.972  22.072  0.00  0.00    +0.000 A 
ATOM      5  C   UNL     1      -0.462  10.216  22.513  0.00  0.00    +0.000 A 
ATOM      6  C   UNL     1      -0.224  11.354  21.744  0.00  0.00    +0.000 A 
ATOM      7  C   UNL     1       0.453  11.248  20.528  0.00  0.00    +0.000 A 
ENDBRANCH   1   2
BRANCH   1   8
ATOM      8  C   UNL     1       2.236   8.524  18.487  0.00  0.00    +0.000 A 
ATOM      9  N   UNL     1       3.397   8.273  17.907  0.00  0.00    +0.000 NA
ATOM     10  C   UNL     1       3.506   6.899  17.968  0.00  0.00    +0.000 A 
ATOM     11  C   UNL     1       2.440   6.365  18.682  0.00  0.00    +0.000 A 
ATOM     12  O   UNL     1       1.617   7.416  19.004  0.00  0.00    +0.000 OA
BRANCH  10  13
ATOM     13  C   UNL     1       4.605   6.182  17.340  0.00  0.00    +0.000 A 
ATOM     14  C   UNL     1       5.480   5.421  18.125  0.00  0.00    +0.000 A 
ATOM     15  C   UNL     1       6.497   4.670  17.528  0.00  0.00    +0.000 A 
ATOM     16  C   UNL     1       6.646   4.668  16.142  0.00  0.00    +0.000 A 
ATOM     17  C   UNL     1       5.808   5.453  15.354  0.00  0.00    +0.000 A 
ATOM     18  C   UNL     1       4.817   6.230  15.955  0.00  0.00    +0.000 A 
ENDBRANCH  10  13
BRANCH  11  19
ATOM     19  N   UNL     1       2.056   5.122  19.094  0.00  0.00    +0.000 N 
ATOM     20  C   UNL     1       1.526   4.918  20.441  0.00  0.00    +0.000 C 
ATOM     21  C   UNL     1       2.076   3.597  20.980  0.00  0.00    +0.000 C 
ATOM     22  C   UNL     1       1.721   2.440  20.042  0.00  0.00    +0.000 C 
ATOM     23  C   UNL     1       2.119   2.743  18.595  0.00  0.00    +0.000 C 
ATOM     24  C   UNL     1       1.620   4.116  18.127  0.00  0.00    +0.000 C 
ENDBRANCH  11  19
ENDBRANCH   1   8
BRANCH   1  25
ATOM     25  N   UNL     1       0.596  10.143  17.612  0.00  0.00    +0.000 NA
ATOM     26  H   UNL     1       0.307  11.120  17.684  0.00  0.00    +0.000 HD
BRANCH  25  27
ATOM     27  C   UNL     1      -0.578   9.278  17.655  0.00  0.00    +0.000 C 
BRANCH  27  32
ATOM     28  C   UNL     1      -5.536  12.274  16.975  0.00  0.00    +0.000 C 
ATOM     29  C   UNL     1      -4.255  11.513  17.139  0.00  0.00    +0.000 A 
ATOM     30  C   UNL     1      -3.707  10.790  16.075  0.00  0.00    +0.000 A 
ATOM     31  C   UNL     1      -2.518  10.079  16.243  0.00  0.00    +0.000 A 
ATOM     32  C   UNL     1      -1.848  10.079  17.478  0.00  0.00    +0.000 A 
ATOM     33  C   UNL     1      -2.402  10.799  18.543  0.00  0.00    +0.000 A 
ATOM     34  C   UNL     1      -3.593  11.512  18.373  0.00  0.00    +0.000 A 
ENDBRANCH  27  32
ENDBRANCH  25  27
ENDBRANCH   1  25
TORSDOF 7
ENDMDL
MODEL 9
REMARK VINA RESULT:      -8.7      1.022      3.431
REMARK  Name = 
REMARK  8 active torsions:
REMARK  status: ('A' for Active; 'I' for Inactive)
REMARK    1  A    between atoms: C_1  and  C_2
REMARK    2  A    between atoms: C_5  and  C_6
REMARK    3  A    between atoms: C_6  and  N_7
REMARK    4  A    between atoms: N_7  and  C_8
REMARK    5  A    between atoms: C_8  and  C_9
REMARK    6  A    between atoms: C_8  and  C_15
REMARK    7  A    between atoms: C_17  and  C_18
REMARK    8  A    between atoms: C_24  and  N_25
REMARK                            x       y       z     vdW  Elec       q    Type
REMARK                         _______ _______ _______ _____ _____    ______ ____
ROOT
ATOM      1  C   UNL     1       1.538   9.836  18.870  0.00  0.00    +0.000 C 
ENDROOT
BRANCH   1   2
ATOM      2  C   UNL     1       0.775   9.911  20.191  0.00  0.00    +0.000 A 
ATOM      3  C   UNL     1       0.390  11.150  20.732  0.00  0.00    +0.000 A 
ATOM      4  C   UNL     1      -0.246  11.217  21.972  0.00  0.00    +0.000 A 
ATOM      5  C   UNL     1      -0.503  10.050  22.686  0.00  0.00    +0.000 A 
ATOM      6  C   UNL     1      -0.135   8.813  22.161  0.00  0.00    +0.000 A 
ATOM      7  C   UNL     1       0.499   8.742  20.919  0.00  0.00    +0.000 A 
ENDBRANCH   1   2
BRANCH   1   8
ATOM      8  C   UNL     1       2.185   8.479  18.635  0.00  0.00    +0.000 A 
ATOM      9  N   UNL     1       3.286   8.207  17.957  0.00  0.00    +0.000 NA
ATOM     10  C   UNL     1       3.398   6.835  18.047  0.00  0.00    +0.000 A 
ATOM     11  C   UNL     1       2.402   6.325  18.871  0.00  0.00    +0.000 A 
ATOM     12  O   UNL     1       1.615   7.388  19.238  0.00  0.00    +0.000 OA
BRANCH  10  13
ATOM     13  C   UNL     1       4.433   6.096  17.340  0.00  0.00    +0.000 A 
ATOM     14  C   UNL     1       5.736   6.603  17.282  0.00  0.00    +0.000 A 
ATOM     15  C   UNL     1       6.757   5.871  16.668  0.00  0.00    +0.000 A 
ATOM     16  C   UNL     1       6.485   4.622  16.111  0.00  0.00    +0.000 A 
ATOM     17  C   UNL     1       5.185   4.124  16.127  0.00  0.00    +0.000 A 
ATOM     18  C   UNL     1       4.161   4.874  16.708  0.00  0.00    +0.000 A 
ENDBRANCH  10  13
BRANCH  11  19
ATOM     19  N   UNL     1       2.056   5.096  19.351  0.00  0.00    +0.000 N 
ATOM     20  C   UNL     1       1.764   4.910  20.771  0.00  0.00    +0.000 C 
ATOM     21  C   UNL     1       2.356   3.571  21.214  0.00  0.00    +0.000 C 
ATOM     22  C   UNL     1       1.804   2.426  20.359  0.00  0.00    +0.000 C 
ATOM     23  C   UNL     1       1.952   2.716  18.864  0.00  0.00    +0.000 C 
ATOM     24  C   UNL     1       1.424   4.104  18.482  0.00  0.00    +0.000 C 
ENDBRANCH  11  19
ENDBRANCH   1   8
BRANCH   1  25
ATOM     25  N   UNL     1       0.658  10.192  17.735  0.00  0.00    +0.000 NA
ATOM     26  H   UNL     1       0.293  11.131  17.902  0.00  0.00    +0.000 HD
BRANCH  25  27
ATOM     27  C   UNL     1      -0.447   9.260  17.544  0.00  0.00    +0.000 C 
BRANCH  27  32
ATOM     28  C   UNL     1      -5.456  12.200  17.008  0.00  0.00    +0.000 C 
ATOM     29  C   UNL     1      -4.175  11.436  17.158  0.00  0.00    +0.000 A 
ATOM     30  C   UNL     1      -3.425  11.513  18.335  0.00  0.00    +0.000 A 
ATOM     31  C   UNL     1      -2.230  10.803  18.459  0.00  0.00    +0.000 A 
ATOM     32  C   UNL     1      -1.761   9.997  17.408  0.00  0.00    +0.000 A 
ATOM     33  C   UNL     1      -2.510   9.927  16.229  0.00  0.00    +0.000 A 
ATOM     34  C   UNL     1      -3.708  10.638  16.106  0.00  0.00    +0.000 A 
ENDBRANCH  27  32
ENDBRANCH  25  27
ENDBRANCH   1  25
TORSDOF 7
ENDMDL
