MODEL 1
REMARK VINA RESULT:      -8.2      0.000      0.000
REMARK  Name = 
REMARK  13 active torsions:
REMARK  status: ('A' for Active; 'I' for Inactive)
REMARK    1  A    between atoms: C_1  and  C_2
REMARK    2  A    between atoms: C_2  and  O_3
REMARK    3  A    between atoms: O_3  and  C_4
REMARK    4  A    between atoms: C_4  and  C_6
REMARK    5  A    between atoms: C_7  and  C_8
REMARK    6  A    between atoms: C_10  and  C_11
REMARK    7  A    between atoms: C_12  and  S_13
REMARK    8  A    between atoms: S_13  and  N_16
REMARK    9  A    between atoms: C_19  and  C_20
REMARK   10  A    between atoms: N_22  and  C_23
REMARK   11  A    between atoms: C_23  and  C_24
REMARK   12  A    between atoms: C_27  and  O_28
REMARK   13  A    between atoms: O_28  and  C_29
REMARK                            x       y       z     vdW  Elec       q    Type
REMARK                         _______ _______ _______ _____ _____    ______ ____
ROOT
ATOM      1  N   UNL     1       5.336   4.335  18.312  0.00  0.00    +0.000 NA
ATOM      2  C   UNL     1       6.199   4.447  17.099  0.00  0.00    +0.000 C 
ATOM      3  C   UNL     1       7.684   4.590  17.408  0.00  0.00    +0.000 C 
ATOM      4  C   UNL     1       7.948   5.724  18.401  0.00  0.00    +0.000 C 
ATOM      5  C   UNL     1       7.206   5.383  19.685  0.00  0.00    +0.000 C 
ATOM      6  C   UNL     1       5.708   5.185  19.484  0.00  0.00    +0.000 C 
ENDROOT
BRANCH   4   7
ATOM      7  C   UNL     1       7.669   7.074  17.725  0.00  0.00    +0.000 C 
ATOM      8  O   UNL     1       6.936   7.127  16.736  0.00  0.00    +0.000 OA
ATOM      9  N   UNL     1       8.262   8.195  18.243  0.00  0.00    +0.000 N 
ATOM     10  H   UNL     1       8.963   8.138  18.963  0.00  0.00    +0.000 HD
BRANCH   9  11
ATOM     11  C   UNL     1       7.987   9.514  17.708  0.00  0.00    +0.000 C 
BRANCH  11  12
ATOM     12  C   UNL     1       8.817  10.577  18.378  0.00  0.00    +0.000 A 
ATOM     13  C   UNL     1       9.448  10.318  19.603  0.00  0.00    +0.000 A 
ATOM     14  C   UNL     1      10.241  11.293  20.212  0.00  0.00    +0.000 A 
ATOM     15  C   UNL     1      10.421  12.537  19.606  0.00  0.00    +0.000 A 
ATOM     16  C   UNL     1       9.760  12.820  18.411  0.00  0.00    +0.000 A 
ATOM     17  C   UNL     1       8.965  11.845  17.798  0.00  0.00    +0.000 A 
BRANCH  15  18
ATOM     18  O   UNL     1      11.231  13.410  20.279  0.00  0.00    +0.000 OA
ATOM     19  C   UNL     1      10.556  14.503  20.896  0.00  0.00    +0.000 C 
ENDBRANCH  15  18
ENDBRANCH  11  12
ENDBRANCH   9  11
ENDBRANCH   4   7
BRANCH   1  20
ATOM     20  S   UNL     1       3.647   4.543  17.924  0.00  0.00    +0.000 S 
ATOM     21  O   UNL     1       3.050   3.217  17.918  0.00  0.00    +0.000 OA
ATOM     22  O   UNL     1       3.564   5.414  16.776  0.00  0.00    +0.000 OA
BRANCH  20  29
ATOM     23  C   UNL     1       2.481   6.798  19.239  0.00  0.00    +0.000 A 
ATOM     24  C   UNL     1       1.865   6.995  20.477  0.00  0.00    +0.000 A 
ATOM     25  C   UNL     1       1.238   8.201  21.089  0.00  0.00    +0.000 C 
ATOM     26  N   UNL     1       1.874   5.806  21.163  0.00  0.00    +0.000 N 
ATOM     27  C   UNL     1       2.432   4.820  20.393  0.00  0.00    +0.000 A 
ATOM     28  C   UNL     1       2.478   3.407  20.852  0.00  0.00    +0.000 C 
ATOM     29  C   UNL     1       2.867   5.418  19.207  0.00  0.00    +0.000 A 
ATOM     30  H   UNL     1       1.477   5.667  22.084  0.00  0.00    +0.000 HD
BRANCH  23  31
ATOM     31  C   UNL     1       2.598   7.846  18.217  0.00  0.00    +0.000 C 
ATOM     32  O   UNL     1       3.656   8.301  17.804  0.00  0.00    +0.000 OA
BRANCH  31  33
ATOM     33  O   UNL     1       1.358   8.292  17.854  0.00  0.00    +0.000 OA
BRANCH  33  35
ATOM     34  C   UNL     1      -0.442   9.949  17.934  0.00  0.00    +0.000 C 
ATOM     35  C   UNL     1       1.052   9.697  17.909  0.00  0.00    +0.000 C 
ENDBRANCH  33  35
ENDBRANCH  31  33
ENDBRANCH  23  31
ENDBRANCH  20  29
ENDBRANCH   1  20
TORSDOF 9
ENDMDL
MODEL 2
REMARK VINA RESULT:      -7.8      1.557      3.945
REMARK  Name = 
REMARK  13 active torsions:
REMARK  status: ('A' for Active; 'I' for Inactive)
REMARK    1  A    between atoms: C_1  and  C_2
REMARK    2  A    between atoms: C_2  and  O_3
REMARK    3  A    between atoms: O_3  and  C_4
REMARK    4  A    between atoms: C_4  and  C_6
REMARK    5  A    between atoms: C_7  and  C_8
REMARK    6  A    between atoms: C_10  and  C_11
REMARK    7  A    between atoms: C_12  and  S_13
REMARK    8  A    between atoms: S_13  and  N_16
REMARK    9  A    between atoms: C_19  and  C_20
REMARK   10  A    between atoms: N_22  and  C_23
REMARK   11  A    between atoms: C_23  and  C_24
REMARK   12  A    between atoms: C_27  and  O_28
REMARK   13  A    between atoms: O_28  and  C_29
REMARK                            x       y       z     vdW  Elec       q    Type
REMARK                         _______ _______ _______ _____ _____    ______ ____
ROOT
ATOM      1  N   UNL     1       5.428   4.818  18.049  0.00  0.00    +0.000 NA
ATOM      2  C   UNL     1       6.191   5.111  16.800  0.00  0.00    +0.000 C 
ATOM      3  C   UNL     1       7.696   5.222  17.007  0.00  0.00    +0.000 C 
ATOM      4  C   UNL     1       8.042   6.206  18.128  0.00  0.00    +0.000 C 
ATOM      5  C   UNL     1       7.404   5.678  19.405  0.00  0.00    +0.000 C 
ATOM      6  C   UNL     1       5.894   5.496  19.297  0.00  0.00    +0.000 C 
ENDROOT
BRANCH   4   7
ATOM      7  C   UNL     1       7.711   7.635  17.676  0.00  0.00    +0.000 C 
ATOM      8  O   UNL     1       6.835   7.827  16.831  0.00  0.00    +0.000 OA
ATOM      9  N   UNL     1       8.422   8.670  18.225  0.00  0.00    +0.000 N 
ATOM     10  H   UNL     1       9.224   8.510  18.811  0.00  0.00    +0.000 HD
BRANCH   9  11
ATOM     11  C   UNL     1       8.117  10.051  17.907  0.00  0.00    +0.000 C 
BRANCH  11  12
ATOM     12  C   UNL     1       9.130  11.000  18.492  0.00  0.00    +0.000 A 
ATOM     13  C   UNL     1       9.517  12.148  17.788  0.00  0.00    +0.000 A 
ATOM     14  C   UNL     1      10.436  13.044  18.340  0.00  0.00    +0.000 A 
ATOM     15  C   UNL     1      10.974  12.810  19.606  0.00  0.00    +0.000 A 
ATOM     16  C   UNL     1      10.629  11.648  20.295  0.00  0.00    +0.000 A 
ATOM     17  C   UNL     1       9.710  10.749  19.744  0.00  0.00    +0.000 A 
BRANCH  15  18
ATOM     18  O   UNL     1      11.849  13.760  20.060  0.00  0.00    +0.000 OA
ATOM     19  C   UNL     1      12.333  14.655  19.064  0.00  0.00    +0.000 C 
ENDBRANCH  15  18
ENDBRANCH  11  12
ENDBRANCH   9  11
ENDBRANCH   4   7
BRANCH   1  20
ATOM     20  S   UNL     1       3.713   5.063  17.831  0.00  0.00    +0.000 S 
ATOM     21  O   UNL     1       3.288   4.150  16.783  0.00  0.00    +0.000 OA
ATOM     22  O   UNL     1       3.482   6.485  17.734  0.00  0.00    +0.000 OA
BRANCH  20  29
ATOM     23  C   UNL     1       2.875   3.288  19.910  0.00  0.00    +0.000 A 
ATOM     24  C   UNL     1       2.075   3.425  21.046  0.00  0.00    +0.000 A 
ATOM     25  C   UNL     1       1.708   2.458  22.120  0.00  0.00    +0.000 C 
ATOM     26  N   UNL     1       1.610   4.716  21.100  0.00  0.00    +0.000 N 
ATOM     27  C   UNL     1       2.122   5.446  20.060  0.00  0.00    +0.000 A 
ATOM     28  C   UNL     1       1.862   6.904  19.932  0.00  0.00    +0.000 C 
ATOM     29  C   UNL     1       2.875   4.571  19.271  0.00  0.00    +0.000 A 
ATOM     30  H   UNL     1       1.018   5.087  21.833  0.00  0.00    +0.000 HD
BRANCH  23  31
ATOM     31  C   UNL     1       3.588   2.051  19.565  0.00  0.00    +0.000 C 
ATOM     32  O   UNL     1       3.179   1.208  18.777  0.00  0.00    +0.000 OA
BRANCH  31  33
ATOM     33  O   UNL     1       4.729   1.940  20.308  0.00  0.00    +0.000 OA
BRANCH  33  35
ATOM     34  C   UNL     1       5.813   0.539  21.997  0.00  0.00    +0.000 C 
ATOM     35  C   UNL     1       5.291   0.644  20.578  0.00  0.00    +0.000 C 
ENDBRANCH  33  35
ENDBRANCH  31  33
ENDBRANCH  23  31
ENDBRANCH  20  29
ENDBRANCH   1  20
TORSDOF 9
ENDMDL
MODEL 3
REMARK VINA RESULT:      -7.8      1.592      3.038
REMARK  Name = 
REMARK  13 active torsions:
REMARK  status: ('A' for Active; 'I' for Inactive)
REMARK    1  A    between atoms: C_1  and  C_2
REMARK    2  A    between atoms: C_2  and  O_3
REMARK    3  A    between atoms: O_3  and  C_4
REMARK    4  A    between atoms: C_4  and  C_6
REMARK    5  A    between atoms: C_7  and  C_8
REMARK    6  A    between atoms: C_10  and  C_11
REMARK    7  A    between atoms: C_12  and  S_13
REMARK    8  A    between atoms: S_13  and  N_16
REMARK    9  A    between atoms: C_19  and  C_20
REMARK   10  A    between atoms: N_22  and  C_23
REMARK   11  A    between atoms: C_23  and  C_24
REMARK   12  A    between atoms: C_27  and  O_28
REMARK   13  A    between atoms: O_28  and  C_29
REMARK                            x       y       z     vdW  Elec       q    Type
REMARK                         _______ _______ _______ _____ _____    ______ ____
ROOT
ATOM      1  N   UNL     1       5.411   4.274  18.198  0.00  0.00    +0.000 NA
ATOM      2  C   UNL     1       6.433   4.347  17.112  0.00  0.00    +0.000 C 
ATOM      3  C   UNL     1       7.864   4.467  17.618  0.00  0.00    +0.000 C 
ATOM      4  C   UNL     1       8.016   5.615  18.619  0.00  0.00    +0.000 C 
ATOM      5  C   UNL     1       7.099   5.311  19.795  0.00  0.00    +0.000 C 
ATOM      6  C   UNL     1       5.639   5.138  19.396  0.00  0.00    +0.000 C 
ENDROOT
BRANCH   4   7
ATOM      7  C   UNL     1       7.860   6.957  17.891  0.00  0.00    +0.000 C 
ATOM      8  O   UNL     1       7.361   6.991  16.764  0.00  0.00    +0.000 OA
ATOM      9  N   UNL     1       8.299   8.092  18.519  0.00  0.00    +0.000 N 
ATOM     10  H   UNL     1       8.826   8.053  19.376  0.00  0.00    +0.000 HD
BRANCH   9  11
ATOM     11  C   UNL     1       8.116   9.404  17.929  0.00  0.00    +0.000 C 
BRANCH  11  12
ATOM     12  C   UNL     1       9.104  10.405  18.468  0.00  0.00    +0.000 A 
ATOM     13  C   UNL     1       9.215  10.620  19.849  0.00  0.00    +0.000 A 
ATOM     14  C   UNL     1      10.149  11.528  20.353  0.00  0.00    +0.000 A 
ATOM     15  C   UNL     1      10.989  12.229  19.487  0.00  0.00    +0.000 A 
ATOM     16  C   UNL     1      10.855  12.056  18.110  0.00  0.00    +0.000 A 
ATOM     17  C   UNL     1       9.920  11.147  17.603  0.00  0.00    +0.000 A 
BRANCH  15  18
ATOM     18  O   UNL     1      11.879  13.078  20.087  0.00  0.00    +0.000 OA
ATOM     19  C   UNL     1      11.460  14.438  20.155  0.00  0.00    +0.000 C 
ENDBRANCH  15  18
ENDBRANCH  11  12
ENDBRANCH   9  11
ENDBRANCH   4   7
BRANCH   1  20
ATOM     20  S   UNL     1       3.794   4.506  17.580  0.00  0.00    +0.000 S 
ATOM     21  O   UNL     1       3.045   3.302  17.900  0.00  0.00    +0.000 OA
ATOM     22  O   UNL     1       3.908   4.989  16.225  0.00  0.00    +0.000 OA
BRANCH  20  29
ATOM     23  C   UNL     1       2.174   5.718  19.601  0.00  0.00    +0.000 A 
ATOM     24  C   UNL     1       1.853   7.035  19.934  0.00  0.00    +0.000 A 
ATOM     25  C   UNL     1       1.024   7.603  21.036  0.00  0.00    +0.000 C 
ATOM     26  N   UNL     1       2.472   7.875  19.042  0.00  0.00    +0.000 N 
ATOM     27  C   UNL     1       3.233   7.151  18.162  0.00  0.00    +0.000 A 
ATOM     28  C   UNL     1       4.093   7.816  17.148  0.00  0.00    +0.000 C 
ATOM     29  C   UNL     1       3.028   5.799  18.453  0.00  0.00    +0.000 A 
ATOM     30  H   UNL     1       2.417   8.886  19.065  0.00  0.00    +0.000 HD
BRANCH  23  31
ATOM     31  C   UNL     1       1.729   4.554  20.379  0.00  0.00    +0.000 C 
ATOM     32  O   UNL     1       0.572   4.160  20.443  0.00  0.00    +0.000 OA
BRANCH  31  33
ATOM     33  O   UNL     1       2.777   4.027  21.080  0.00  0.00    +0.000 OA
BRANCH  33  35
ATOM     34  C   UNL     1       4.196   2.043  20.877  0.00  0.00    +0.000 C 
ATOM     35  C   UNL     1       2.855   2.608  21.302  0.00  0.00    +0.000 C 
ENDBRANCH  33  35
ENDBRANCH  31  33
ENDBRANCH  23  31
ENDBRANCH  20  29
ENDBRANCH   1  20
TORSDOF 9
ENDMDL
MODEL 4
REMARK VINA RESULT:      -7.2      2.966      5.682
REMARK  Name = 
REMARK  13 active torsions:
REMARK  status: ('A' for Active; 'I' for Inactive)
REMARK    1  A    between atoms: C_1  and  C_2
REMARK    2  A    between atoms: C_2  and  O_3
REMARK    3  A    between atoms: O_3  and  C_4
REMARK    4  A    between atoms: C_4  and  C_6
REMARK    5  A    between atoms: C_7  and  C_8
REMARK    6  A    between atoms: C_10  and  C_11
REMARK    7  A    between atoms: C_12  and  S_13
REMARK    8  A    between atoms: S_13  and  N_16
REMARK    9  A    between atoms: C_19  and  C_20
REMARK   10  A    between atoms: N_22  and  C_23
REMARK   11  A    between atoms: C_23  and  C_24
REMARK   12  A    between atoms: C_27  and  O_28
REMARK   13  A    between atoms: O_28  and  C_29
REMARK                            x       y       z     vdW  Elec       q    Type
REMARK                         _______ _______ _______ _____ _____    ______ ____
ROOT
ATOM      1  N   UNL     1       1.319   5.476  19.548  0.00  0.00    +0.000 NA
ATOM      2  C   UNL     1       1.726   5.110  18.159  0.00  0.00    +0.000 C 
ATOM      3  C   UNL     1       1.223   3.745  17.708  0.00  0.00    +0.000 C 
ATOM      4  C   UNL     1       1.584   2.648  18.713  0.00  0.00    +0.000 C 
ATOM      5  C   UNL     1       0.919   3.009  20.033  0.00  0.00    +0.000 C 
ATOM      6  C   UNL     1       1.328   4.378  20.563  0.00  0.00    +0.000 C 
ENDROOT
BRANCH   4   7
ATOM      7  C   UNL     1       3.101   2.413  18.693  0.00  0.00    +0.000 C 
ATOM      8  O   UNL     1       3.548   1.309  18.376  0.00  0.00    +0.000 OA
ATOM      9  N   UNL     1       3.924   3.450  19.046  0.00  0.00    +0.000 N 
ATOM     10  H   UNL     1       3.562   4.306  19.432  0.00  0.00    +0.000 HD
BRANCH   9  11
ATOM     11  C   UNL     1       5.367   3.329  18.978  0.00  0.00    +0.000 C 
BRANCH  11  12
ATOM     12  C   UNL     1       6.011   4.573  18.424  0.00  0.00    +0.000 A 
ATOM     13  C   UNL     1       6.991   5.252  19.159  0.00  0.00    +0.000 A 
ATOM     14  C   UNL     1       7.609   6.390  18.635  0.00  0.00    +0.000 A 
ATOM     15  C   UNL     1       7.262   6.861  17.369  0.00  0.00    +0.000 A 
ATOM     16  C   UNL     1       6.255   6.219  16.649  0.00  0.00    +0.000 A 
ATOM     17  C   UNL     1       5.635   5.079  17.172  0.00  0.00    +0.000 A 
BRANCH  15  18
ATOM     18  O   UNL     1       7.942   7.971  16.945  0.00  0.00    +0.000 OA
ATOM     19  C   UNL     1       8.135   8.973  17.938  0.00  0.00    +0.000 C 
ENDBRANCH  15  18
ENDBRANCH  11  12
ENDBRANCH   9  11
ENDBRANCH   4   7
BRANCH   1  20
ATOM     20  S   UNL     1       2.211   6.856  20.140  0.00  0.00    +0.000 S 
ATOM     21  O   UNL     1       3.601   6.651  19.765  0.00  0.00    +0.000 OA
ATOM     22  O   UNL     1       1.823   7.073  21.512  0.00  0.00    +0.000 OA
BRANCH  20  29
ATOM     23  C   UNL     1       0.737   9.269  19.716  0.00  0.00    +0.000 A 
ATOM     24  C   UNL     1       0.700  10.223  18.697  0.00  0.00    +0.000 A 
ATOM     25  C   UNL     1      -0.072  11.491  18.557  0.00  0.00    +0.000 C 
ATOM     26  N   UNL     1       1.574   9.842  17.709  0.00  0.00    +0.000 N 
ATOM     27  C   UNL     1       2.224   8.692  18.071  0.00  0.00    +0.000 A 
ATOM     28  C   UNL     1       3.303   8.110  17.230  0.00  0.00    +0.000 C 
ATOM     29  C   UNL     1       1.687   8.282  19.295  0.00  0.00    +0.000 A 
ATOM     30  H   UNL     1       1.752  10.366  16.861  0.00  0.00    +0.000 HD
BRANCH  23  31
ATOM     31  C   UNL     1      -0.032   9.384  20.961  0.00  0.00    +0.000 C 
ATOM     32  O   UNL     1      -0.945   8.636  21.287  0.00  0.00    +0.000 OA
BRANCH  31  33
ATOM     33  O   UNL     1       0.364  10.489  21.661  0.00  0.00    +0.000 OA
BRANCH  33  35
ATOM     34  C   UNL     1      -1.300  11.454  23.176  0.00  0.00    +0.000 C 
ATOM     35  C   UNL     1      -0.551  11.580  21.864  0.00  0.00    +0.000 C 
ENDBRANCH  33  35
ENDBRANCH  31  33
ENDBRANCH  23  31
ENDBRANCH  20  29
ENDBRANCH   1  20
TORSDOF 9
ENDMDL
MODEL 5
REMARK VINA RESULT:      -7.2      1.113      1.269
REMARK  Name = 
REMARK  13 active torsions:
REMARK  status: ('A' for Active; 'I' for Inactive)
REMARK    1  A    between atoms: C_1  and  C_2
REMARK    2  A    between atoms: C_2  and  O_3
REMARK    3  A    between atoms: O_3  and  C_4
REMARK    4  A    between atoms: C_4  and  C_6
REMARK    5  A    between atoms: C_7  and  C_8
REMARK    6  A    between atoms: C_10  and  C_11
REMARK    7  A    between atoms: C_12  and  S_13
REMARK    8  A    between atoms: S_13  and  N_16
REMARK    9  A    between atoms: C_19  and  C_20
REMARK   10  A    between atoms: N_22  and  C_23
REMARK   11  A    between atoms: C_23  and  C_24
REMARK   12  A    between atoms: C_27  and  O_28
REMARK   13  A    between atoms: O_28  and  C_29
REMARK                            x       y       z     vdW  Elec       q    Type
REMARK                         _______ _______ _______ _____ _____    ______ ____
ROOT
ATOM      1  N   UNL     1       4.668   5.050  18.294  0.00  0.00    +0.000 NA
ATOM      2  C   UNL     1       5.511   4.741  17.101  0.00  0.00    +0.000 C 
ATOM      3  C   UNL     1       6.960   4.416  17.437  0.00  0.00    +0.000 C 
ATOM      4  C   UNL     1       7.594   5.496  18.317  0.00  0.00    +0.000 C 
ATOM      5  C   UNL     1       6.789   5.558  19.607  0.00  0.00    +0.000 C 
ATOM      6  C   UNL     1       5.309   5.847  19.384  0.00  0.00    +0.000 C 
ENDROOT
BRANCH   4   7
ATOM      7  C   UNL     1       7.775   6.783  17.499  0.00  0.00    +0.000 C 
ATOM      8  O   UNL     1       7.725   6.742  16.269  0.00  0.00    +0.000 OA
ATOM      9  N   UNL     1       8.002   7.954  18.173  0.00  0.00    +0.000 N 
ATOM     10  H   UNL     1       8.177   7.969  19.164  0.00  0.00    +0.000 HD
BRANCH   9  11
ATOM     11  C   UNL     1       8.107   9.221  17.477  0.00  0.00    +0.000 C 
BRANCH  11  12
ATOM     12  C   UNL     1       8.750  10.282  18.332  0.00  0.00    +0.000 A 
ATOM     13  C   UNL     1       9.179   9.981  19.632  0.00  0.00    +0.000 A 
ATOM     14  C   UNL     1       9.800  10.956  20.417  0.00  0.00    +0.000 A 
ATOM     15  C   UNL     1      10.007  12.240  19.913  0.00  0.00    +0.000 A 
ATOM     16  C   UNL     1       9.542  12.561  18.638  0.00  0.00    +0.000 A 
ATOM     17  C   UNL     1       8.919  11.587  17.850  0.00  0.00    +0.000 A 
BRANCH  15  18
ATOM     18  O   UNL     1      10.640  13.110  20.758  0.00  0.00    +0.000 OA
ATOM     19  C   UNL     1       9.789  13.772  21.689  0.00  0.00    +0.000 C 
ENDBRANCH  15  18
ENDBRANCH  11  12
ENDBRANCH   9  11
ENDBRANCH   4   7
BRANCH   1  20
ATOM     20  S   UNL     1       3.141   5.764  17.838  0.00  0.00    +0.000 S 
ATOM     21  O   UNL     1       2.252   4.668  17.489  0.00  0.00    +0.000 OA
ATOM     22  O   UNL     1       3.417   6.837  16.914  0.00  0.00    +0.000 OA
BRANCH  20  29
ATOM     23  C   UNL     1       1.911   7.869  19.333  0.00  0.00    +0.000 A 
ATOM     24  C   UNL     1       1.431   7.987  20.639  0.00  0.00    +0.000 A 
ATOM     25  C   UNL     1       0.760   9.113  21.349  0.00  0.00    +0.000 C 
ATOM     26  N   UNL     1       1.648   6.798  21.293  0.00  0.00    +0.000 N 
ATOM     27  C   UNL     1       2.210   5.885  20.440  0.00  0.00    +0.000 A 
ATOM     28  C   UNL     1       2.459   4.481  20.858  0.00  0.00    +0.000 C 
ATOM     29  C   UNL     1       2.434   6.539  19.224  0.00  0.00    +0.000 A 
ATOM     30  H   UNL     1       1.381   6.609  22.251  0.00  0.00    +0.000 HD
BRANCH  23  31
ATOM     31  C   UNL     1       1.793   8.933  18.328  0.00  0.00    +0.000 C 
ATOM     32  O   UNL     1       1.269   8.799  17.230  0.00  0.00    +0.000 OA
BRANCH  31  33
ATOM     33  O   UNL     1       2.421  10.066  18.764  0.00  0.00    +0.000 OA
BRANCH  33  35
ATOM     34  C   UNL     1       1.709  12.267  19.564  0.00  0.00    +0.000 C 
ATOM     35  C   UNL     1       1.930  11.359  18.370  0.00  0.00    +0.000 C 
ENDBRANCH  33  35
ENDBRANCH  31  33
ENDBRANCH  23  31
ENDBRANCH  20  29
ENDBRANCH   1  20
TORSDOF 9
ENDMDL
MODEL 6
REMARK VINA RESULT:      -7.0      5.260      9.665
REMARK  Name = 
REMARK  13 active torsions:
REMARK  status: ('A' for Active; 'I' for Inactive)
REMARK    1  A    between atoms: C_1  and  C_2
REMARK    2  A    between atoms: C_2  and  O_3
REMARK    3  A    between atoms: O_3  and  C_4
REMARK    4  A    between atoms: C_4  and  C_6
REMARK    5  A    between atoms: C_7  and  C_8
REMARK    6  A    between atoms: C_10  and  C_11
REMARK    7  A    between atoms: C_12  and  S_13
REMARK    8  A    between atoms: S_13  and  N_16
REMARK    9  A    between atoms: C_19  and  C_20
REMARK   10  A    between atoms: N_22  and  C_23
REMARK   11  A    between atoms: C_23  and  C_24
REMARK   12  A    between atoms: C_27  and  O_28
REMARK   13  A    between atoms: O_28  and  C_29
REMARK                            x       y       z     vdW  Elec       q    Type
REMARK                         _______ _______ _______ _____ _____    ______ ____
ROOT
ATOM      1  N   UNL     1       0.392  12.504  20.182  0.00  0.00    +0.000 NA
ATOM      2  C   UNL     1       0.131  12.306  18.726  0.00  0.00    +0.000 C 
ATOM      3  C   UNL     1      -0.659  11.043  18.406  0.00  0.00    +0.000 C 
ATOM      4  C   UNL     1      -0.027   9.804  19.043  0.00  0.00    +0.000 C 
ATOM      5  C   UNL     1      -0.028  10.020  20.549  0.00  0.00    +0.000 C 
ATOM      6  C   UNL     1       0.711  11.281  20.981  0.00  0.00    +0.000 C 
ENDROOT
BRANCH   4   7
ATOM      7  C   UNL     1       1.304   9.490  18.346  0.00  0.00    +0.000 C 
ATOM      8  O   UNL     1       1.830  10.332  17.616  0.00  0.00    +0.000 OA
ATOM      9  N   UNL     1       1.868   8.258  18.548  0.00  0.00    +0.000 N 
ATOM     10  H   UNL     1       1.378   7.524  19.032  0.00  0.00    +0.000 HD
BRANCH   9  11
ATOM     11  C   UNL     1       3.160   7.915  17.986  0.00  0.00    +0.000 C 
BRANCH  11  12
ATOM     12  C   UNL     1       3.327   6.426  17.828  0.00  0.00    +0.000 A 
ATOM     13  C   UNL     1       4.557   5.889  17.425  0.00  0.00    +0.000 A 
ATOM     14  C   UNL     1       4.722   4.507  17.304  0.00  0.00    +0.000 A 
ATOM     15  C   UNL     1       3.665   3.642  17.591  0.00  0.00    +0.000 A 
ATOM     16  C   UNL     1       2.425   4.170  17.948  0.00  0.00    +0.000 A 
ATOM     17  C   UNL     1       2.256   5.553  18.070  0.00  0.00    +0.000 A 
BRANCH  15  18
ATOM     18  O   UNL     1       3.941   2.309  17.458  0.00  0.00    +0.000 OA
ATOM     19  C   UNL     1       3.495   1.493  18.537  0.00  0.00    +0.000 C 
ENDBRANCH  15  18
ENDBRANCH  11  12
ENDBRANCH   9  11
ENDBRANCH   4   7
BRANCH   1  20
ATOM     20  S   UNL     1       1.593  13.741  20.461  0.00  0.00    +0.000 S 
ATOM     21  O   UNL     1       2.802  13.314  19.776  0.00  0.00    +0.000 OA
ATOM     22  O   UNL     1       1.590  14.045  21.871  0.00  0.00    +0.000 OA
BRANCH  20  29
ATOM     23  C   UNL     1       1.835  16.049  18.790  0.00  0.00    +0.000 A 
ATOM     24  C   UNL     1       0.972  17.084  18.425  0.00  0.00    +0.000 A 
ATOM     25  C   UNL     1       1.153  18.246  17.509  0.00  0.00    +0.000 C 
ATOM     26  N   UNL     1      -0.230  16.895  19.061  0.00  0.00    +0.000 N 
ATOM     27  C   UNL     1      -0.201  15.737  19.793  0.00  0.00    +0.000 A 
ATOM     28  C   UNL     1      -1.406  15.236  20.504  0.00  0.00    +0.000 C 
ATOM     29  C   UNL     1       1.090  15.213  19.685  0.00  0.00    +0.000 A 
ATOM     30  H   UNL     1      -1.039  17.496  18.960  0.00  0.00    +0.000 HD
BRANCH  23  31
ATOM     31  C   UNL     1       3.193  15.899  18.252  0.00  0.00    +0.000 C 
ATOM     32  O   UNL     1       3.455  15.511  17.121  0.00  0.00    +0.000 OA
BRANCH  31  33
ATOM     33  O   UNL     1       4.117  16.179  19.218  0.00  0.00    +0.000 OA
BRANCH  33  35
ATOM     34  C   UNL     1       6.349  17.125  18.877  0.00  0.00    +0.000 C 
ATOM     35  C   UNL     1       5.505  15.871  18.999  0.00  0.00    +0.000 C 
ENDBRANCH  33  35
ENDBRANCH  31  33
ENDBRANCH  23  31
ENDBRANCH  20  29
ENDBRANCH   1  20
TORSDOF 9
ENDMDL
MODEL 7
REMARK VINA RESULT:      -7.0      4.646      6.649
REMARK  Name = 
REMARK  13 active torsions:
REMARK  status: ('A' for Active; 'I' for Inactive)
REMARK    1  A    between atoms: C_1  and  C_2
REMARK    2  A    between atoms: C_2  and  O_3
REMARK    3  A    between atoms: O_3  and  C_4
REMARK    4  A    between atoms: C_4  and  C_6
REMARK    5  A    between atoms: C_7  and  C_8
REMARK    6  A    between atoms: C_10  and  C_11
REMARK    7  A    between atoms: C_12  and  S_13
REMARK    8  A    between atoms: S_13  and  N_16
REMARK    9  A    between atoms: C_19  and  C_20
REMARK   10  A    between atoms: N_22  and  C_23
REMARK   11  A    between atoms: C_23  and  C_24
REMARK   12  A    between atoms: C_27  and  O_28
REMARK   13  A    between atoms: O_28  and  C_29
REMARK                            x       y       z     vdW  Elec       q    Type
REMARK                         _______ _______ _______ _____ _____    ______ ____
ROOT
ATOM      1  N   UNL     1       1.338   5.510  19.535  0.00  0.00    +0.000 NA
ATOM      2  C   UNL     1       1.714   5.182  18.128  0.00  0.00    +0.000 C 
ATOM      3  C   UNL     1       1.242   3.810  17.666  0.00  0.00    +0.000 C 
ATOM      4  C   UNL     1       1.667   2.708  18.640  0.00  0.00    +0.000 C 
ATOM      5  C   UNL     1       1.031   3.024  19.985  0.00  0.00    +0.000 C 
ATOM      6  C   UNL     1       1.412   4.396  20.528  0.00  0.00    +0.000 C 
ENDROOT
BRANCH   4   7
ATOM      7  C   UNL     1       3.189   2.522  18.571  0.00  0.00    +0.000 C 
ATOM      8  O   UNL     1       3.665   1.395  18.423  0.00  0.00    +0.000 OA
ATOM      9  N   UNL     1       3.985   3.630  18.690  0.00  0.00    +0.000 N 
ATOM     10  H   UNL     1       3.608   4.528  18.943  0.00  0.00    +0.000 HD
BRANCH   9  11
ATOM     11  C   UNL     1       5.427   3.546  18.558  0.00  0.00    +0.000 C 
BRANCH  11  12
ATOM     12  C   UNL     1       5.898   4.024  17.210  0.00  0.00    +0.000 A 
ATOM     13  C   UNL     1       7.161   4.613  17.068  0.00  0.00    +0.000 A 
ATOM     14  C   UNL     1       7.612   5.032  15.813  0.00  0.00    +0.000 A 
ATOM     15  C   UNL     1       6.810   4.863  14.684  0.00  0.00    +0.000 A 
ATOM     16  C   UNL     1       5.533   4.321  14.823  0.00  0.00    +0.000 A 
ATOM     17  C   UNL     1       5.080   3.901  16.078  0.00  0.00    +0.000 A 
BRANCH  15  18
ATOM     18  O   UNL     1       7.355   5.292  13.504  0.00  0.00    +0.000 OA
ATOM     19  C   UNL     1       7.112   4.443  12.386  0.00  0.00    +0.000 C 
ENDBRANCH  15  18
ENDBRANCH  11  12
ENDBRANCH   9  11
ENDBRANCH   4   7
BRANCH   1  20
ATOM     20  S   UNL     1       2.203   6.908  20.125  0.00  0.00    +0.000 S 
ATOM     21  O   UNL     1       3.541   6.844  19.560  0.00  0.00    +0.000 OA
ATOM     22  O   UNL     1       1.988   6.987  21.550  0.00  0.00    +0.000 OA
BRANCH  20  29
ATOM     23  C   UNL     1       0.464   9.177  20.071  0.00  0.00    +0.000 A 
ATOM     24  C   UNL     1       0.252  10.222  19.169  0.00  0.00    +0.000 A 
ATOM     25  C   UNL     1      -0.653  11.405  19.222  0.00  0.00    +0.000 C 
ATOM     26  N   UNL     1       1.081  10.043  18.090  0.00  0.00    +0.000 N 
ATOM     27  C   UNL     1       1.871   8.939  18.278  0.00  0.00    +0.000 A 
ATOM     28  C   UNL     1       2.934   8.569  17.308  0.00  0.00    +0.000 C 
ATOM     29  C   UNL     1       1.474   8.348  19.481  0.00  0.00    +0.000 A 
ATOM     30  H   UNL     1       1.139  10.668  17.295  0.00  0.00    +0.000 HD
BRANCH  23  31
ATOM     31  C   UNL     1      -0.214   9.077  21.369  0.00  0.00    +0.000 C 
ATOM     32  O   UNL     1      -0.944   8.154  21.704  0.00  0.00    +0.000 OA
BRANCH  31  33
ATOM     33  O   UNL     1       0.023  10.198  22.114  0.00  0.00    +0.000 OA
BRANCH  33  35
ATOM     34  C   UNL     1      -1.738  11.767  22.768  0.00  0.00    +0.000 C 
ATOM     35  C   UNL     1      -0.888  10.575  23.161  0.00  0.00    +0.000 C 
ENDBRANCH  33  35
ENDBRANCH  31  33
ENDBRANCH  23  31
ENDBRANCH  20  29
ENDBRANCH   1  20
TORSDOF 9
ENDMDL
MODEL 8
REMARK VINA RESULT:      -6.9      5.607      9.561
REMARK  Name = 
REMARK  13 active torsions:
REMARK  status: ('A' for Active; 'I' for Inactive)
REMARK    1  A    between atoms: C_1  and  C_2
REMARK    2  A    between atoms: C_2  and  O_3
REMARK    3  A    between atoms: O_3  and  C_4
REMARK    4  A    between atoms: C_4  and  C_6
REMARK    5  A    between atoms: C_7  and  C_8
REMARK    6  A    between atoms: C_10  and  C_11
REMARK    7  A    between atoms: C_12  and  S_13
REMARK    8  A    between atoms: S_13  and  N_16
REMARK    9  A    between atoms: C_19  and  C_20
REMARK   10  A    between atoms: N_22  and  C_23
REMARK   11  A    between atoms: C_23  and  C_24
REMARK   12  A    between atoms: C_27  and  O_28
REMARK   13  A    between atoms: O_28  and  C_29
REMARK                            x       y       z     vdW  Elec       q    Type
REMARK                         _______ _______ _______ _____ _____    ______ ____
ROOT
ATOM      1  N   UNL     1      -1.299  11.413  19.165  0.00  0.00    +0.000 NA
ATOM      2  C   UNL     1      -0.850  10.181  19.879  0.00  0.00    +0.000 C 
ATOM      3  C   UNL     1       0.515  10.314  20.542  0.00  0.00    +0.000 C 
ATOM      4  C   UNL     1       1.574  10.819  19.560  0.00  0.00    +0.000 C 
ATOM      5  C   UNL     1       1.124  12.190  19.076  0.00  0.00    +0.000 C 
ATOM      6  C   UNL     1      -0.252  12.179  18.421  0.00  0.00    +0.000 C 
ENDROOT
BRANCH   4   7
ATOM      7  C   UNL     1       1.870   9.731  18.518  0.00  0.00    +0.000 C 
ATOM      8  O   UNL     1       1.937  10.025  17.323  0.00  0.00    +0.000 OA
ATOM      9  N   UNL     1       2.041   8.444  18.955  0.00  0.00    +0.000 N 
ATOM     10  H   UNL     1       1.856   8.179  19.908  0.00  0.00    +0.000 HD
BRANCH   9  11
ATOM     11  C   UNL     1       2.398   7.375  18.043  0.00  0.00    +0.000 C 
BRANCH  11  12
ATOM     12  C   UNL     1       2.184   6.016  18.656  0.00  0.00    +0.000 A 
ATOM     13  C   UNL     1       2.172   5.861  20.049  0.00  0.00    +0.000 A 
ATOM     14  C   UNL     1       1.947   4.606  20.621  0.00  0.00    +0.000 A 
ATOM     15  C   UNL     1       1.723   3.492  19.811  0.00  0.00    +0.000 A 
ATOM     16  C   UNL     1       1.779   3.629  18.424  0.00  0.00    +0.000 A 
ATOM     17  C   UNL     1       2.005   4.884  17.849  0.00  0.00    +0.000 A 
BRANCH  15  18
ATOM     18  O   UNL     1       1.495   2.317  20.474  0.00  0.00    +0.000 OA
ATOM     19  C   UNL     1       1.659   2.383  21.887  0.00  0.00    +0.000 C 
ENDBRANCH  15  18
ENDBRANCH  11  12
ENDBRANCH   9  11
ENDBRANCH   4   7
BRANCH   1  20
ATOM     20  S   UNL     1      -2.670  11.097  18.131  0.00  0.00    +0.000 S 
ATOM     21  O   UNL     1      -2.967   9.679  18.248  0.00  0.00    +0.000 OA
ATOM     22  O   UNL     1      -2.405  11.711  16.852  0.00  0.00    +0.000 OA
BRANCH  20  29
ATOM     23  C   UNL     1      -4.183  12.685  19.966  0.00  0.00    +0.000 A 
ATOM     24  C   UNL     1      -5.487  13.184  19.978  0.00  0.00    +0.000 A 
ATOM     25  C   UNL     1      -6.206  14.047  20.959  0.00  0.00    +0.000 C 
ATOM     26  N   UNL     1      -6.126  12.765  18.838  0.00  0.00    +0.000 N 
ATOM     27  C   UNL     1      -5.266  12.047  18.050  0.00  0.00    +0.000 A 
ATOM     28  C   UNL     1      -5.668  11.557  16.706  0.00  0.00    +0.000 C 
ATOM     29  C   UNL     1      -4.060  11.936  18.749  0.00  0.00    +0.000 A 
ATOM     30  H   UNL     1      -7.080  12.999  18.591  0.00  0.00    +0.000 HD
BRANCH  23  31
ATOM     31  C   UNL     1      -3.191  12.984  21.007  0.00  0.00    +0.000 C 
ATOM     32  O   UNL     1      -2.262  13.770  20.878  0.00  0.00    +0.000 OA
BRANCH  31  33
ATOM     33  O   UNL     1      -3.408  12.201  22.105  0.00  0.00    +0.000 OA
BRANCH  33  35
ATOM     34  C   UNL     1      -1.456  11.249  23.235  0.00  0.00    +0.000 C 
ATOM     35  C   UNL     1      -2.543  12.307  23.249  0.00  0.00    +0.000 C 
ENDBRANCH  33  35
ENDBRANCH  31  33
ENDBRANCH  23  31
ENDBRANCH  20  29
ENDBRANCH   1  20
TORSDOF 9
ENDMDL
MODEL 9
REMARK VINA RESULT:      -6.9      5.973     10.433
REMARK  Name = 
REMARK  13 active torsions:
REMARK  status: ('A' for Active; 'I' for Inactive)
REMARK    1  A    between atoms: C_1  and  C_2
REMARK    2  A    between atoms: C_2  and  O_3
REMARK    3  A    between atoms: O_3  and  C_4
REMARK    4  A    between atoms: C_4  and  C_6
REMARK    5  A    between atoms: C_7  and  C_8
REMARK    6  A    between atoms: C_10  and  C_11
REMARK    7  A    between atoms: C_12  and  S_13
REMARK    8  A    between atoms: S_13  and  N_16
REMARK    9  A    between atoms: C_19  and  C_20
REMARK   10  A    between atoms: N_22  and  C_23
REMARK   11  A    between atoms: C_23  and  C_24
REMARK   12  A    between atoms: C_27  and  O_28
REMARK   13  A    between atoms: O_28  and  C_29
REMARK                            x       y       z     vdW  Elec       q    Type
REMARK                         _______ _______ _______ _____ _____    ______ ____
ROOT
ATOM      1  N   UNL     1      -0.928  12.725  19.913  0.00  0.00    +0.000 NA
ATOM      2  C   UNL     1       0.529  12.455  20.086  0.00  0.00    +0.000 C 
ATOM      3  C   UNL     1       1.163  11.710  18.918  0.00  0.00    +0.000 C 
ATOM      4  C   UNL     1       0.386  10.437  18.571  0.00  0.00    +0.000 C 
ATOM      5  C   UNL     1      -1.023  10.860  18.183  0.00  0.00    +0.000 C 
ATOM      6  C   UNL     1      -1.742  11.646  19.273  0.00  0.00    +0.000 C 
ENDROOT
BRANCH   4   7
ATOM      7  C   UNL     1       0.563   9.406  19.694  0.00  0.00    +0.000 C 
ATOM      8  O   UNL     1      -0.254   9.353  20.615  0.00  0.00    +0.000 OA
ATOM      9  N   UNL     1       1.648   8.571  19.643  0.00  0.00    +0.000 N 
ATOM     10  H   UNL     1       2.384   8.699  18.970  0.00  0.00    +0.000 HD
BRANCH   9  11
ATOM     11  C   UNL     1       1.842   7.521  20.624  0.00  0.00    +0.000 C 
BRANCH  11  12
ATOM     12  C   UNL     1       1.939   6.162  19.982  0.00  0.00    +0.000 A 
ATOM     13  C   UNL     1       1.482   5.023  20.659  0.00  0.00    +0.000 A 
ATOM     14  C   UNL     1       1.545   3.765  20.054  0.00  0.00    +0.000 A 
ATOM     15  C   UNL     1       2.059   3.628  18.765  0.00  0.00    +0.000 A 
ATOM     16  C   UNL     1       2.558   4.748  18.101  0.00  0.00    +0.000 A 
ATOM     17  C   UNL     1       2.496   6.009  18.704  0.00  0.00    +0.000 A 
BRANCH  15  18
ATOM     18  O   UNL     1       2.057   2.355  18.261  0.00  0.00    +0.000 OA
ATOM     19  C   UNL     1       3.346   1.771  18.100  0.00  0.00    +0.000 C 
ENDBRANCH  15  18
ENDBRANCH  11  12
ENDBRANCH   9  11
ENDBRANCH   4   7
BRANCH   1  20
ATOM     20  S   UNL     1      -1.672  13.239  21.407  0.00  0.00    +0.000 S 
ATOM     21  O   UNL     1      -0.693  14.057  22.104  0.00  0.00    +0.000 OA
ATOM     22  O   UNL     1      -2.264  12.078  22.025  0.00  0.00    +0.000 OA
BRANCH  20  29
ATOM     23  C   UNL     1      -4.414  14.003  21.134  0.00  0.00    +0.000 A 
ATOM     24  C   UNL     1      -5.067  15.184  20.775  0.00  0.00    +0.000 A 
ATOM     25  C   UNL     1      -6.515  15.527  20.690  0.00  0.00    +0.000 C 
ATOM     26  N   UNL     1      -4.120  16.135  20.485  0.00  0.00    +0.000 N 
ATOM     27  C   UNL     1      -2.863  15.631  20.693  0.00  0.00    +0.000 A 
ATOM     28  C   UNL     1      -1.651  16.480  20.552  0.00  0.00    +0.000 C 
ATOM     29  C   UNL     1      -3.011  14.287  21.050  0.00  0.00    +0.000 A 
ATOM     30  H   UNL     1      -4.324  17.088  20.209  0.00  0.00    +0.000 HD
BRANCH  23  31
ATOM     31  C   UNL     1      -5.117  12.788  21.565  0.00  0.00    +0.000 C 
ATOM     32  O   UNL     1      -5.377  12.509  22.727  0.00  0.00    +0.000 OA
BRANCH  31  33
ATOM     33  O   UNL     1      -5.366  11.981  20.490  0.00  0.00    +0.000 OA
BRANCH  33  35
ATOM     34  C   UNL     1      -7.396  10.614  20.415  0.00  0.00    +0.000 C 
ATOM     35  C   UNL     1      -6.699  11.881  19.958  0.00  0.00    +0.000 C 
ENDBRANCH  33  35
ENDBRANCH  31  33
ENDBRANCH  23  31
ENDBRANCH  20  29
ENDBRANCH   1  20
TORSDOF 9
ENDMDL
