MODEL 1
REMARK VINA RESULT:      -7.7      0.000      0.000
REMARK  Name = 
REMARK  3 active torsions:
REMARK  status: ('A' for Active; 'I' for Inactive)
REMARK    1  A    between atoms: C_1  and  C_2
REMARK    2  A    between atoms: C_5  and  C_6
REMARK    3  A    between atoms: C_14  and  N_15
REMARK                            x       y       z     vdW  Elec       q    Type
REMARK                         _______ _______ _______ _____ _____    ______ ____
ROOT
ATOM      1  C   UNL     1       6.563   4.972  16.079  0.00  0.00    +0.000 A 
ATOM      2  C   UNL     1       7.494   4.603  17.048  0.00  0.00    +0.000 A 
ATOM      3  C   UNL     1       7.216   4.903  18.365  0.00  0.00    +0.000 A 
ATOM      4  N   UNL     1       6.083   5.512  18.768  0.00  0.00    +0.000 NA
ATOM      5  C   UNL     1       5.166   5.859  17.838  0.00  0.00    +0.000 A 
ATOM      6  N   UNL     1       3.903   6.324  18.232  0.00  0.00    +0.000 N 
ATOM      7  C   UNL     1       3.633   6.097  19.651  0.00  0.00    +0.000 C 
ATOM      8  C   UNL     1       2.135   6.224  19.885  0.00  0.00    +0.000 C 
ATOM      9  C   UNL     1       1.546   7.560  19.403  0.00  0.00    +0.000 C 
ATOM     10  C   UNL     1       2.057   7.903  17.985  0.00  0.00    +0.000 C 
ATOM     11  C   UNL     1       3.549   7.665  17.755  0.00  0.00    +0.000 C 
ATOM     12  C   UNL     1       5.396   5.623  16.487  0.00  0.00    +0.000 A 
ENDROOT
BRANCH   1  17
ATOM     13  C   UNL     1       6.484   3.057  11.560  0.00  0.00    +0.000 C 
ATOM     14  C   UNL     1       6.817   3.885  12.732  0.00  0.00    +0.000 A 
ATOM     15  N   UNL     1       7.661   4.921  12.671  0.00  0.00    +0.000 NA
ATOM     16  O   UNL     1       7.647   5.416  13.977  0.00  0.00    +0.000 OA
ATOM     17  C   UNL     1       6.786   4.623  14.686  0.00  0.00    +0.000 A 
ATOM     18  N   UNL     1       6.259   3.658  13.965  0.00  0.00    +0.000 NA
ENDBRANCH   1  17
BRANCH   9  19
ATOM     19  N   UNL     1       1.583   8.700  20.344  0.00  0.00    +0.000 NA
ATOM     20  C   UNL     1       1.192   8.483  21.734  0.00  0.00    +0.000 C 
ATOM     21  C   UNL     1      -0.242   8.958  21.843  0.00  0.00    +0.000 C 
ATOM     22  C   UNL     1      -0.284  10.138  20.898  0.00  0.00    +0.000 C 
ATOM     23  C   UNL     1       0.804   9.858  19.867  0.00  0.00    +0.000 C 
ENDBRANCH   9  19
TORSDOF 2
ENDMDL
MODEL 2
REMARK VINA RESULT:      -7.4      3.015      3.686
REMARK  Name = 
REMARK  3 active torsions:
REMARK  status: ('A' for Active; 'I' for Inactive)
REMARK    1  A    between atoms: C_1  and  C_2
REMARK    2  A    between atoms: C_5  and  C_6
REMARK    3  A    between atoms: C_14  and  N_15
REMARK                            x       y       z     vdW  Elec       q    Type
REMARK                         _______ _______ _______ _____ _____    ______ ____
ROOT
ATOM      1  C   UNL     1       6.872   4.684  15.807  0.00  0.00    +0.000 A 
ATOM      2  C   UNL     1       7.820   4.978  16.786  0.00  0.00    +0.000 A 
ATOM      3  C   UNL     1       7.484   4.759  18.105  0.00  0.00    +0.000 A 
ATOM      4  N   UNL     1       6.297   4.253  18.497  0.00  0.00    +0.000 NA
ATOM      5  C   UNL     1       5.378   3.947  17.555  0.00  0.00    +0.000 A 
ATOM      6  N   UNL     1       4.211   3.253  17.907  0.00  0.00    +0.000 N 
ATOM      7  C   UNL     1       4.277   2.680  19.251  0.00  0.00    +0.000 C 
ATOM      8  C   UNL     1       3.197   1.616  19.376  0.00  0.00    +0.000 C 
ATOM      9  C   UNL     1       1.785   2.128  19.048  0.00  0.00    +0.000 C 
ATOM     10  C   UNL     1       1.793   2.956  17.742  0.00  0.00    +0.000 C 
ATOM     11  C   UNL     1       2.953   3.942  17.604  0.00  0.00    +0.000 C 
ATOM     12  C   UNL     1       5.633   4.179  16.208  0.00  0.00    +0.000 A 
ENDROOT
BRANCH   1  17
ATOM     13  C   UNL     1       7.076   4.587  10.904  0.00  0.00    +0.000 C 
ATOM     14  C   UNL     1       7.367   4.875  12.319  0.00  0.00    +0.000 A 
ATOM     15  N   UNL     1       8.315   5.737  12.704  0.00  0.00    +0.000 NA
ATOM     16  O   UNL     1       8.214   5.716  14.096  0.00  0.00    +0.000 OA
ATOM     17  C   UNL     1       7.205   4.843  14.401  0.00  0.00    +0.000 A 
ATOM     18  N   UNL     1       6.661   4.290  13.339  0.00  0.00    +0.000 NA
ENDBRANCH   1  17
BRANCH   9  19
ATOM     19  N   UNL     1       1.013   2.749  20.145  0.00  0.00    +0.000 NA
ATOM     20  C   UNL     1       0.757   4.186  20.106  0.00  0.00    +0.000 C 
ATOM     21  C   UNL     1       1.792   4.818  21.015  0.00  0.00    +0.000 C 
ATOM     22  C   UNL     1       1.948   3.796  22.118  0.00  0.00    +0.000 C 
ATOM     23  C   UNL     1       1.582   2.462  21.475  0.00  0.00    +0.000 C 
ENDBRANCH   9  19
TORSDOF 2
ENDMDL
MODEL 3
REMARK VINA RESULT:      -7.3      3.648      8.884
REMARK  Name = 
REMARK  3 active torsions:
REMARK  status: ('A' for Active; 'I' for Inactive)
REMARK    1  A    between atoms: C_1  and  C_2
REMARK    2  A    between atoms: C_5  and  C_6
REMARK    3  A    between atoms: C_14  and  N_15
REMARK                            x       y       z     vdW  Elec       q    Type
REMARK                         _______ _______ _______ _____ _____    ______ ____
ROOT
ATOM      1  C   UNL     1       0.850   9.838  20.223  0.00  0.00    +0.000 A 
ATOM      2  C   UNL     1       1.135  10.602  19.093  0.00  0.00    +0.000 A 
ATOM      3  C   UNL     1       1.809   9.999  18.052  0.00  0.00    +0.000 A 
ATOM      4  N   UNL     1       2.186   8.705  18.059  0.00  0.00    +0.000 NA
ATOM      5  C   UNL     1       1.900   7.950  19.143  0.00  0.00    +0.000 A 
ATOM      6  N   UNL     1       2.111   6.564  19.113  0.00  0.00    +0.000 N 
ATOM      7  C   UNL     1       2.358   6.057  17.764  0.00  0.00    +0.000 C 
ATOM      8  C   UNL     1       2.144   4.551  17.766  0.00  0.00    +0.000 C 
ATOM      9  C   UNL     1       2.992   3.810  18.812  0.00  0.00    +0.000 C 
ATOM     10  C   UNL     1       2.916   4.521  20.183  0.00  0.00    +0.000 C 
ATOM     11  C   UNL     1       3.030   6.045  20.131  0.00  0.00    +0.000 C 
ATOM     12  C   UNL     1       1.257   8.501  20.246  0.00  0.00    +0.000 A 
ENDROOT
BRANCH   1  17
ATOM     13  C   UNL     1      -2.366  12.189  23.090  0.00  0.00    +0.000 C 
ATOM     14  C   UNL     1      -1.236  11.367  22.621  0.00  0.00    +0.000 A 
ATOM     15  N   UNL     1      -0.453  10.670  23.452  0.00  0.00    +0.000 NA
ATOM     16  O   UNL     1       0.438  10.035  22.586  0.00  0.00    +0.000 OA
ATOM     17  C   UNL     1       0.089  10.415  21.319  0.00  0.00    +0.000 A 
ATOM     18  N   UNL     1      -0.930  11.246  21.290  0.00  0.00    +0.000 NA
ENDBRANCH   1  17
BRANCH   9  19
ATOM     19  N   UNL     1       4.360   3.409  18.421  0.00  0.00    +0.000 NA
ATOM     20  C   UNL     1       5.497   4.146  18.967  0.00  0.00    +0.000 C 
ATOM     21  C   UNL     1       5.910   5.130  17.892  0.00  0.00    +0.000 C 
ATOM     22  C   UNL     1       5.653   4.367  16.612  0.00  0.00    +0.000 C 
ATOM     23  C   UNL     1       4.548   3.375  16.958  0.00  0.00    +0.000 C 
ENDBRANCH   9  19
TORSDOF 2
ENDMDL
MODEL 4
REMARK VINA RESULT:      -6.8      3.724      8.065
REMARK  Name = 
REMARK  3 active torsions:
REMARK  status: ('A' for Active; 'I' for Inactive)
REMARK    1  A    between atoms: C_1  and  C_2
REMARK    2  A    between atoms: C_5  and  C_6
REMARK    3  A    between atoms: C_14  and  N_15
REMARK                            x       y       z     vdW  Elec       q    Type
REMARK                         _______ _______ _______ _____ _____    ______ ____
ROOT
ATOM      1  C   UNL     1       0.994  10.030  19.805  0.00  0.00    +0.000 A 
ATOM      2  C   UNL     1       0.335   9.713  20.991  0.00  0.00    +0.000 A 
ATOM      3  C   UNL     1       0.459   8.430  21.482  0.00  0.00    +0.000 A 
ATOM      4  N   UNL     1       1.202   7.474  20.889  0.00  0.00    +0.000 NA
ATOM      5  C   UNL     1       1.858   7.776  19.747  0.00  0.00    +0.000 A 
ATOM      6  N   UNL     1       2.781   6.870  19.204  0.00  0.00    +0.000 N 
ATOM      7  C   UNL     1       3.135   5.797  20.132  0.00  0.00    +0.000 C 
ATOM      8  C   UNL     1       4.419   5.141  19.646  0.00  0.00    +0.000 C 
ATOM      9  C   UNL     1       4.341   4.633  18.196  0.00  0.00    +0.000 C 
ATOM     10  C   UNL     1       3.720   5.707  17.273  0.00  0.00    +0.000 C 
ATOM     11  C   UNL     1       2.492   6.419  17.839  0.00  0.00    +0.000 C 
ATOM     12  C   UNL     1       1.748   9.038  19.173  0.00  0.00    +0.000 A 
ENDROOT
BRANCH   1  17
ATOM     13  C   UNL     1      -0.095  14.689  18.707  0.00  0.00    +0.000 C 
ATOM     14  C   UNL     1       0.569  13.375  18.766  0.00  0.00    +0.000 A 
ATOM     15  N   UNL     1       1.747  13.130  18.180  0.00  0.00    +0.000 NA
ATOM     16  O   UNL     1       1.997  11.799  18.519  0.00  0.00    +0.000 OA
ATOM     17  C   UNL     1       0.940  11.385  19.283  0.00  0.00    +0.000 A 
ATOM     18  N   UNL     1       0.028  12.318  19.452  0.00  0.00    +0.000 NA
ENDBRANCH   1  17
BRANCH   9  19
ATOM     19  N   UNL     1       3.805   3.274  17.978  0.00  0.00    +0.000 NA
ATOM     20  C   UNL     1       2.516   3.119  17.310  0.00  0.00    +0.000 C 
ATOM     21  C   UNL     1       1.499   2.909  18.413  0.00  0.00    +0.000 C 
ATOM     22  C   UNL     1       2.267   2.107  19.438  0.00  0.00    +0.000 C 
ATOM     23  C   UNL     1       3.729   2.485  19.222  0.00  0.00    +0.000 C 
ENDBRANCH   9  19
TORSDOF 2
ENDMDL
MODEL 5
REMARK VINA RESULT:      -6.8      2.907      3.695
REMARK  Name = 
REMARK  3 active torsions:
REMARK  status: ('A' for Active; 'I' for Inactive)
REMARK    1  A    between atoms: C_1  and  C_2
REMARK    2  A    between atoms: C_5  and  C_6
REMARK    3  A    between atoms: C_14  and  N_15
REMARK                            x       y       z     vdW  Elec       q    Type
REMARK                         _______ _______ _______ _____ _____    ______ ____
ROOT
ATOM      1  C   UNL     1       6.334   4.444  14.936  0.00  0.00    +0.000 A 
ATOM      2  C   UNL     1       6.987   5.552  15.472  0.00  0.00    +0.000 A 
ATOM      3  C   UNL     1       6.706   5.907  16.775  0.00  0.00    +0.000 A 
ATOM      4  N   UNL     1       5.852   5.227  17.565  0.00  0.00    +0.000 NA
ATOM      5  C   UNL     1       5.225   4.141  17.061  0.00  0.00    +0.000 A 
ATOM      6  N   UNL     1       4.476   3.306  17.901  0.00  0.00    +0.000 N 
ATOM      7  C   UNL     1       4.710   3.572  19.320  0.00  0.00    +0.000 C 
ATOM      8  C   UNL     1       4.217   2.378  20.124  0.00  0.00    +0.000 C 
ATOM      9  C   UNL     1       2.748   2.015  19.852  0.00  0.00    +0.000 C 
ATOM     10  C   UNL     1       2.463   1.992  18.332  0.00  0.00    +0.000 C 
ATOM     11  C   UNL     1       3.063   3.153  17.540  0.00  0.00    +0.000 C 
ATOM     12  C   UNL     1       5.431   3.747  15.743  0.00  0.00    +0.000 A 
ENDROOT
BRANCH   1  17
ATOM     13  C   UNL     1       6.754   2.047  10.674  0.00  0.00    +0.000 C 
ATOM     14  C   UNL     1       6.866   3.064  11.734  0.00  0.00    +0.000 A 
ATOM     15  N   UNL     1       7.430   4.261  11.533  0.00  0.00    +0.000 NA
ATOM     16  O   UNL     1       7.287   4.888  12.772  0.00  0.00    +0.000 OA
ATOM     17  C   UNL     1       6.644   3.998  13.588  0.00  0.00    +0.000 A 
ATOM     18  N   UNL     1       6.375   2.854  12.997  0.00  0.00    +0.000 NA
ENDBRANCH   1  17
BRANCH   9  19
ATOM     19  N   UNL     1       1.715   2.716  20.644  0.00  0.00    +0.000 NA
ATOM     20  C   UNL     1       0.662   3.448  19.945  0.00  0.00    +0.000 C 
ATOM     21  C   UNL     1       1.087   4.902  19.959  0.00  0.00    +0.000 C 
ATOM     22  C   UNL     1       1.772   5.046  21.299  0.00  0.00    +0.000 C 
ATOM     23  C   UNL     1       2.290   3.650  21.630  0.00  0.00    +0.000 C 
ENDBRANCH   9  19
TORSDOF 2
ENDMDL
MODEL 6
REMARK VINA RESULT:      -6.7      2.517      8.285
REMARK  Name = 
REMARK  3 active torsions:
REMARK  status: ('A' for Active; 'I' for Inactive)
REMARK    1  A    between atoms: C_1  and  C_2
REMARK    2  A    between atoms: C_5  and  C_6
REMARK    3  A    between atoms: C_14  and  N_15
REMARK                            x       y       z     vdW  Elec       q    Type
REMARK                         _______ _______ _______ _____ _____    ______ ____
ROOT
ATOM      1  C   UNL     1       1.829   6.933  20.391  0.00  0.00    +0.000 A 
ATOM      2  C   UNL     1       1.453   5.718  20.963  0.00  0.00    +0.000 A 
ATOM      3  C   UNL     1       2.173   4.591  20.628  0.00  0.00    +0.000 A 
ATOM      4  N   UNL     1       3.234   4.603  19.796  0.00  0.00    +0.000 NA
ATOM      5  C   UNL     1       3.617   5.778  19.249  0.00  0.00    +0.000 A 
ATOM      6  N   UNL     1       4.817   5.863  18.530  0.00  0.00    +0.000 N 
ATOM      7  C   UNL     1       5.671   4.690  18.712  0.00  0.00    +0.000 C 
ATOM      8  C   UNL     1       7.083   5.046  18.271  0.00  0.00    +0.000 C 
ATOM      9  C   UNL     1       7.162   5.586  16.834  0.00  0.00    +0.000 C 
ATOM     10  C   UNL     1       6.071   6.654  16.589  0.00  0.00    +0.000 C 
ATOM     11  C   UNL     1       4.687   6.307  17.138  0.00  0.00    +0.000 C 
ATOM     12  C   UNL     1       2.914   6.950  19.511  0.00  0.00    +0.000 A 
ENDROOT
BRANCH   1  17
ATOM     13  C   UNL     1      -0.564  10.571  22.655  0.00  0.00    +0.000 C 
ATOM     14  C   UNL     1       0.136   9.764  21.641  0.00  0.00    +0.000 A 
ATOM     15  N   UNL     1       0.449  10.237  20.428  0.00  0.00    +0.000 NA
ATOM     16  O   UNL     1       1.116   9.163  19.835  0.00  0.00    +0.000 OA
ATOM     17  C   UNL     1       1.137   8.156  20.762  0.00  0.00    +0.000 A 
ATOM     18  N   UNL     1       0.534   8.475  21.886  0.00  0.00    +0.000 NA
ENDBRANCH   1  17
BRANCH   9  19
ATOM     19  N   UNL     1       7.290   4.599  15.741  0.00  0.00    +0.000 NA
ATOM     20  C   UNL     1       7.429   5.076  14.368  0.00  0.00    +0.000 C 
ATOM     21  C   UNL     1       6.048   4.981  13.752  0.00  0.00    +0.000 C 
ATOM     22  C   UNL     1       5.473   3.738  14.393  0.00  0.00    +0.000 C 
ATOM     23  C   UNL     1       6.191   3.614  15.732  0.00  0.00    +0.000 C 
ENDBRANCH   9  19
TORSDOF 2
ENDMDL
MODEL 7
REMARK VINA RESULT:      -6.7      4.018      6.121
REMARK  Name = 
REMARK  3 active torsions:
REMARK  status: ('A' for Active; 'I' for Inactive)
REMARK    1  A    between atoms: C_1  and  C_2
REMARK    2  A    between atoms: C_5  and  C_6
REMARK    3  A    between atoms: C_14  and  N_15
REMARK                            x       y       z     vdW  Elec       q    Type
REMARK                         _______ _______ _______ _____ _____    ______ ____
ROOT
ATOM      1  C   UNL     1       2.593   7.092  19.027  0.00  0.00    +0.000 A 
ATOM      2  C   UNL     1       2.664   7.678  17.765  0.00  0.00    +0.000 A 
ATOM      3  C   UNL     1       2.004   8.872  17.563  0.00  0.00    +0.000 A 
ATOM      4  N   UNL     1       1.314   9.514  18.527  0.00  0.00    +0.000 NA
ATOM      5  C   UNL     1       1.253   8.963  19.760  0.00  0.00    +0.000 A 
ATOM      6  N   UNL     1       0.705   9.685  20.829  0.00  0.00    +0.000 N 
ATOM      7  C   UNL     1       0.520  11.102  20.520  0.00  0.00    +0.000 C 
ATOM      8  C   UNL     1       0.343  11.863  21.825  0.00  0.00    +0.000 C 
ATOM      9  C   UNL     1      -0.797  11.322  22.705  0.00  0.00    +0.000 C 
ATOM     10  C   UNL     1      -0.725   9.781  22.806  0.00  0.00    +0.000 C 
ATOM     11  C   UNL     1      -0.443   9.055  21.491  0.00  0.00    +0.000 C 
ATOM     12  C   UNL     1       1.862   7.741  20.025  0.00  0.00    +0.000 A 
ENDROOT
BRANCH   1  17
ATOM     13  C   UNL     1       4.026   2.526  20.118  0.00  0.00    +0.000 C 
ATOM     14  C   UNL     1       4.030   3.948  19.734  0.00  0.00    +0.000 A 
ATOM     15  N   UNL     1       5.135   4.590  19.340  0.00  0.00    +0.000 NA
ATOM     16  O   UNL     1       4.669   5.874  19.053  0.00  0.00    +0.000 OA
ATOM     17  C   UNL     1       3.323   5.865  19.301  0.00  0.00    +0.000 A 
ATOM     18  N   UNL     1       2.885   4.704  19.736  0.00  0.00    +0.000 NA
ENDBRANCH   1  17
BRANCH   9  19
ATOM     19  N   UNL     1      -2.157  11.844  22.454  0.00  0.00    +0.000 NA
ATOM     20  C   UNL     1      -2.315  13.053  21.652  0.00  0.00    +0.000 C 
ATOM     21  C   UNL     1      -2.498  14.187  22.640  0.00  0.00    +0.000 C 
ATOM     22  C   UNL     1      -3.284  13.543  23.759  0.00  0.00    +0.000 C 
ATOM     23  C   UNL     1      -2.921  12.063  23.697  0.00  0.00    +0.000 C 
ENDBRANCH   9  19
TORSDOF 2
ENDMDL
MODEL 8
REMARK VINA RESULT:      -6.6      7.264      9.125
REMARK  Name = 
REMARK  3 active torsions:
REMARK  status: ('A' for Active; 'I' for Inactive)
REMARK    1  A    between atoms: C_1  and  C_2
REMARK    2  A    between atoms: C_5  and  C_6
REMARK    3  A    between atoms: C_14  and  N_15
REMARK                            x       y       z     vdW  Elec       q    Type
REMARK                         _______ _______ _______ _____ _____    ______ ____
ROOT
ATOM      1  C   UNL     1      -3.611  10.665  15.795  0.00  0.00    +0.000 A 
ATOM      2  C   UNL     1      -4.756  11.236  16.348  0.00  0.00    +0.000 A 
ATOM      3  C   UNL     1      -4.686  11.712  17.640  0.00  0.00    +0.000 A 
ATOM      4  N   UNL     1      -3.565  11.678  18.388  0.00  0.00    +0.000 NA
ATOM      5  C   UNL     1      -2.445  11.143  17.854  0.00  0.00    +0.000 A 
ATOM      6  N   UNL     1      -1.220  11.254  18.528  0.00  0.00    +0.000 N 
ATOM      7  C   UNL     1      -1.263  12.218  19.627  0.00  0.00    +0.000 C 
ATOM      8  C   UNL     1       0.164  12.588  20.003  0.00  0.00    +0.000 C 
ATOM      9  C   UNL     1       1.044  11.375  20.348  0.00  0.00    +0.000 C 
ATOM     10  C   UNL     1       0.874  10.257  19.294  0.00  0.00    +0.000 C 
ATOM     11  C   UNL     1      -0.567   9.985  18.862  0.00  0.00    +0.000 C 
ATOM     12  C   UNL     1      -2.451  10.607  16.571  0.00  0.00    +0.000 A 
ENDROOT
BRANCH   1  17
ATOM     13  C   UNL     1      -4.722   9.451  11.170  0.00  0.00    +0.000 C 
ATOM     14  C   UNL     1      -3.993   9.671  12.431  0.00  0.00    +0.000 A 
ATOM     15  N   UNL     1      -2.673   9.485  12.547  0.00  0.00    +0.000 NA
ATOM     16  O   UNL     1      -2.421   9.837  13.875  0.00  0.00    +0.000 OA
ATOM     17  C   UNL     1      -3.622  10.205  14.416  0.00  0.00    +0.000 A 
ATOM     18  N   UNL     1      -4.623  10.107  13.569  0.00  0.00    +0.000 NA
ENDBRANCH   1  17
BRANCH   9  19
ATOM     19  N   UNL     1       1.019  10.890  21.744  0.00  0.00    +0.000 NA
ATOM     20  C   UNL     1       1.159   9.459  22.000  0.00  0.00    +0.000 C 
ATOM     21  C   UNL     1      -0.245   8.935  22.216  0.00  0.00    +0.000 C 
ATOM     22  C   UNL     1      -0.932  10.080  22.926  0.00  0.00    +0.000 C 
ATOM     23  C   UNL     1      -0.182  11.330  22.479  0.00  0.00    +0.000 C 
ENDBRANCH   9  19
TORSDOF 2
ENDMDL
MODEL 9
REMARK VINA RESULT:      -6.5      4.759      7.080
REMARK  Name = 
REMARK  3 active torsions:
REMARK  status: ('A' for Active; 'I' for Inactive)
REMARK    1  A    between atoms: C_1  and  C_2
REMARK    2  A    between atoms: C_5  and  C_6
REMARK    3  A    between atoms: C_14  and  N_15
REMARK                            x       y       z     vdW  Elec       q    Type
REMARK                         _______ _______ _______ _____ _____    ______ ____
ROOT
ATOM      1  C   UNL     1       1.933   7.624  19.466  0.00  0.00    +0.000 A 
ATOM      2  C   UNL     1       2.253   8.007  18.165  0.00  0.00    +0.000 A 
ATOM      3  C   UNL     1       1.932   9.288  17.767  0.00  0.00    +0.000 A 
ATOM      4  N   UNL     1       1.348  10.195  18.574  0.00  0.00    +0.000 NA
ATOM      5  C   UNL     1       1.049   9.839  19.843  0.00  0.00    +0.000 A 
ATOM      6  N   UNL     1       0.612  10.804  20.761  0.00  0.00    +0.000 N 
ATOM      7  C   UNL     1       0.814  12.172  20.286  0.00  0.00    +0.000 C 
ATOM      8  C   UNL     1       0.726  13.116  21.476  0.00  0.00    +0.000 C 
ATOM      9  C   UNL     1      -0.581  12.982  22.274  0.00  0.00    +0.000 C 
ATOM     10  C   UNL     1      -0.907  11.495  22.545  0.00  0.00    +0.000 C 
ATOM     11  C   UNL     1      -0.707  10.558  21.353  0.00  0.00    +0.000 C 
ATOM     12  C   UNL     1       1.308   8.552  20.302  0.00  0.00    +0.000 A 
ENDROOT
BRANCH   1  17
ATOM     13  C   UNL     1       2.176   3.199  21.577  0.00  0.00    +0.000 C 
ATOM     14  C   UNL     1       2.497   4.403  20.791  0.00  0.00    +0.000 A 
ATOM     15  N   UNL     1       3.583   4.493  20.014  0.00  0.00    +0.000 NA
ATOM     16  O   UNL     1       3.462   5.766  19.452  0.00  0.00    +0.000 OA
ATOM     17  C   UNL     1       2.307   6.304  19.949  0.00  0.00    +0.000 A 
ATOM     18  N   UNL     1       1.683   5.507  20.788  0.00  0.00    +0.000 NA
ENDBRANCH   1  17
BRANCH   9  19
ATOM     19  N   UNL     1      -1.742  13.776  21.819  0.00  0.00    +0.000 NA
ATOM     20  C   UNL     1      -1.888  15.151  22.290  0.00  0.00    +0.000 C 
ATOM     21  C   UNL     1      -2.883  15.096  23.431  0.00  0.00    +0.000 C 
ATOM     22  C   UNL     1      -3.844  14.013  22.995  0.00  0.00    +0.000 C 
ATOM     23  C   UNL     1      -3.029  13.105  22.080  0.00  0.00    +0.000 C 
ENDBRANCH   9  19
TORSDOF 2
ENDMDL
