MODEL 1
REMARK VINA RESULT:      -7.3      0.000      0.000
REMARK  Name = 
REMARK  16 active torsions:
REMARK  status: ('A' for Active; 'I' for Inactive)
REMARK    1  A    between atoms: C_1  and  C_2
REMARK    2  A    between atoms: C_2  and  O_3
REMARK    3  A    between atoms: O_3  and  C_4
REMARK    4  A    between atoms: C_4  and  C_6
REMARK    5  A    between atoms: C_7  and  N_8
REMARK    6  A    between atoms: C_9  and  C_11
REMARK    7  A    between atoms: C_11  and  O_12
REMARK    8  A    between atoms: O_12  and  C_13
REMARK    9  A    between atoms: C_13  and  C_15
REMARK   10  A    between atoms: C_15  and  C_16
REMARK   11  A    between atoms: C_16  and  O_17
REMARK   12  A    between atoms: O_17  and  C_18
REMARK   13  A    between atoms: C_23  and  C_24
REMARK   14  A    between atoms: C_26  and  C_27
REMARK   15  A    between atoms: N_29  and  C_30
REMARK   16  A    between atoms: C_31  and  C_32
REMARK                            x       y       z     vdW  Elec       q    Type
REMARK                         _______ _______ _______ _____ _____    ______ ____
ROOT
ATOM      1  N   UNL     1       6.309   7.345  17.005  0.00  0.00    +0.000 N 
ATOM      2  C   UNL     1       7.437   7.467  17.804  0.00  0.00    +0.000 C 
ATOM      3  O   UNL     1       7.845   6.604  18.580  0.00  0.00    +0.000 OA
ATOM      4  H   UNL     1       6.301   7.862  16.130  0.00  0.00    +0.000 HD
ENDROOT
BRANCH   1   6
ATOM      5  C   UNL     1       5.533   4.976  16.517  0.00  0.00    +0.000 A 
ATOM      6  C   UNL     1       5.502   6.227  17.107  0.00  0.00    +0.000 A 
ATOM      7  S   UNL     1       4.205   6.423  18.196  0.00  0.00    +0.000 S 
ATOM      8  C   UNL     1       3.496   4.922  17.763  0.00  0.00    +0.000 A 
ATOM      9  C   UNL     1       4.344   4.210  16.913  0.00  0.00    +0.000 A 
ATOM     10  C   UNL     1       4.113   2.799  16.441  0.00  0.00    +0.000 C 
BRANCH   8  11
ATOM     11  C   UNL     1       2.198   4.484  18.281  0.00  0.00    +0.000 C 
ATOM     12  O   UNL     1       1.238   4.234  17.554  0.00  0.00    +0.000 OA
ATOM     13  N   UNL     1       2.038   4.354  19.649  0.00  0.00    +0.000 N 
ATOM     14  C   UNL     1       0.767   3.939  20.218  0.00  0.00    +0.000 C 
ATOM     15  H   UNL     1       2.798   4.613  20.265  0.00  0.00    +0.000 HD
ENDBRANCH   8  11
BRANCH   5  16
ATOM     16  C   UNL     1       6.610   4.420  15.667  0.00  0.00    +0.000 C 
ATOM     17  O   UNL     1       7.793   4.698  15.844  0.00  0.00    +0.000 OA
BRANCH  16  18
ATOM     18  O   UNL     1       6.172   3.685  14.600  0.00  0.00    +0.000 OA
BRANCH  18  20
ATOM     19  C   UNL     1       5.953   3.330  12.209  0.00  0.00    +0.000 C 
ATOM     20  C   UNL     1       6.652   4.104  13.311  0.00  0.00    +0.000 C 
ENDBRANCH  18  20
ENDBRANCH  16  18
ENDBRANCH   5  16
ENDBRANCH   1   6
BRANCH   2  21
ATOM     21  C   UNL     1       8.205   8.779  17.608  0.00  0.00    +0.000 C 
BRANCH  21  22
ATOM     22  O   UNL     1       8.730   9.289  18.835  0.00  0.00    +0.000 OA
BRANCH  22  23
ATOM     23  C   UNL     1       9.114  10.592  18.856  0.00  0.00    +0.000 C 
ATOM     24  O   UNL     1       9.028  11.340  17.888  0.00  0.00    +0.000 OA
BRANCH  23  25
ATOM     25  C   UNL     1       9.643  11.017  20.219  0.00  0.00    +0.000 C 
BRANCH  25  26
ATOM     26  C   UNL     1       9.767  12.534  20.315  0.00  0.00    +0.000 C 
BRANCH  26  27
ATOM     27  O   UNL     1      11.116  13.014  20.411  0.00  0.00    +0.000 OA
BRANCH  27  28
ATOM     28  C   UNL     1      11.483  13.805  19.335  0.00  0.00    +0.000 A 
ATOM     29  C   UNL     1      11.887  13.271  18.098  0.00  0.00    +0.000 A 
ATOM     30  C   UNL     1      12.265  14.090  17.037  0.00  0.00    +0.000 A 
ATOM     31  C   UNL     1      12.214  15.466  17.184  0.00  0.00    +0.000 A 
ATOM     32  C   UNL     1      11.795  16.017  18.391  0.00  0.00    +0.000 A 
ATOM     33  C   UNL     1      11.427  15.203  19.480  0.00  0.00    +0.000 A 
ATOM     34  C   UNL     1      10.979  15.878  20.746  0.00  0.00    +0.000 C 
ENDBRANCH  27  28
ENDBRANCH  26  27
ENDBRANCH  25  26
ENDBRANCH  23  25
ENDBRANCH  22  23
ENDBRANCH  21  22
ENDBRANCH   2  21
TORSDOF 12
ENDMDL
MODEL 2
REMARK VINA RESULT:      -7.2      6.567     10.314
REMARK  Name = 
REMARK  16 active torsions:
REMARK  status: ('A' for Active; 'I' for Inactive)
REMARK    1  A    between atoms: C_1  and  C_2
REMARK    2  A    between atoms: C_2  and  O_3
REMARK    3  A    between atoms: O_3  and  C_4
REMARK    4  A    between atoms: C_4  and  C_6
REMARK    5  A    between atoms: C_7  and  N_8
REMARK    6  A    between atoms: C_9  and  C_11
REMARK    7  A    between atoms: C_11  and  O_12
REMARK    8  A    between atoms: O_12  and  C_13
REMARK    9  A    between atoms: C_13  and  C_15
REMARK   10  A    between atoms: C_15  and  C_16
REMARK   11  A    between atoms: C_16  and  O_17
REMARK   12  A    between atoms: O_17  and  C_18
REMARK   13  A    between atoms: C_23  and  C_24
REMARK   14  A    between atoms: C_26  and  C_27
REMARK   15  A    between atoms: N_29  and  C_30
REMARK   16  A    between atoms: C_31  and  C_32
REMARK                            x       y       z     vdW  Elec       q    Type
REMARK                         _______ _______ _______ _____ _____    ______ ____
ROOT
ATOM      1  N   UNL     1       0.477   9.273  18.972  0.00  0.00    +0.000 N 
ATOM      2  C   UNL     1       1.612   9.431  18.190  0.00  0.00    +0.000 C 
ATOM      3  O   UNL     1       1.885  10.441  17.542  0.00  0.00    +0.000 OA
ATOM      4  H   UNL     1       0.546   8.650  19.772  0.00  0.00    +0.000 HD
ENDROOT
BRANCH   1   6
ATOM      5  C   UNL     1      -0.656  11.410  19.748  0.00  0.00    +0.000 A 
ATOM      6  C   UNL     1      -0.492  10.259  18.998  0.00  0.00    +0.000 A 
ATOM      7  S   UNL     1      -1.739  10.016  17.860  0.00  0.00    +0.000 S 
ATOM      8  C   UNL     1      -2.672  11.320  18.470  0.00  0.00    +0.000 A 
ATOM      9  C   UNL     1      -1.947  12.033  19.427  0.00  0.00    +0.000 A 
ATOM     10  C   UNL     1      -2.396  13.316  20.074  0.00  0.00    +0.000 C 
BRANCH   8  11
ATOM     11  C   UNL     1      -4.020  11.621  17.981  0.00  0.00    +0.000 C 
ATOM     12  O   UNL     1      -4.274  11.807  16.792  0.00  0.00    +0.000 OA
ATOM     13  N   UNL     1      -5.054  11.707  18.896  0.00  0.00    +0.000 N 
ATOM     14  C   UNL     1      -6.408  12.018  18.468  0.00  0.00    +0.000 C 
ATOM     15  H   UNL     1      -4.853  11.616  19.884  0.00  0.00    +0.000 HD
ENDBRANCH   8  11
BRANCH   5  16
ATOM     16  C   UNL     1       0.319  12.005  20.690  0.00  0.00    +0.000 C 
ATOM     17  O   UNL     1       0.898  13.060  20.452  0.00  0.00    +0.000 OA
BRANCH  16  18
ATOM     18  O   UNL     1       0.614  11.223  21.773  0.00  0.00    +0.000 OA
BRANCH  18  20
ATOM     19  C   UNL     1      -0.218   9.469  23.229  0.00  0.00    +0.000 C 
ATOM     20  C   UNL     1      -0.508  10.803  22.568  0.00  0.00    +0.000 C 
ENDBRANCH  18  20
ENDBRANCH  16  18
ENDBRANCH   5  16
ENDBRANCH   1   6
BRANCH   2  21
ATOM     21  C   UNL     1       2.572   8.237  18.231  0.00  0.00    +0.000 C 
BRANCH  21  22
ATOM     22  O   UNL     1       2.476   7.503  19.454  0.00  0.00    +0.000 OA
BRANCH  22  23
ATOM     23  C   UNL     1       2.489   6.148  19.371  0.00  0.00    +0.000 C 
ATOM     24  O   UNL     1       2.453   5.409  20.348  0.00  0.00    +0.000 OA
BRANCH  23  25
ATOM     25  C   UNL     1       2.536   5.657  17.930  0.00  0.00    +0.000 C 
BRANCH  25  26
ATOM     26  C   UNL     1       2.744   4.147  17.867  0.00  0.00    +0.000 C 
BRANCH  26  27
ATOM     27  O   UNL     1       4.067   3.716  18.222  0.00  0.00    +0.000 OA
BRANCH  27  28
ATOM     28  C   UNL     1       5.030   4.142  17.322  0.00  0.00    +0.000 A 
ATOM     29  C   UNL     1       4.978   3.842  15.949  0.00  0.00    +0.000 A 
ATOM     30  C   UNL     1       5.969   4.272  15.069  0.00  0.00    +0.000 A 
ATOM     31  C   UNL     1       7.018   5.040  15.544  0.00  0.00    +0.000 A 
ATOM     32  C   UNL     1       7.078   5.369  16.895  0.00  0.00    +0.000 A 
ATOM     33  C   UNL     1       6.094   4.928  17.801  0.00  0.00    +0.000 A 
ATOM     34  C   UNL     1       6.228   5.333  19.242  0.00  0.00    +0.000 C 
ENDBRANCH  27  28
ENDBRANCH  26  27
ENDBRANCH  25  26
ENDBRANCH  23  25
ENDBRANCH  22  23
ENDBRANCH  21  22
ENDBRANCH   2  21
TORSDOF 12
ENDMDL
MODEL 3
REMARK VINA RESULT:      -7.1      7.076     11.656
REMARK  Name = 
REMARK  16 active torsions:
REMARK  status: ('A' for Active; 'I' for Inactive)
REMARK    1  A    between atoms: C_1  and  C_2
REMARK    2  A    between atoms: C_2  and  O_3
REMARK    3  A    between atoms: O_3  and  C_4
REMARK    4  A    between atoms: C_4  and  C_6
REMARK    5  A    between atoms: C_7  and  N_8
REMARK    6  A    between atoms: C_9  and  C_11
REMARK    7  A    between atoms: C_11  and  O_12
REMARK    8  A    between atoms: O_12  and  C_13
REMARK    9  A    between atoms: C_13  and  C_15
REMARK   10  A    between atoms: C_15  and  C_16
REMARK   11  A    between atoms: C_16  and  O_17
REMARK   12  A    between atoms: O_17  and  C_18
REMARK   13  A    between atoms: C_23  and  C_24
REMARK   14  A    between atoms: C_26  and  C_27
REMARK   15  A    between atoms: N_29  and  C_30
REMARK   16  A    between atoms: C_31  and  C_32
REMARK                            x       y       z     vdW  Elec       q    Type
REMARK                         _______ _______ _______ _____ _____    ______ ____
ROOT
ATOM      1  N   UNL     1       0.295  10.195  19.272  0.00  0.00    +0.000 N 
ATOM      2  C   UNL     1       0.484   9.240  20.260  0.00  0.00    +0.000 C 
ATOM      3  O   UNL     1      -0.346   8.941  21.118  0.00  0.00    +0.000 OA
ATOM      4  H   UNL     1       0.798  10.067  18.399  0.00  0.00    +0.000 HD
ENDROOT
BRANCH   1   6
ATOM      5  C   UNL     1      -1.316  12.013  20.015  0.00  0.00    +0.000 A 
ATOM      6  C   UNL     1      -0.861  10.953  19.250  0.00  0.00    +0.000 A 
ATOM      7  S   UNL     1      -1.949  10.499  18.018  0.00  0.00    +0.000 S 
ATOM      8  C   UNL     1      -3.176  11.553  18.588  0.00  0.00    +0.000 A 
ATOM      9  C   UNL     1      -2.685  12.363  19.613  0.00  0.00    +0.000 A 
ATOM     10  C   UNL     1      -3.439  13.497  20.258  0.00  0.00    +0.000 C 
BRANCH   8  11
ATOM     11  C   UNL     1      -4.521  11.583  18.008  0.00  0.00    +0.000 C 
ATOM     12  O   UNL     1      -4.743  11.944  16.854  0.00  0.00    +0.000 OA
ATOM     13  N   UNL     1      -5.592  11.197  18.794  0.00  0.00    +0.000 N 
ATOM     14  C   UNL     1      -6.949  11.223  18.274  0.00  0.00    +0.000 C 
ATOM     15  H   UNL     1      -5.435  10.954  19.764  0.00  0.00    +0.000 HD
ENDBRANCH   8  11
BRANCH   5  16
ATOM     16  C   UNL     1      -0.556  12.761  21.041  0.00  0.00    +0.000 C 
ATOM     17  O   UNL     1       0.124  13.745  20.764  0.00  0.00    +0.000 OA
BRANCH  16  18
ATOM     18  O   UNL     1      -0.567  12.193  22.285  0.00  0.00    +0.000 OA
BRANCH  18  20
ATOM     19  C   UNL     1      -2.680  11.990  23.462  0.00  0.00    +0.000 C 
ATOM     20  C   UNL     1      -1.426  12.820  23.253  0.00  0.00    +0.000 C 
ENDBRANCH  18  20
ENDBRANCH  16  18
ENDBRANCH   5  16
ENDBRANCH   1   6
BRANCH   2  21
ATOM     21  C   UNL     1       1.830   8.512  20.179  0.00  0.00    +0.000 C 
BRANCH  21  22
ATOM     22  O   UNL     1       1.902   7.626  19.059  0.00  0.00    +0.000 OA
BRANCH  22  23
ATOM     23  C   UNL     1       2.626   8.034  17.985  0.00  0.00    +0.000 C 
ATOM     24  O   UNL     1       2.372   9.045  17.341  0.00  0.00    +0.000 OA
BRANCH  23  25
ATOM     25  C   UNL     1       3.794   7.103  17.689  0.00  0.00    +0.000 C 
BRANCH  25  26
ATOM     26  C   UNL     1       3.338   5.649  17.621  0.00  0.00    +0.000 C 
BRANCH  26  27
ATOM     27  O   UNL     1       4.013   4.771  18.534  0.00  0.00    +0.000 OA
BRANCH  27  28
ATOM     28  C   UNL     1       3.142   4.097  19.374  0.00  0.00    +0.000 A 
ATOM     29  C   UNL     1       2.702   4.625  20.601  0.00  0.00    +0.000 A 
ATOM     30  C   UNL     1       1.836   3.918  21.432  0.00  0.00    +0.000 A 
ATOM     31  C   UNL     1       1.368   2.678  21.035  0.00  0.00    +0.000 A 
ATOM     32  C   UNL     1       1.772   2.145  19.814  0.00  0.00    +0.000 A 
ATOM     33  C   UNL     1       2.660   2.839  18.969  0.00  0.00    +0.000 A 
ATOM     34  C   UNL     1       3.040   2.197  17.665  0.00  0.00    +0.000 C 
ENDBRANCH  27  28
ENDBRANCH  26  27
ENDBRANCH  25  26
ENDBRANCH  23  25
ENDBRANCH  22  23
ENDBRANCH  21  22
ENDBRANCH   2  21
TORSDOF 12
ENDMDL
MODEL 4
REMARK VINA RESULT:      -7.0      6.261     10.213
REMARK  Name = 
REMARK  16 active torsions:
REMARK  status: ('A' for Active; 'I' for Inactive)
REMARK    1  A    between atoms: C_1  and  C_2
REMARK    2  A    between atoms: C_2  and  O_3
REMARK    3  A    between atoms: O_3  and  C_4
REMARK    4  A    between atoms: C_4  and  C_6
REMARK    5  A    between atoms: C_7  and  N_8
REMARK    6  A    between atoms: C_9  and  C_11
REMARK    7  A    between atoms: C_11  and  O_12
REMARK    8  A    between atoms: O_12  and  C_13
REMARK    9  A    between atoms: C_13  and  C_15
REMARK   10  A    between atoms: C_15  and  C_16
REMARK   11  A    between atoms: C_16  and  O_17
REMARK   12  A    between atoms: O_17  and  C_18
REMARK   13  A    between atoms: C_23  and  C_24
REMARK   14  A    between atoms: C_26  and  C_27
REMARK   15  A    between atoms: N_29  and  C_30
REMARK   16  A    between atoms: C_31  and  C_32
REMARK                            x       y       z     vdW  Elec       q    Type
REMARK                         _______ _______ _______ _____ _____    ______ ____
ROOT
ATOM      1  N   UNL     1       0.950   9.410  19.184  0.00  0.00    +0.000 N 
ATOM      2  C   UNL     1       1.087   8.656  20.340  0.00  0.00    +0.000 C 
ATOM      3  O   UNL     1       0.436   8.823  21.371  0.00  0.00    +0.000 OA
ATOM      4  H   UNL     1       1.171   8.956  18.303  0.00  0.00    +0.000 HD
ENDROOT
BRANCH   1   6
ATOM      5  C   UNL     1       0.207  11.807  19.580  0.00  0.00    +0.000 A 
ATOM      6  C   UNL     1       0.091  10.494  19.159  0.00  0.00    +0.000 A 
ATOM      7  S   UNL     1      -1.421  10.146  18.451  0.00  0.00    +0.000 S 
ATOM      8  C   UNL     1      -2.072  11.676  18.874  0.00  0.00    +0.000 A 
ATOM      9  C   UNL     1      -1.077  12.499  19.404  0.00  0.00    +0.000 A 
ATOM     10  C   UNL     1      -1.253  13.953  19.757  0.00  0.00    +0.000 C 
BRANCH   8  11
ATOM     11  C   UNL     1      -3.476  12.026  18.644  0.00  0.00    +0.000 C 
ATOM     12  O   UNL     1      -4.223  12.410  19.542  0.00  0.00    +0.000 OA
ATOM     13  N   UNL     1      -3.988  11.911  17.366  0.00  0.00    +0.000 N 
ATOM     14  C   UNL     1      -5.378  12.230  17.084  0.00  0.00    +0.000 C 
ATOM     15  H   UNL     1      -3.404  11.539  16.627  0.00  0.00    +0.000 HD
ENDBRANCH   8  11
BRANCH   5  16
ATOM     16  C   UNL     1       1.430  12.480  20.071  0.00  0.00    +0.000 C 
ATOM     17  O   UNL     1       1.650  12.646  21.267  0.00  0.00    +0.000 OA
BRANCH  16  18
ATOM     18  O   UNL     1       2.221  13.011  19.090  0.00  0.00    +0.000 OA
BRANCH  18  20
ATOM     19  C   UNL     1       2.472  15.337  18.442  0.00  0.00    +0.000 C 
ATOM     20  C   UNL     1       2.880  14.247  19.417  0.00  0.00    +0.000 C 
ENDBRANCH  18  20
ENDBRANCH  16  18
ENDBRANCH   5  16
ENDBRANCH   1   6
BRANCH   2  21
ATOM     21  C   UNL     1       2.106   7.516  20.227  0.00  0.00    +0.000 C 
BRANCH  21  22
ATOM     22  O   UNL     1       1.630   6.302  20.812  0.00  0.00    +0.000 OA
BRANCH  22  23
ATOM     23  C   UNL     1       1.937   5.141  20.177  0.00  0.00    +0.000 C 
ATOM     24  O   UNL     1       1.202   4.161  20.164  0.00  0.00    +0.000 OA
BRANCH  23  25
ATOM     25  C   UNL     1       3.285   5.207  19.472  0.00  0.00    +0.000 C 
BRANCH  25  26
ATOM     26  C   UNL     1       3.966   3.843  19.453  0.00  0.00    +0.000 C 
BRANCH  26  27
ATOM     27  O   UNL     1       5.382   3.889  19.222  0.00  0.00    +0.000 OA
BRANCH  27  28
ATOM     28  C   UNL     1       5.703   4.309  17.941  0.00  0.00    +0.000 A 
ATOM     29  C   UNL     1       5.001   3.883  16.800  0.00  0.00    +0.000 A 
ATOM     30  C   UNL     1       5.355   4.310  15.522  0.00  0.00    +0.000 A 
ATOM     31  C   UNL     1       6.404   5.199  15.366  0.00  0.00    +0.000 A 
ATOM     32  C   UNL     1       7.099   5.653  16.483  0.00  0.00    +0.000 A 
ATOM     33  C   UNL     1       6.765   5.218  17.780  0.00  0.00    +0.000 A 
ATOM     34  C   UNL     1       7.560   5.762  18.933  0.00  0.00    +0.000 C 
ENDBRANCH  27  28
ENDBRANCH  26  27
ENDBRANCH  25  26
ENDBRANCH  23  25
ENDBRANCH  22  23
ENDBRANCH  21  22
ENDBRANCH   2  21
TORSDOF 12
ENDMDL
MODEL 5
REMARK VINA RESULT:      -7.0      6.498     10.609
REMARK  Name = 
REMARK  16 active torsions:
REMARK  status: ('A' for Active; 'I' for Inactive)
REMARK    1  A    between atoms: C_1  and  C_2
REMARK    2  A    between atoms: C_2  and  O_3
REMARK    3  A    between atoms: O_3  and  C_4
REMARK    4  A    between atoms: C_4  and  C_6
REMARK    5  A    between atoms: C_7  and  N_8
REMARK    6  A    between atoms: C_9  and  C_11
REMARK    7  A    between atoms: C_11  and  O_12
REMARK    8  A    between atoms: O_12  and  C_13
REMARK    9  A    between atoms: C_13  and  C_15
REMARK   10  A    between atoms: C_15  and  C_16
REMARK   11  A    between atoms: C_16  and  O_17
REMARK   12  A    between atoms: O_17  and  C_18
REMARK   13  A    between atoms: C_23  and  C_24
REMARK   14  A    between atoms: C_26  and  C_27
REMARK   15  A    between atoms: N_29  and  C_30
REMARK   16  A    between atoms: C_31  and  C_32
REMARK                            x       y       z     vdW  Elec       q    Type
REMARK                         _______ _______ _______ _____ _____    ______ ____
ROOT
ATOM      1  N   UNL     1       2.364   7.389  19.238  0.00  0.00    +0.000 N 
ATOM      2  C   UNL     1       1.793   8.479  18.599  0.00  0.00    +0.000 C 
ATOM      3  O   UNL     1       1.728   8.625  17.379  0.00  0.00    +0.000 OA
ATOM      4  H   UNL     1       1.997   7.141  20.154  0.00  0.00    +0.000 HD
ENDROOT
BRANCH   1   6
ATOM      5  C   UNL     1       2.751   5.053  18.319  0.00  0.00    +0.000 A 
ATOM      6  C   UNL     1       2.994   6.402  18.502  0.00  0.00    +0.000 A 
ATOM      7  S   UNL     1       4.344   6.967  17.626  0.00  0.00    +0.000 S 
ATOM      8  C   UNL     1       4.799   5.386  17.135  0.00  0.00    +0.000 A 
ATOM      9  C   UNL     1       3.822   4.461  17.506  0.00  0.00    +0.000 A 
ATOM     10  C   UNL     1       3.818   3.004  17.123  0.00  0.00    +0.000 C 
BRANCH   8  11
ATOM     11  C   UNL     1       6.032   5.116  16.393  0.00  0.00    +0.000 C 
ATOM     12  O   UNL     1       7.111   4.906  16.945  0.00  0.00    +0.000 OA
ATOM     13  N   UNL     1       5.987   5.105  15.011  0.00  0.00    +0.000 N 
ATOM     14  C   UNL     1       7.184   4.858  14.225  0.00  0.00    +0.000 C 
ATOM     15  H   UNL     1       5.121   5.334  14.540  0.00  0.00    +0.000 HD
ENDBRANCH   8  11
BRANCH   5  16
ATOM     16  C   UNL     1       1.572   4.289  18.787  0.00  0.00    +0.000 C 
ATOM     17  O   UNL     1       0.864   3.644  18.021  0.00  0.00    +0.000 OA
BRANCH  16  18
ATOM     18  O   UNL     1       1.265   4.469  20.108  0.00  0.00    +0.000 OA
BRANCH  18  20
ATOM     19  C   UNL     1       2.500   2.817  21.388  0.00  0.00    +0.000 C 
ATOM     20  C   UNL     1       1.139   3.269  20.891  0.00  0.00    +0.000 C 
ENDBRANCH  18  20
ENDBRANCH  16  18
ENDBRANCH   5  16
ENDBRANCH   1   6
BRANCH   2  21
ATOM     21  C   UNL     1       1.171   9.508  19.550  0.00  0.00    +0.000 C 
BRANCH  21  22
ATOM     22  O   UNL     1       0.710  10.674  18.863  0.00  0.00    +0.000 OA
BRANCH  22  23
ATOM     23  C   UNL     1      -0.627  10.914  18.868  0.00  0.00    +0.000 C 
ATOM     24  O   UNL     1      -1.456  10.142  18.399  0.00  0.00    +0.000 OA
BRANCH  23  25
ATOM     25  C   UNL     1      -0.973  12.237  19.538  0.00  0.00    +0.000 C 
BRANCH  25  26
ATOM     26  C   UNL     1      -2.238  12.113  20.383  0.00  0.00    +0.000 C 
BRANCH  26  27
ATOM     27  O   UNL     1      -3.293  13.011  20.007  0.00  0.00    +0.000 OA
BRANCH  27  28
ATOM     28  C   UNL     1      -4.441  12.350  19.601  0.00  0.00    +0.000 A 
ATOM     29  C   UNL     1      -4.561  11.735  18.342  0.00  0.00    +0.000 A 
ATOM     30  C   UNL     1      -5.733  11.090  17.953  0.00  0.00    +0.000 A 
ATOM     31  C   UNL     1      -6.799  11.021  18.834  0.00  0.00    +0.000 A 
ATOM     32  C   UNL     1      -6.694  11.603  20.094  0.00  0.00    +0.000 A 
ATOM     33  C   UNL     1      -5.523  12.274  20.496  0.00  0.00    +0.000 A 
ATOM     34  C   UNL     1      -5.488  12.867  21.876  0.00  0.00    +0.000 C 
ENDBRANCH  27  28
ENDBRANCH  26  27
ENDBRANCH  25  26
ENDBRANCH  23  25
ENDBRANCH  22  23
ENDBRANCH  21  22
ENDBRANCH   2  21
TORSDOF 12
ENDMDL
MODEL 6
REMARK VINA RESULT:      -7.0      6.258     10.185
REMARK  Name = 
REMARK  16 active torsions:
REMARK  status: ('A' for Active; 'I' for Inactive)
REMARK    1  A    between atoms: C_1  and  C_2
REMARK    2  A    between atoms: C_2  and  O_3
REMARK    3  A    between atoms: O_3  and  C_4
REMARK    4  A    between atoms: C_4  and  C_6
REMARK    5  A    between atoms: C_7  and  N_8
REMARK    6  A    between atoms: C_9  and  C_11
REMARK    7  A    between atoms: C_11  and  O_12
REMARK    8  A    between atoms: O_12  and  C_13
REMARK    9  A    between atoms: C_13  and  C_15
REMARK   10  A    between atoms: C_15  and  C_16
REMARK   11  A    between atoms: C_16  and  O_17
REMARK   12  A    between atoms: O_17  and  C_18
REMARK   13  A    between atoms: C_23  and  C_24
REMARK   14  A    between atoms: C_26  and  C_27
REMARK   15  A    between atoms: N_29  and  C_30
REMARK   16  A    between atoms: C_31  and  C_32
REMARK                            x       y       z     vdW  Elec       q    Type
REMARK                         _______ _______ _______ _____ _____    ______ ____
ROOT
ATOM      1  N   UNL     1       0.782   9.222  18.848  0.00  0.00    +0.000 N 
ATOM      2  C   UNL     1       1.882   9.431  18.029  0.00  0.00    +0.000 C 
ATOM      3  O   UNL     1       2.165  10.502  17.493  0.00  0.00    +0.000 OA
ATOM      4  H   UNL     1       0.864   8.503  19.563  0.00  0.00    +0.000 HD
ENDROOT
BRANCH   1   6
ATOM      5  C   UNL     1      -0.186  11.325  19.892  0.00  0.00    +0.000 A 
ATOM      6  C   UNL     1      -0.141  10.232  19.045  0.00  0.00    +0.000 A 
ATOM      7  S   UNL     1      -1.503  10.116  18.026  0.00  0.00    +0.000 S 
ATOM      8  C   UNL     1      -2.321  11.397  18.821  0.00  0.00    +0.000 A 
ATOM      9  C   UNL     1      -1.478  12.011  19.750  0.00  0.00    +0.000 A 
ATOM     10  C   UNL     1      -1.810  13.254  20.533  0.00  0.00    +0.000 C 
BRANCH   8  11
ATOM     11  C   UNL     1      -3.698  11.776  18.496  0.00  0.00    +0.000 C 
ATOM     12  O   UNL     1      -4.552  11.992  19.355  0.00  0.00    +0.000 OA
ATOM     13  N   UNL     1      -4.059  11.889  17.166  0.00  0.00    +0.000 N 
ATOM     14  C   UNL     1      -5.416  12.246  16.787  0.00  0.00    +0.000 C 
ATOM     15  H   UNL     1      -3.386  11.657  16.447  0.00  0.00    +0.000 HD
ENDBRANCH   8  11
BRANCH   5  16
ATOM     16  C   UNL     1       0.899  11.815  20.771  0.00  0.00    +0.000 C 
ATOM     17  O   UNL     1       1.396  11.116  21.649  0.00  0.00    +0.000 OA
BRANCH  16  18
ATOM     18  O   UNL     1       1.207  13.138  20.613  0.00  0.00    +0.000 OA
BRANCH  18  20
ATOM     19  C   UNL     1       1.454  14.755  18.820  0.00  0.00    +0.000 C 
ATOM     20  C   UNL     1       1.969  13.469  19.439  0.00  0.00    +0.000 C 
ENDBRANCH  18  20
ENDBRANCH  16  18
ENDBRANCH   5  16
ENDBRANCH   1   6
BRANCH   2  21
ATOM     21  C   UNL     1       2.790   8.207  17.874  0.00  0.00    +0.000 C 
BRANCH  21  22
ATOM     22  O   UNL     1       2.053   6.983  17.847  0.00  0.00    +0.000 OA
BRANCH  22  23
ATOM     23  C   UNL     1       2.362   6.047  18.781  0.00  0.00    +0.000 C 
ATOM     24  O   UNL     1       2.987   6.293  19.806  0.00  0.00    +0.000 OA
BRANCH  23  25
ATOM     25  C   UNL     1       1.828   4.668  18.417  0.00  0.00    +0.000 C 
BRANCH  25  26
ATOM     26  C   UNL     1       2.806   3.915  17.521  0.00  0.00    +0.000 C 
BRANCH  26  27
ATOM     27  O   UNL     1       4.124   3.770  18.072  0.00  0.00    +0.000 OA
BRANCH  27  28
ATOM     28  C   UNL     1       5.119   4.173  17.197  0.00  0.00    +0.000 A 
ATOM     29  C   UNL     1       5.084   3.892  15.819  0.00  0.00    +0.000 A 
ATOM     30  C   UNL     1       6.106   4.298  14.965  0.00  0.00    +0.000 A 
ATOM     31  C   UNL     1       7.172   5.022  15.470  0.00  0.00    +0.000 A 
ATOM     32  C   UNL     1       7.217   5.332  16.826  0.00  0.00    +0.000 A 
ATOM     33  C   UNL     1       6.200   4.914  17.707  0.00  0.00    +0.000 A 
ATOM     34  C   UNL     1       6.320   5.297  19.155  0.00  0.00    +0.000 C 
ENDBRANCH  27  28
ENDBRANCH  26  27
ENDBRANCH  25  26
ENDBRANCH  23  25
ENDBRANCH  22  23
ENDBRANCH  21  22
ENDBRANCH   2  21
TORSDOF 12
ENDMDL
MODEL 7
REMARK VINA RESULT:      -6.9      5.809      9.675
REMARK  Name = 
REMARK  16 active torsions:
REMARK  status: ('A' for Active; 'I' for Inactive)
REMARK    1  A    between atoms: C_1  and  C_2
REMARK    2  A    between atoms: C_2  and  O_3
REMARK    3  A    between atoms: O_3  and  C_4
REMARK    4  A    between atoms: C_4  and  C_6
REMARK    5  A    between atoms: C_7  and  N_8
REMARK    6  A    between atoms: C_9  and  C_11
REMARK    7  A    between atoms: C_11  and  O_12
REMARK    8  A    between atoms: O_12  and  C_13
REMARK    9  A    between atoms: C_13  and  C_15
REMARK   10  A    between atoms: C_15  and  C_16
REMARK   11  A    between atoms: C_16  and  O_17
REMARK   12  A    between atoms: O_17  and  C_18
REMARK   13  A    between atoms: C_23  and  C_24
REMARK   14  A    between atoms: C_26  and  C_27
REMARK   15  A    between atoms: N_29  and  C_30
REMARK   16  A    between atoms: C_31  and  C_32
REMARK                            x       y       z     vdW  Elec       q    Type
REMARK                         _______ _______ _______ _____ _____    ______ ____
ROOT
ATOM      1  N   UNL     1       1.104   8.905  19.289  0.00  0.00    +0.000 N 
ATOM      2  C   UNL     1       2.008   8.608  18.279  0.00  0.00    +0.000 C 
ATOM      3  O   UNL     1       2.126   9.243  17.232  0.00  0.00    +0.000 OA
ATOM      4  H   UNL     1       1.362   8.641  20.236  0.00  0.00    +0.000 HD
ENDROOT
BRANCH   1   6
ATOM      5  C   UNL     1      -0.099  11.069  19.855  0.00  0.00    +0.000 A 
ATOM      6  C   UNL     1       0.191   9.929  19.126  0.00  0.00    +0.000 A 
ATOM      7  S   UNL     1      -0.773   9.764  17.728  0.00  0.00    +0.000 S 
ATOM      8  C   UNL     1      -1.773  11.092  18.151  0.00  0.00    +0.000 A 
ATOM      9  C   UNL     1      -1.260  11.752  19.269  0.00  0.00    +0.000 A 
ATOM     10  C   UNL     1      -1.798  13.038  19.839  0.00  0.00    +0.000 C 
BRANCH   8  11
ATOM     11  C   UNL     1      -2.963  11.460  17.380  0.00  0.00    +0.000 C 
ATOM     12  O   UNL     1      -2.964  11.544  16.153  0.00  0.00    +0.000 OA
ATOM     13  N   UNL     1      -4.136  11.734  18.059  0.00  0.00    +0.000 N 
ATOM     14  C   UNL     1      -5.342  12.118  17.345  0.00  0.00    +0.000 C 
ATOM     15  H   UNL     1      -4.138  11.728  19.071  0.00  0.00    +0.000 HD
ENDBRANCH   8  11
BRANCH   5  16
ATOM     16  C   UNL     1       0.656  11.601  21.012  0.00  0.00    +0.000 C 
ATOM     17  O   UNL     1       1.686  12.255  20.876  0.00  0.00    +0.000 OA
BRANCH  16  18
ATOM     18  O   UNL     1       0.190  11.195  22.232  0.00  0.00    +0.000 OA
BRANCH  18  20
ATOM     19  C   UNL     1      -0.630   8.993  22.840  0.00  0.00    +0.000 C 
ATOM     20  C   UNL     1       0.588   9.877  22.648  0.00  0.00    +0.000 C 
ENDBRANCH  18  20
ENDBRANCH  16  18
ENDBRANCH   5  16
ENDBRANCH   1   6
BRANCH   2  21
ATOM     21  C   UNL     1       2.926   7.420  18.588  0.00  0.00    +0.000 C 
BRANCH  21  22
ATOM     22  O   UNL     1       2.387   6.564  19.598  0.00  0.00    +0.000 OA
BRANCH  22  23
ATOM     23  C   UNL     1       2.602   5.230  19.465  0.00  0.00    +0.000 C 
ATOM     24  O   UNL     1       2.538   4.437  20.398  0.00  0.00    +0.000 OA
BRANCH  23  25
ATOM     25  C   UNL     1       2.909   4.835  18.027  0.00  0.00    +0.000 C 
BRANCH  25  26
ATOM     26  C   UNL     1       4.068   3.844  17.962  0.00  0.00    +0.000 C 
BRANCH  26  27
ATOM     27  O   UNL     1       5.059   4.154  16.972  0.00  0.00    +0.000 OA
BRANCH  27  28
ATOM     28  C   UNL     1       6.001   5.066  17.422  0.00  0.00    +0.000 A 
ATOM     29  C   UNL     1       6.925   4.769  18.439  0.00  0.00    +0.000 A 
ATOM     30  C   UNL     1       7.852   5.709  18.882  0.00  0.00    +0.000 A 
ATOM     31  C   UNL     1       7.891   6.960  18.290  0.00  0.00    +0.000 A 
ATOM     32  C   UNL     1       7.001   7.269  17.266  0.00  0.00    +0.000 A 
ATOM     33  C   UNL     1       6.047   6.335  16.818  0.00  0.00    +0.000 A 
ATOM     34  C   UNL     1       5.128   6.745  15.702  0.00  0.00    +0.000 C 
ENDBRANCH  27  28
ENDBRANCH  26  27
ENDBRANCH  25  26
ENDBRANCH  23  25
ENDBRANCH  22  23
ENDBRANCH  21  22
ENDBRANCH   2  21
TORSDOF 12
ENDMDL
MODEL 8
REMARK VINA RESULT:      -6.9      6.543     10.218
REMARK  Name = 
REMARK  16 active torsions:
REMARK  status: ('A' for Active; 'I' for Inactive)
REMARK    1  A    between atoms: C_1  and  C_2
REMARK    2  A    between atoms: C_2  and  O_3
REMARK    3  A    between atoms: O_3  and  C_4
REMARK    4  A    between atoms: C_4  and  C_6
REMARK    5  A    between atoms: C_7  and  N_8
REMARK    6  A    between atoms: C_9  and  C_11
REMARK    7  A    between atoms: C_11  and  O_12
REMARK    8  A    between atoms: O_12  and  C_13
REMARK    9  A    between atoms: C_13  and  C_15
REMARK   10  A    between atoms: C_15  and  C_16
REMARK   11  A    between atoms: C_16  and  O_17
REMARK   12  A    between atoms: O_17  and  C_18
REMARK   13  A    between atoms: C_23  and  C_24
REMARK   14  A    between atoms: C_26  and  C_27
REMARK   15  A    between atoms: N_29  and  C_30
REMARK   16  A    between atoms: C_31  and  C_32
REMARK                            x       y       z     vdW  Elec       q    Type
REMARK                         _______ _______ _______ _____ _____    ______ ____
ROOT
ATOM      1  N   UNL     1       0.587   9.243  18.592  0.00  0.00    +0.000 N 
ATOM      2  C   UNL     1       1.791   9.572  17.988  0.00  0.00    +0.000 C 
ATOM      3  O   UNL     1       2.081  10.689  17.560  0.00  0.00    +0.000 OA
ATOM      4  H   UNL     1       0.599   8.490  19.276  0.00  0.00    +0.000 HD
ENDROOT
BRANCH   1   6
ATOM      5  C   UNL     1      -0.626  11.300  19.457  0.00  0.00    +0.000 A 
ATOM      6  C   UNL     1      -0.429  10.177  18.673  0.00  0.00    +0.000 A 
ATOM      7  S   UNL     1      -1.699   9.898  17.570  0.00  0.00    +0.000 S 
ATOM      8  C   UNL     1      -2.676  11.139  18.240  0.00  0.00    +0.000 A 
ATOM      9  C   UNL     1      -1.956  11.864  19.191  0.00  0.00    +0.000 A 
ATOM     10  C   UNL     1      -2.447  13.108  19.885  0.00  0.00    +0.000 C 
BRANCH   8  11
ATOM     11  C   UNL     1      -4.052  11.382  17.802  0.00  0.00    +0.000 C 
ATOM     12  O   UNL     1      -4.326  11.941  16.741  0.00  0.00    +0.000 OA
ATOM     13  N   UNL     1      -5.091  10.973  18.618  0.00  0.00    +0.000 N 
ATOM     14  C   UNL     1      -6.475  11.203  18.240  0.00  0.00    +0.000 C 
ATOM     15  H   UNL     1      -4.883  10.565  19.521  0.00  0.00    +0.000 HD
ENDBRANCH   8  11
BRANCH   5  16
ATOM     16  C   UNL     1       0.348  11.922  20.383  0.00  0.00    +0.000 C 
ATOM     17  O   UNL     1       0.965  12.943  20.094  0.00  0.00    +0.000 OA
BRANCH  16  18
ATOM     18  O   UNL     1       0.597  11.199  21.516  0.00  0.00    +0.000 OA
BRANCH  18  20
ATOM     19  C   UNL     1      -0.448   9.566  22.977  0.00  0.00    +0.000 C 
ATOM     20  C   UNL     1      -0.538  10.951  22.364  0.00  0.00    +0.000 C 
ENDBRANCH  18  20
ENDBRANCH  16  18
ENDBRANCH   5  16
ENDBRANCH   1   6
BRANCH   2  21
ATOM     21  C   UNL     1       2.802   8.421  17.936  0.00  0.00    +0.000 C 
BRANCH  21  22
ATOM     22  O   UNL     1       2.677   7.537  19.052  0.00  0.00    +0.000 OA
BRANCH  22  23
ATOM     23  C   UNL     1       2.641   6.204  18.792  0.00  0.00    +0.000 C 
ATOM     24  O   UNL     1       2.019   5.712  17.858  0.00  0.00    +0.000 OA
BRANCH  23  25
ATOM     25  C   UNL     1       3.476   5.401  19.779  0.00  0.00    +0.000 C 
BRANCH  25  26
ATOM     26  C   UNL     1       4.967   5.544  19.487  0.00  0.00    +0.000 C 
BRANCH  26  27
ATOM     27  O   UNL     1       5.581   4.365  18.946  0.00  0.00    +0.000 OA
BRANCH  27  28
ATOM     28  C   UNL     1       5.855   4.475  17.592  0.00  0.00    +0.000 A 
ATOM     29  C   UNL     1       6.962   5.183  17.092  0.00  0.00    +0.000 A 
ATOM     30  C   UNL     1       7.205   5.289  15.725  0.00  0.00    +0.000 A 
ATOM     31  C   UNL     1       6.358   4.659  14.830  0.00  0.00    +0.000 A 
ATOM     32  C   UNL     1       5.268   3.933  15.302  0.00  0.00    +0.000 A 
ATOM     33  C   UNL     1       4.999   3.830  16.681  0.00  0.00    +0.000 A 
ATOM     34  C   UNL     1       3.807   3.020  17.108  0.00  0.00    +0.000 C 
ENDBRANCH  27  28
ENDBRANCH  26  27
ENDBRANCH  25  26
ENDBRANCH  23  25
ENDBRANCH  22  23
ENDBRANCH  21  22
ENDBRANCH   2  21
TORSDOF 12
ENDMDL
MODEL 9
REMARK VINA RESULT:      -6.9      6.112     10.053
REMARK  Name = 
REMARK  16 active torsions:
REMARK  status: ('A' for Active; 'I' for Inactive)
REMARK    1  A    between atoms: C_1  and  C_2
REMARK    2  A    between atoms: C_2  and  O_3
REMARK    3  A    between atoms: O_3  and  C_4
REMARK    4  A    between atoms: C_4  and  C_6
REMARK    5  A    between atoms: C_7  and  N_8
REMARK    6  A    between atoms: C_9  and  C_11
REMARK    7  A    between atoms: C_11  and  O_12
REMARK    8  A    between atoms: O_12  and  C_13
REMARK    9  A    between atoms: C_13  and  C_15
REMARK   10  A    between atoms: C_15  and  C_16
REMARK   11  A    between atoms: C_16  and  O_17
REMARK   12  A    between atoms: O_17  and  C_18
REMARK   13  A    between atoms: C_23  and  C_24
REMARK   14  A    between atoms: C_26  and  C_27
REMARK   15  A    between atoms: N_29  and  C_30
REMARK   16  A    between atoms: C_31  and  C_32
REMARK                            x       y       z     vdW  Elec       q    Type
REMARK                         _______ _______ _______ _____ _____    ______ ____
ROOT
ATOM      1  N   UNL     1       1.166   9.155  19.528  0.00  0.00    +0.000 N 
ATOM      2  C   UNL     1       0.926   8.402  20.668  0.00  0.00    +0.000 C 
ATOM      3  O   UNL     1      -0.074   8.499  21.378  0.00  0.00    +0.000 OA
ATOM      4  H   UNL     1       1.738   8.732  18.803  0.00  0.00    +0.000 HD
ENDROOT
BRANCH   1   6
ATOM      5  C   UNL     1       0.054  11.436  19.641  0.00  0.00    +0.000 A 
ATOM      6  C   UNL     1       0.290  10.160  19.161  0.00  0.00    +0.000 A 
ATOM      7  S   UNL     1      -0.698   9.748  17.833  0.00  0.00    +0.000 S 
ATOM      8  C   UNL     1      -1.641  11.174  17.977  0.00  0.00    +0.000 A 
ATOM      9  C   UNL     1      -1.088  12.030  18.932  0.00  0.00    +0.000 A 
ATOM     10  C   UNL     1      -1.568  13.427  19.226  0.00  0.00    +0.000 C 
BRANCH   8  11
ATOM     11  C   UNL     1      -2.826  11.422  17.153  0.00  0.00    +0.000 C 
ATOM     12  O   UNL     1      -2.809  11.364  15.924  0.00  0.00    +0.000 OA
ATOM     13  N   UNL     1      -4.015  11.744  17.779  0.00  0.00    +0.000 N 
ATOM     14  C   UNL     1      -5.218  12.015  17.009  0.00  0.00    +0.000 C 
ATOM     15  H   UNL     1      -4.034  11.855  18.785  0.00  0.00    +0.000 HD
ENDBRANCH   8  11
BRANCH   5  16
ATOM     16  C   UNL     1       0.845  12.165  20.658  0.00  0.00    +0.000 C 
ATOM     17  O   UNL     1       1.771  12.910  20.356  0.00  0.00    +0.000 OA
BRANCH  16  18
ATOM     18  O   UNL     1       0.546  11.839  21.952  0.00  0.00    +0.000 OA
BRANCH  18  20
ATOM     19  C   UNL     1      -1.478  11.221  23.142  0.00  0.00    +0.000 C 
ATOM     20  C   UNL     1      -0.711  12.332  22.448  0.00  0.00    +0.000 C 
ENDBRANCH  18  20
ENDBRANCH  16  18
ENDBRANCH   5  16
ENDBRANCH   1   6
BRANCH   2  21
ATOM     21  C   UNL     1       2.006   7.357  20.968  0.00  0.00    +0.000 C 
BRANCH  21  22
ATOM     22  O   UNL     1       2.313   6.549  19.829  0.00  0.00    +0.000 OA
BRANCH  22  23
ATOM     23  C   UNL     1       1.857   5.270  19.830  0.00  0.00    +0.000 C 
ATOM     24  O   UNL     1       1.216   4.779  20.753  0.00  0.00    +0.000 OA
BRANCH  23  25
ATOM     25  C   UNL     1       2.217   4.527  18.550  0.00  0.00    +0.000 C 
BRANCH  25  26
ATOM     26  C   UNL     1       3.670   4.064  18.571  0.00  0.00    +0.000 C 
BRANCH  26  27
ATOM     27  O   UNL     1       4.436   4.465  17.425  0.00  0.00    +0.000 OA
BRANCH  27  28
ATOM     28  C   UNL     1       5.555   5.210  17.761  0.00  0.00    +0.000 A 
ATOM     29  C   UNL     1       6.331   4.949  18.905  0.00  0.00    +0.000 A 
ATOM     30  C   UNL     1       7.443   5.723  19.226  0.00  0.00    +0.000 A 
ATOM     31  C   UNL     1       7.820   6.758  18.388  0.00  0.00    +0.000 A 
ATOM     32  C   UNL     1       7.081   7.021  17.238  0.00  0.00    +0.000 A 
ATOM     33  C   UNL     1       5.944   6.259  16.908  0.00  0.00    +0.000 A 
ATOM     34  C   UNL     1       5.207   6.602  15.645  0.00  0.00    +0.000 C 
ENDBRANCH  27  28
ENDBRANCH  26  27
ENDBRANCH  25  26
ENDBRANCH  23  25
ENDBRANCH  22  23
ENDBRANCH  21  22
ENDBRANCH   2  21
TORSDOF 12
ENDMDL
