MODEL 1
REMARK VINA RESULT:      -5.5      0.000      0.000
REMARK  Name = 
REMARK  5 active torsions:
REMARK  status: ('A' for Active; 'I' for Inactive)
REMARK    1  A    between atoms: C_2  and  O_3
REMARK    2  A    between atoms: C_2  and  C_4
REMARK    3  A    between atoms: C_4  and  S_5
REMARK    4  A    between atoms: S_5  and  C_6
REMARK    5  A    between atoms: C_6  and  N_8
REMARK                            x       y       z     vdW  Elec       q    Type
REMARK                         _______ _______ _______ _____ _____    ______ ____
ROOT
ATOM      1  C   UNL     1       3.243   5.151  18.181  0.00  0.00    +0.000 C 
ATOM      2  S   UNL     1       3.518   6.784  17.902  0.00  0.00    +0.000 S 
ENDROOT
BRANCH   1   3
ATOM      3  N   UNL     1       2.186   4.666  18.959  0.00  0.00    +0.000 N 
ATOM      4  C   UNL     1       1.910   5.111  20.330  0.00  0.00    +0.000 C 
ATOM      5  C   UNL     1       2.119   3.975  21.320  0.00  0.00    +0.000 C 
ATOM      6  C   UNL     1       1.271   2.764  20.934  0.00  0.00    +0.000 C 
ATOM      7  C   UNL     1       1.513   2.359  19.480  0.00  0.00    +0.000 C 
ATOM      8  C   UNL     1       1.336   3.545  18.523  0.00  0.00    +0.000 C 
ENDBRANCH   1   3
BRANCH   1   9
ATOM      9  S   UNL     1       4.184   3.854  17.415  0.00  0.00    +0.000 S 
BRANCH   9  10
ATOM     10  C   UNL     1       5.466   4.719  16.480  0.00  0.00    +0.000 C 
BRANCH  10  12
ATOM     11  O   UNL     1       7.846   4.471  16.293  0.00  0.00    +0.000 OA
ATOM     12  C   UNL     1       6.859   4.483  17.019  0.00  0.00    +0.000 C 
BRANCH  12  13
ATOM     13  O   UNL     1       6.938   4.206  18.331  0.00  0.00    +0.000 OA
ATOM     14  H   UNL     1       7.781   3.777  18.562  0.00  0.00    +0.000 HD
ENDBRANCH  12  13
ENDBRANCH  10  12
ENDBRANCH   9  10
ENDBRANCH   1   9
TORSDOF 5
ENDMDL
MODEL 2
REMARK VINA RESULT:      -5.4      1.052      1.726
REMARK  Name = 
REMARK  5 active torsions:
REMARK  status: ('A' for Active; 'I' for Inactive)
REMARK    1  A    between atoms: C_2  and  O_3
REMARK    2  A    between atoms: C_2  and  C_4
REMARK    3  A    between atoms: C_4  and  S_5
REMARK    4  A    between atoms: S_5  and  C_6
REMARK    5  A    between atoms: C_6  and  N_8
REMARK                            x       y       z     vdW  Elec       q    Type
REMARK                         _______ _______ _______ _____ _____    ______ ____
ROOT
ATOM      1  C   UNL     1       3.434   5.675  18.175  0.00  0.00    +0.000 C 
ATOM      2  S   UNL     1       2.755   7.210  18.254  0.00  0.00    +0.000 S 
ENDROOT
BRANCH   1   3
ATOM      3  N   UNL     1       3.065   4.622  19.018  0.00  0.00    +0.000 N 
ATOM      4  C   UNL     1       2.959   3.225  18.581  0.00  0.00    +0.000 C 
ATOM      5  C   UNL     1       1.517   2.743  18.652  0.00  0.00    +0.000 C 
ATOM      6  C   UNL     1       0.953   2.943  20.058  0.00  0.00    +0.000 C 
ATOM      7  C   UNL     1       1.140   4.386  20.529  0.00  0.00    +0.000 C 
ATOM      8  C   UNL     1       2.598   4.843  20.397  0.00  0.00    +0.000 C 
ENDBRANCH   1   3
BRANCH   1   9
ATOM      9  S   UNL     1       4.599   5.183  16.927  0.00  0.00    +0.000 S 
BRANCH   9  10
ATOM     10  C   UNL     1       6.213   5.584  17.635  0.00  0.00    +0.000 C 
BRANCH  10  12
ATOM     11  O   UNL     1       7.549   4.749  15.824  0.00  0.00    +0.000 OA
ATOM     12  C   UNL     1       7.344   4.782  17.032  0.00  0.00    +0.000 C 
BRANCH  12  13
ATOM     13  O   UNL     1       8.062   4.044  17.896  0.00  0.00    +0.000 OA
ATOM     14  H   UNL     1       8.964   3.880  17.570  0.00  0.00    +0.000 HD
ENDBRANCH  12  13
ENDBRANCH  10  12
ENDBRANCH   9  10
ENDBRANCH   1   9
TORSDOF 5
ENDMDL
MODEL 3
REMARK VINA RESULT:      -5.4      1.021      1.021
REMARK  Name = 
REMARK  5 active torsions:
REMARK  status: ('A' for Active; 'I' for Inactive)
REMARK    1  A    between atoms: C_2  and  O_3
REMARK    2  A    between atoms: C_2  and  C_4
REMARK    3  A    between atoms: C_4  and  S_5
REMARK    4  A    between atoms: S_5  and  C_6
REMARK    5  A    between atoms: C_6  and  N_8
REMARK                            x       y       z     vdW  Elec       q    Type
REMARK                         _______ _______ _______ _____ _____    ______ ____
ROOT
ATOM      1  C   UNL     1       3.459   5.767  18.708  0.00  0.00    +0.000 C 
ATOM      2  S   UNL     1       3.412   7.183  17.805  0.00  0.00    +0.000 S 
ENDROOT
BRANCH   1   3
ATOM      3  N   UNL     1       2.316   5.109  19.174  0.00  0.00    +0.000 N 
ATOM      4  C   UNL     1       1.831   5.196  20.556  0.00  0.00    +0.000 C 
ATOM      5  C   UNL     1       1.929   3.845  21.251  0.00  0.00    +0.000 C 
ATOM      6  C   UNL     1       1.185   2.775  20.453  0.00  0.00    +0.000 C 
ATOM      7  C   UNL     1       1.648   2.749  18.996  0.00  0.00    +0.000 C 
ATOM      8  C   UNL     1       1.574   4.138  18.351  0.00  0.00    +0.000 C 
ENDBRANCH   1   3
BRANCH   1   9
ATOM      9  S   UNL     1       4.957   4.879  19.060  0.00  0.00    +0.000 S 
BRANCH   9  10
ATOM     10  C   UNL     1       6.069   5.317  17.705  0.00  0.00    +0.000 C 
BRANCH  10  12
ATOM     11  O   UNL     1       8.105   4.218  17.067  0.00  0.00    +0.000 OA
ATOM     12  C   UNL     1       7.488   4.842  17.921  0.00  0.00    +0.000 C 
BRANCH  12  13
ATOM     13  O   UNL     1       8.003   5.078  19.140  0.00  0.00    +0.000 OA
ATOM     14  H   UNL     1       8.095   4.259  19.659  0.00  0.00    +0.000 HD
ENDBRANCH  12  13
ENDBRANCH  10  12
ENDBRANCH   9  10
ENDBRANCH   1   9
TORSDOF 5
ENDMDL
MODEL 4
REMARK VINA RESULT:      -5.4      1.341      1.492
REMARK  Name = 
REMARK  5 active torsions:
REMARK  status: ('A' for Active; 'I' for Inactive)
REMARK    1  A    between atoms: C_2  and  O_3
REMARK    2  A    between atoms: C_2  and  C_4
REMARK    3  A    between atoms: C_4  and  S_5
REMARK    4  A    between atoms: S_5  and  C_6
REMARK    5  A    between atoms: C_6  and  N_8
REMARK                            x       y       z     vdW  Elec       q    Type
REMARK                         _______ _______ _______ _____ _____    ______ ____
ROOT
ATOM      1  C   UNL     1       2.775   5.308  18.253  0.00  0.00    +0.000 C 
ATOM      2  S   UNL     1       2.910   6.982  18.216  0.00  0.00    +0.000 S 
ENDROOT
BRANCH   1   3
ATOM      3  N   UNL     1       1.905   4.621  19.106  0.00  0.00    +0.000 N 
ATOM      4  C   UNL     1       1.659   5.001  20.501  0.00  0.00    +0.000 C 
ATOM      5  C   UNL     1       2.173   3.930  21.453  0.00  0.00    +0.000 C 
ATOM      6  C   UNL     1       1.556   2.573  21.117  0.00  0.00    +0.000 C 
ATOM      7  C   UNL     1       1.754   2.225  19.641  0.00  0.00    +0.000 C 
ATOM      8  C   UNL     1       1.265   3.351  18.721  0.00  0.00    +0.000 C 
ENDBRANCH   1   3
BRANCH   1   9
ATOM      9  S   UNL     1       3.627   4.231  17.125  0.00  0.00    +0.000 S 
BRANCH   9  10
ATOM     10  C   UNL     1       5.372   4.414  17.559  0.00  0.00    +0.000 C 
BRANCH  10  12
ATOM     11  O   UNL     1       6.227   5.098  19.695  0.00  0.00    +0.000 OA
ATOM     12  C   UNL     1       5.640   4.248  19.038  0.00  0.00    +0.000 C 
BRANCH  12  13
ATOM     13  O   UNL     1       5.263   3.072  19.570  0.00  0.00    +0.000 OA
ATOM     14  H   UNL     1       4.779   3.191  20.406  0.00  0.00    +0.000 HD
ENDBRANCH  12  13
ENDBRANCH  10  12
ENDBRANCH   9  10
ENDBRANCH   1   9
TORSDOF 5
ENDMDL
MODEL 5
REMARK VINA RESULT:      -5.4      1.688      1.773
REMARK  Name = 
REMARK  5 active torsions:
REMARK  status: ('A' for Active; 'I' for Inactive)
REMARK    1  A    between atoms: C_2  and  O_3
REMARK    2  A    between atoms: C_2  and  C_4
REMARK    3  A    between atoms: C_4  and  S_5
REMARK    4  A    between atoms: S_5  and  C_6
REMARK    5  A    between atoms: C_6  and  N_8
REMARK                            x       y       z     vdW  Elec       q    Type
REMARK                         _______ _______ _______ _____ _____    ______ ____
ROOT
ATOM      1  C   UNL     1       4.412   4.643  18.264  0.00  0.00    +0.000 C 
ATOM      2  S   UNL     1       5.754   5.191  19.114  0.00  0.00    +0.000 S 
ENDROOT
BRANCH   1   3
ATOM      3  N   UNL     1       3.098   4.765  18.730  0.00  0.00    +0.000 N 
ATOM      4  C   UNL     1       2.745   5.331  20.037  0.00  0.00    +0.000 C 
ATOM      5  C   UNL     1       2.129   4.271  20.939  0.00  0.00    +0.000 C 
ATOM      6  C   UNL     1       0.926   3.620  20.257  0.00  0.00    +0.000 C 
ATOM      7  C   UNL     1       1.292   3.102  18.866  0.00  0.00    +0.000 C 
ATOM      8  C   UNL     1       1.950   4.190  18.009  0.00  0.00    +0.000 C 
ENDBRANCH   1   3
BRANCH   1   9
ATOM      9  S   UNL     1       4.500   3.966  16.624  0.00  0.00    +0.000 S 
BRANCH   9  10
ATOM     10  C   UNL     1       6.248   4.089  16.180  0.00  0.00    +0.000 C 
BRANCH  10  12
ATOM     11  O   UNL     1       7.615   5.337  14.653  0.00  0.00    +0.000 OA
ATOM     12  C   UNL     1       6.546   5.237  15.242  0.00  0.00    +0.000 C 
BRANCH  12  13
ATOM     13  O   UNL     1       5.595   6.182  15.157  0.00  0.00    +0.000 OA
ATOM     14  H   UNL     1       5.047   6.219  15.961  0.00  0.00    +0.000 HD
ENDBRANCH  12  13
ENDBRANCH  10  12
ENDBRANCH   9  10
ENDBRANCH   1   9
TORSDOF 5
ENDMDL
MODEL 6
REMARK VINA RESULT:      -5.3      2.144      2.807
REMARK  Name = 
REMARK  5 active torsions:
REMARK  status: ('A' for Active; 'I' for Inactive)
REMARK    1  A    between atoms: C_2  and  O_3
REMARK    2  A    between atoms: C_2  and  C_4
REMARK    3  A    between atoms: C_4  and  S_5
REMARK    4  A    between atoms: S_5  and  C_6
REMARK    5  A    between atoms: C_6  and  N_8
REMARK                            x       y       z     vdW  Elec       q    Type
REMARK                         _______ _______ _______ _____ _____    ______ ____
ROOT
ATOM      1  C   UNL     1       4.913   4.159  17.665  0.00  0.00    +0.000 C 
ATOM      2  S   UNL     1       5.523   4.079  16.101  0.00  0.00    +0.000 S 
ENDROOT
BRANCH   1   3
ATOM      3  N   UNL     1       3.841   3.383  18.119  0.00  0.00    +0.000 N 
ATOM      4  C   UNL     1       2.584   3.218  17.381  0.00  0.00    +0.000 C 
ATOM      5  C   UNL     1       1.424   3.846  18.141  0.00  0.00    +0.000 C 
ATOM      6  C   UNL     1       1.334   3.271  19.554  0.00  0.00    +0.000 C 
ATOM      7  C   UNL     1       2.674   3.381  20.283  0.00  0.00    +0.000 C 
ATOM      8  C   UNL     1       3.820   2.777  19.461  0.00  0.00    +0.000 C 
ENDBRANCH   1   3
BRANCH   1   9
ATOM      9  S   UNL     1       5.644   5.142  18.952  0.00  0.00    +0.000 S 
BRANCH   9  10
ATOM     10  C   UNL     1       7.368   5.337  18.445  0.00  0.00    +0.000 C 
BRANCH  10  12
ATOM     11  O   UNL     1       7.362   7.248  16.994  0.00  0.00    +0.000 OA
ATOM     12  C   UNL     1       7.719   6.756  18.057  0.00  0.00    +0.000 C 
BRANCH  12  13
ATOM     13  O   UNL     1       8.514   7.416  18.916  0.00  0.00    +0.000 OA
ATOM     14  H   UNL     1       9.365   7.658  18.510  0.00  0.00    +0.000 HD
ENDBRANCH  12  13
ENDBRANCH  10  12
ENDBRANCH   9  10
ENDBRANCH   1   9
TORSDOF 5
ENDMDL
MODEL 7
REMARK VINA RESULT:      -5.3      3.037      5.234
REMARK  Name = 
REMARK  5 active torsions:
REMARK  status: ('A' for Active; 'I' for Inactive)
REMARK    1  A    between atoms: C_2  and  O_3
REMARK    2  A    between atoms: C_2  and  C_4
REMARK    3  A    between atoms: C_4  and  S_5
REMARK    4  A    between atoms: S_5  and  C_6
REMARK    5  A    between atoms: C_6  and  N_8
REMARK                            x       y       z     vdW  Elec       q    Type
REMARK                         _______ _______ _______ _____ _____    ______ ____
ROOT
ATOM      1  C   UNL     1       3.285   3.422  18.293  0.00  0.00    +0.000 C 
ATOM      2  S   UNL     1       3.505   1.759  18.387  0.00  0.00    +0.000 S 
ENDROOT
BRANCH   1   3
ATOM      3  N   UNL     1       4.303   4.319  17.951  0.00  0.00    +0.000 N 
ATOM      4  C   UNL     1       4.399   5.684  18.479  0.00  0.00    +0.000 C 
ATOM      5  C   UNL     1       4.205   6.709  17.371  0.00  0.00    +0.000 C 
ATOM      6  C   UNL     1       5.200   6.467  16.236  0.00  0.00    +0.000 C 
ATOM      7  C   UNL     1       5.141   5.019  15.748  0.00  0.00    +0.000 C 
ATOM      8  C   UNL     1       5.295   4.023  16.903  0.00  0.00    +0.000 C 
ENDBRANCH   1   3
BRANCH   1   9
ATOM      9  S   UNL     1       1.707   4.215  18.488  0.00  0.00    +0.000 S 
BRANCH   9  10
ATOM     10  C   UNL     1       1.073   3.576  20.056  0.00  0.00    +0.000 C 
BRANCH  10  12
ATOM     11  O   UNL     1       2.197   3.081  22.117  0.00  0.00    +0.000 OA
ATOM     12  C   UNL     1       1.965   3.897  21.234  0.00  0.00    +0.000 C 
BRANCH  12  13
ATOM     13  O   UNL     1       2.422   5.159  21.293  0.00  0.00    +0.000 OA
ATOM     14  H   UNL     1       2.242   5.649  20.470  0.00  0.00    +0.000 HD
ENDBRANCH  12  13
ENDBRANCH  10  12
ENDBRANCH   9  10
ENDBRANCH   1   9
TORSDOF 5
ENDMDL
MODEL 8
REMARK VINA RESULT:      -5.3      1.480      2.009
REMARK  Name = 
REMARK  5 active torsions:
REMARK  status: ('A' for Active; 'I' for Inactive)
REMARK    1  A    between atoms: C_2  and  O_3
REMARK    2  A    between atoms: C_2  and  C_4
REMARK    3  A    between atoms: C_4  and  S_5
REMARK    4  A    between atoms: S_5  and  C_6
REMARK    5  A    between atoms: C_6  and  N_8
REMARK                            x       y       z     vdW  Elec       q    Type
REMARK                         _______ _______ _______ _____ _____    ______ ____
ROOT
ATOM      1  C   UNL     1       4.132   5.350  19.047  0.00  0.00    +0.000 C 
ATOM      2  S   UNL     1       3.375   6.470  18.049  0.00  0.00    +0.000 S 
ENDROOT
BRANCH   1   3
ATOM      3  N   UNL     1       3.440   4.436  19.849  0.00  0.00    +0.000 N 
ATOM      4  C   UNL     1       3.590   2.980  19.743  0.00  0.00    +0.000 C 
ATOM      5  C   UNL     1       2.296   2.336  19.265  0.00  0.00    +0.000 C 
ATOM      6  C   UNL     1       1.134   2.723  20.178  0.00  0.00    +0.000 C 
ATOM      7  C   UNL     1       1.038   4.241  20.338  0.00  0.00    +0.000 C 
ATOM      8  C   UNL     1       2.374   4.852  20.777  0.00  0.00    +0.000 C 
ENDBRANCH   1   3
BRANCH   1   9
ATOM      9  S   UNL     1       5.892   5.113  19.094  0.00  0.00    +0.000 S 
BRANCH   9  10
ATOM     10  C   UNL     1       6.529   6.210  17.807  0.00  0.00    +0.000 C 
BRANCH  10  12
ATOM     11  O   UNL     1       6.590   5.715  15.460  0.00  0.00    +0.000 OA
ATOM     12  C   UNL     1       7.017   5.471  16.582  0.00  0.00    +0.000 C 
BRANCH  12  13
ATOM     13  O   UNL     1       7.890   4.475  16.810  0.00  0.00    +0.000 OA
ATOM     14  H   UNL     1       7.479   3.736  17.293  0.00  0.00    +0.000 HD
ENDBRANCH  12  13
ENDBRANCH  10  12
ENDBRANCH   9  10
ENDBRANCH   1   9
TORSDOF 5
ENDMDL
MODEL 9
REMARK VINA RESULT:      -5.3      1.427      1.590
REMARK  Name = 
REMARK  5 active torsions:
REMARK  status: ('A' for Active; 'I' for Inactive)
REMARK    1  A    between atoms: C_2  and  O_3
REMARK    2  A    between atoms: C_2  and  C_4
REMARK    3  A    between atoms: C_4  and  S_5
REMARK    4  A    between atoms: S_5  and  C_6
REMARK    5  A    between atoms: C_6  and  N_8
REMARK                            x       y       z     vdW  Elec       q    Type
REMARK                         _______ _______ _______ _____ _____    ______ ____
ROOT
ATOM      1  C   UNL     1       4.314   4.327  18.089  0.00  0.00    +0.000 C 
ATOM      2  S   UNL     1       5.255   5.046  19.281  0.00  0.00    +0.000 S 
ENDROOT
BRANCH   1   3
ATOM      3  N   UNL     1       2.946   4.073  18.232  0.00  0.00    +0.000 N 
ATOM      4  C   UNL     1       2.014   4.979  18.911  0.00  0.00    +0.000 C 
ATOM      5  C   UNL     1       1.461   4.339  20.176  0.00  0.00    +0.000 C 
ATOM      6  C   UNL     1       0.813   2.992  19.858  0.00  0.00    +0.000 C 
ATOM      7  C   UNL     1       1.772   2.087  19.082  0.00  0.00    +0.000 C 
ATOM      8  C   UNL     1       2.338   2.789  17.842  0.00  0.00    +0.000 C 
ENDBRANCH   1   3
BRANCH   1   9
ATOM      9  S   UNL     1       4.923   3.931  16.467  0.00  0.00    +0.000 S 
BRANCH   9  10
ATOM     10  C   UNL     1       5.668   5.468  15.878  0.00  0.00    +0.000 C 
BRANCH  10  12
ATOM     11  O   UNL     1       7.624   6.735  16.452  0.00  0.00    +0.000 OA
ATOM     12  C   UNL     1       7.109   5.633  16.305  0.00  0.00    +0.000 C 
BRANCH  12  13
ATOM     13  O   UNL     1       7.813   4.496  16.434  0.00  0.00    +0.000 OA
ATOM     14  H   UNL     1       8.154   4.381  17.339  0.00  0.00    +0.000 HD
ENDBRANCH  12  13
ENDBRANCH  10  12
ENDBRANCH   9  10
ENDBRANCH   1   9
TORSDOF 5
ENDMDL
