MODEL 1
REMARK VINA RESULT:      -8.3      0.000      0.000
REMARK  Name = 
REMARK  2 active torsions:
REMARK  status: ('A' for Active; 'I' for Inactive)
REMARK    1  A    between atoms: C_6  and  N_7
REMARK    2  A    between atoms: C_12  and  C_13
REMARK                            x       y       z     vdW  Elec       q    Type
REMARK                         _______ _______ _______ _____ _____    ______ ____
ROOT
ATOM      1  O   UNL     1       0.355   1.961  18.325  0.00  0.00    +0.000 OA
ATOM      2  C   UNL     1       1.139   2.848  18.675  0.00  0.00    +0.000 C 
ATOM      3  C   UNL     1       0.843   3.710  19.868  0.00  0.00    +0.000 C 
ATOM      4  C   UNL     1       2.097   4.128  20.583  0.00  0.00    +0.000 C 
ATOM      5  O   UNL     1       2.180   4.087  21.812  0.00  0.00    +0.000 OA
ATOM      6  C   UNL     1       3.235   4.660  19.742  0.00  0.00    +0.000 C 
ATOM      7  C   UNL     1       3.569   3.610  18.647  0.00  0.00    +0.000 C 
ATOM      8  C   UNL     1       2.331   3.200  17.821  0.00  0.00    +0.000 C 
ENDROOT
BRANCH   7   9
ATOM      9  C   UNL     1       4.778   4.004  17.792  0.00  0.00    +0.000 A 
ATOM     10  C   UNL     1       5.974   4.476  18.357  0.00  0.00    +0.000 A 
ATOM     11  C   UNL     1       7.080   4.791  17.564  0.00  0.00    +0.000 A 
ATOM     12  C   UNL     1       7.008   4.658  16.183  0.00  0.00    +0.000 A 
ATOM     13  C   UNL     1       5.819   4.230  15.601  0.00  0.00    +0.000 A 
ATOM     14 CL   UNL     1       5.716   4.094  13.888  0.00  0.00    +0.000 Cl
ATOM     15  C   UNL     1       4.710   3.908  16.391  0.00  0.00    +0.000 A 
ENDBRANCH   7   9
BRANCH   6  16
ATOM     16  N   UNL     1       2.909   5.998  19.299  0.00  0.00    +0.000 N 
ATOM     17  C   UNL     1       2.320   6.990  20.022  0.00  0.00    +0.000 A 
ATOM     18  N   UNL     1       2.098   8.024  19.245  0.00  0.00    +0.000 NA
ATOM     19  C   UNL     1       2.565   7.610  18.035  0.00  0.00    +0.000 A 
ATOM     20  N   UNL     1       3.051   6.366  18.012  0.00  0.00    +0.000 NA
ENDBRANCH   6  16
TORSDOF 2
ENDMDL
MODEL 2
REMARK VINA RESULT:      -8.1      1.549      2.027
REMARK  Name = 
REMARK  2 active torsions:
REMARK  status: ('A' for Active; 'I' for Inactive)
REMARK    1  A    between atoms: C_6  and  N_7
REMARK    2  A    between atoms: C_12  and  C_13
REMARK                            x       y       z     vdW  Elec       q    Type
REMARK                         _______ _______ _______ _____ _____    ______ ____
ROOT
ATOM      1  O   UNL     1       0.362   1.847  18.333  0.00  0.00    +0.000 OA
ATOM      2  C   UNL     1       1.059   2.749  18.805  0.00  0.00    +0.000 C 
ATOM      3  C   UNL     1       0.749   3.338  20.151  0.00  0.00    +0.000 C 
ATOM      4  C   UNL     1       1.992   3.777  20.872  0.00  0.00    +0.000 C 
ATOM      5  O   UNL     1       2.165   3.528  22.066  0.00  0.00    +0.000 OA
ATOM      6  C   UNL     1       2.998   4.593  20.092  0.00  0.00    +0.000 C 
ATOM      7  C   UNL     1       3.376   3.809  18.805  0.00  0.00    +0.000 C 
ATOM      8  C   UNL     1       2.139   3.398  17.977  0.00  0.00    +0.000 C 
ENDROOT
BRANCH   7   9
ATOM      9  C   UNL     1       4.467   4.500  17.984  0.00  0.00    +0.000 A 
ATOM     10  C   UNL     1       4.409   4.589  16.583  0.00  0.00    +0.000 A 
ATOM     11  C   UNL     1       5.393   5.260  15.854  0.00  0.00    +0.000 A 
ATOM     12  C   UNL     1       6.471   5.843  16.510  0.00  0.00    +0.000 A 
ATOM     13  C   UNL     1       6.568   5.732  17.893  0.00  0.00    +0.000 A 
ATOM     14 CL   UNL     1       7.917   6.425  18.706  0.00  0.00    +0.000 Cl
ATOM     15  C   UNL     1       5.582   5.066  18.629  0.00  0.00    +0.000 A 
ENDBRANCH   7   9
BRANCH   6  16
ATOM     16  N   UNL     1       2.488   5.936  19.923  0.00  0.00    +0.000 N 
ATOM     17  C   UNL     1       2.673   6.765  18.859  0.00  0.00    +0.000 A 
ATOM     18  N   UNL     1       2.140   7.936  19.120  0.00  0.00    +0.000 NA
ATOM     19  C   UNL     1       1.642   7.778  20.378  0.00  0.00    +0.000 A 
ATOM     20  N   UNL     1       1.852   6.575  20.922  0.00  0.00    +0.000 NA
ENDBRANCH   6  16
TORSDOF 2
ENDMDL
MODEL 3
REMARK VINA RESULT:      -8.0      2.475      3.799
REMARK  Name = 
REMARK  2 active torsions:
REMARK  status: ('A' for Active; 'I' for Inactive)
REMARK    1  A    between atoms: C_6  and  N_7
REMARK    2  A    between atoms: C_12  and  C_13
REMARK                            x       y       z     vdW  Elec       q    Type
REMARK                         _______ _______ _______ _____ _____    ______ ____
ROOT
ATOM      1  O   UNL     1       1.324   6.477  20.878  0.00  0.00    +0.000 OA
ATOM      2  C   UNL     1       1.787   5.544  20.216  0.00  0.00    +0.000 C 
ATOM      3  C   UNL     1       1.165   4.179  20.267  0.00  0.00    +0.000 C 
ATOM      4  C   UNL     1       1.293   3.454  18.957  0.00  0.00    +0.000 C 
ATOM      5  O   UNL     1       0.344   2.838  18.468  0.00  0.00    +0.000 OA
ATOM      6  C   UNL     1       2.649   3.456  18.290  0.00  0.00    +0.000 C 
ATOM      7  C   UNL     1       3.119   4.929  18.134  0.00  0.00    +0.000 C 
ATOM      8  C   UNL     1       3.085   5.706  19.467  0.00  0.00    +0.000 C 
ENDROOT
BRANCH   7   9
ATOM      9  C   UNL     1       4.444   5.055  17.378  0.00  0.00    +0.000 A 
ATOM     10  C   UNL     1       4.790   4.198  16.320  0.00  0.00    +0.000 A 
ATOM     11  C   UNL     1       5.986   4.355  15.616  0.00  0.00    +0.000 A 
ATOM     12  C   UNL     1       6.874   5.365  15.966  0.00  0.00    +0.000 A 
ATOM     13  C   UNL     1       6.568   6.200  17.036  0.00  0.00    +0.000 A 
ATOM     14 CL   UNL     1       7.680   7.432  17.492  0.00  0.00    +0.000 Cl
ATOM     15  C   UNL     1       5.370   6.050  17.742  0.00  0.00    +0.000 A 
ENDBRANCH   7   9
BRANCH   6  16
ATOM     16  N   UNL     1       3.528   2.553  19.002  0.00  0.00    +0.000 N 
ATOM     17  C   UNL     1       4.316   2.838  20.075  0.00  0.00    +0.000 A 
ATOM     18  N   UNL     1       5.041   1.787  20.375  0.00  0.00    +0.000 NA
ATOM     19  C   UNL     1       4.664   0.871  19.440  0.00  0.00    +0.000 A 
ATOM     20  N   UNL     1       3.755   1.303  18.561  0.00  0.00    +0.000 NA
ENDBRANCH   6  16
TORSDOF 2
ENDMDL
MODEL 4
REMARK VINA RESULT:      -7.8      3.266      5.160
REMARK  Name = 
REMARK  2 active torsions:
REMARK  status: ('A' for Active; 'I' for Inactive)
REMARK    1  A    between atoms: C_6  and  N_7
REMARK    2  A    between atoms: C_12  and  C_13
REMARK                            x       y       z     vdW  Elec       q    Type
REMARK                         _______ _______ _______ _____ _____    ______ ____
ROOT
ATOM      1  O   UNL     1       7.766   5.389  19.324  0.00  0.00    +0.000 OA
ATOM      2  C   UNL     1       6.675   5.620  18.797  0.00  0.00    +0.000 C 
ATOM      3  C   UNL     1       6.524   6.718  17.784  0.00  0.00    +0.000 C 
ATOM      4  C   UNL     1       5.486   6.388  16.749  0.00  0.00    +0.000 C 
ATOM      5  O   UNL     1       5.687   6.591  15.550  0.00  0.00    +0.000 OA
ATOM      6  C   UNL     1       4.159   5.855  17.238  0.00  0.00    +0.000 C 
ATOM      7  C   UNL     1       4.427   4.618  18.138  0.00  0.00    +0.000 C 
ATOM      8  C   UNL     1       5.429   4.917  19.274  0.00  0.00    +0.000 C 
ENDROOT
BRANCH   7   9
ATOM      9  C   UNL     1       3.141   3.935  18.613  0.00  0.00    +0.000 A 
ATOM     10  C   UNL     1       2.080   3.644  17.740  0.00  0.00    +0.000 A 
ATOM     11  C   UNL     1       0.932   2.983  18.183  0.00  0.00    +0.000 A 
ATOM     12  C   UNL     1       0.811   2.615  19.518  0.00  0.00    +0.000 A 
ATOM     13  C   UNL     1       1.833   2.931  20.407  0.00  0.00    +0.000 A 
ATOM     14 CL   UNL     1       1.674   2.504  22.067  0.00  0.00    +0.000 Cl
ATOM     15  C   UNL     1       2.988   3.587  19.968  0.00  0.00    +0.000 A 
ENDBRANCH   7   9
BRANCH   6  16
ATOM     16  N   UNL     1       3.397   6.942  17.816  0.00  0.00    +0.000 N 
ATOM     17  C   UNL     1       2.758   6.959  19.018  0.00  0.00    +0.000 A 
ATOM     18  N   UNL     1       2.095   8.084  19.144  0.00  0.00    +0.000 NA
ATOM     19  C   UNL     1       2.353   8.730  17.973  0.00  0.00    +0.000 A 
ATOM     20  N   UNL     1       3.129   8.059  17.116  0.00  0.00    +0.000 NA
ENDBRANCH   6  16
TORSDOF 2
ENDMDL
MODEL 5
REMARK VINA RESULT:      -7.8      2.163      3.484
REMARK  Name = 
REMARK  2 active torsions:
REMARK  status: ('A' for Active; 'I' for Inactive)
REMARK    1  A    between atoms: C_6  and  N_7
REMARK    2  A    between atoms: C_12  and  C_13
REMARK                            x       y       z     vdW  Elec       q    Type
REMARK                         _______ _______ _______ _____ _____    ______ ____
ROOT
ATOM      1  O   UNL     1       1.777   6.874  20.499  0.00  0.00    +0.000 OA
ATOM      2  C   UNL     1       2.149   5.866  19.892  0.00  0.00    +0.000 C 
ATOM      3  C   UNL     1       1.394   4.574  20.008  0.00  0.00    +0.000 C 
ATOM      4  C   UNL     1       1.457   3.770  18.739  0.00  0.00    +0.000 C 
ATOM      5  O   UNL     1       0.455   3.226  18.273  0.00  0.00    +0.000 OA
ATOM      6  C   UNL     1       2.811   3.603  18.088  0.00  0.00    +0.000 C 
ATOM      7  C   UNL     1       3.425   5.011  17.860  0.00  0.00    +0.000 C 
ATOM      8  C   UNL     1       3.462   5.859  19.150  0.00  0.00    +0.000 C 
ENDROOT
BRANCH   7   9
ATOM      9  C   UNL     1       4.762   4.966  17.114  0.00  0.00    +0.000 A 
ATOM     10  C   UNL     1       5.953   5.450  17.678  0.00  0.00    +0.000 A 
ATOM     11  C   UNL     1       7.170   5.362  16.998  0.00  0.00    +0.000 A 
ATOM     12  C   UNL     1       7.220   4.803  15.726  0.00  0.00    +0.000 A 
ATOM     13  C   UNL     1       6.044   4.354  15.134  0.00  0.00    +0.000 A 
ATOM     14 CL   UNL     1       6.096   3.690  13.547  0.00  0.00    +0.000 Cl
ATOM     15  C   UNL     1       4.823   4.435  15.812  0.00  0.00    +0.000 A 
ENDBRANCH   7   9
BRANCH   6  16
ATOM     16  N   UNL     1       3.591   2.657  18.858  0.00  0.00    +0.000 N 
ATOM     17  C   UNL     1       4.391   2.919  19.927  0.00  0.00    +0.000 A 
ATOM     18  N   UNL     1       5.010   1.819  20.290  0.00  0.00    +0.000 NA
ATOM     19  C   UNL     1       4.557   0.899  19.394  0.00  0.00    +0.000 A 
ATOM     20  N   UNL     1       3.704   1.371  18.481  0.00  0.00    +0.000 NA
ENDBRANCH   6  16
TORSDOF 2
ENDMDL
MODEL 6
REMARK VINA RESULT:      -7.7      3.706      5.423
REMARK  Name = 
REMARK  2 active torsions:
REMARK  status: ('A' for Active; 'I' for Inactive)
REMARK    1  A    between atoms: C_6  and  N_7
REMARK    2  A    between atoms: C_12  and  C_13
REMARK                            x       y       z     vdW  Elec       q    Type
REMARK                         _______ _______ _______ _____ _____    ______ ____
ROOT
ATOM      1  O   UNL     1       6.243   3.429  13.464  0.00  0.00    +0.000 OA
ATOM      2  C   UNL     1       5.967   4.003  14.521  0.00  0.00    +0.000 C 
ATOM      3  C   UNL     1       6.477   5.387  14.802  0.00  0.00    +0.000 C 
ATOM      4  C   UNL     1       5.512   6.183  15.635  0.00  0.00    +0.000 C 
ATOM      5  O   UNL     1       5.242   7.354  15.363  0.00  0.00    +0.000 OA
ATOM      6  C   UNL     1       4.929   5.511  16.858  0.00  0.00    +0.000 C 
ATOM      7  C   UNL     1       4.279   4.171  16.421  0.00  0.00    +0.000 C 
ATOM      8  C   UNL     1       5.250   3.271  15.627  0.00  0.00    +0.000 C 
ENDROOT
BRANCH   7   9
ATOM      9  C   UNL     1       3.569   3.450  17.570  0.00  0.00    +0.000 A 
ATOM     10  C   UNL     1       3.834   2.109  17.893  0.00  0.00    +0.000 A 
ATOM     11  C   UNL     1       3.207   1.480  18.971  0.00  0.00    +0.000 A 
ATOM     12  C   UNL     1       2.283   2.175  19.742  0.00  0.00    +0.000 A 
ATOM     13  C   UNL     1       1.976   3.492  19.414  0.00  0.00    +0.000 A 
ATOM     14 CL   UNL     1       0.809   4.346  20.347  0.00  0.00    +0.000 Cl
ATOM     15  C   UNL     1       2.606   4.128  18.339  0.00  0.00    +0.000 A 
ENDBRANCH   7   9
BRANCH   6  16
ATOM     16  N   UNL     1       5.942   5.451  17.890  0.00  0.00    +0.000 N 
ATOM     17  C   UNL     1       5.755   5.260  19.225  0.00  0.00    +0.000 A 
ATOM     18  N   UNL     1       6.905   5.368  19.848  0.00  0.00    +0.000 NA
ATOM     19  C   UNL     1       7.780   5.639  18.839  0.00  0.00    +0.000 A 
ATOM     20  N   UNL     1       7.233   5.723  17.623  0.00  0.00    +0.000 NA
ENDBRANCH   6  16
TORSDOF 2
ENDMDL
MODEL 7
REMARK VINA RESULT:      -7.6      3.644      5.583
REMARK  Name = 
REMARK  2 active torsions:
REMARK  status: ('A' for Active; 'I' for Inactive)
REMARK    1  A    between atoms: C_6  and  N_7
REMARK    2  A    between atoms: C_12  and  C_13
REMARK                            x       y       z     vdW  Elec       q    Type
REMARK                         _______ _______ _______ _____ _____    ______ ____
ROOT
ATOM      1  O   UNL     1       6.519   5.610  14.288  0.00  0.00    +0.000 OA
ATOM      2  C   UNL     1       6.225   5.299  15.445  0.00  0.00    +0.000 C 
ATOM      3  C   UNL     1       6.989   4.233  16.175  0.00  0.00    +0.000 C 
ATOM      4  C   UNL     1       7.063   4.505  17.652  0.00  0.00    +0.000 C 
ATOM      5  O   UNL     1       8.115   4.369  18.279  0.00  0.00    +0.000 OA
ATOM      6  C   UNL     1       5.780   4.892  18.353  0.00  0.00    +0.000 C 
ATOM      7  C   UNL     1       5.165   6.112  17.615  0.00  0.00    +0.000 C 
ATOM      8  C   UNL     1       4.990   5.864  16.101  0.00  0.00    +0.000 C 
ENDROOT
BRANCH   7   9
ATOM      9  C   UNL     1       3.908   6.653  18.301  0.00  0.00    +0.000 A 
ATOM     10  C   UNL     1       3.371   6.062  19.457  0.00  0.00    +0.000 A 
ATOM     11  C   UNL     1       2.247   6.594  20.093  0.00  0.00    +0.000 A 
ATOM     12  C   UNL     1       1.621   7.722  19.575  0.00  0.00    +0.000 A 
ATOM     13  C   UNL     1       2.114   8.298  18.409  0.00  0.00    +0.000 A 
ATOM     14 CL   UNL     1       1.323   9.677  17.747  0.00  0.00    +0.000 Cl
ATOM     15  C   UNL     1       3.243   7.773  17.771  0.00  0.00    +0.000 A 
ENDBRANCH   7   9
BRANCH   6  16
ATOM     16  N   UNL     1       4.948   3.717  18.497  0.00  0.00    +0.000 N 
ATOM     17  C   UNL     1       4.063   3.212  17.595  0.00  0.00    +0.000 A 
ATOM     18  N   UNL     1       3.426   2.197  18.129  0.00  0.00    +0.000 NA
ATOM     19  C   UNL     1       3.955   2.122  19.382  0.00  0.00    +0.000 A 
ATOM     20  N   UNL     1       4.875   3.048  19.663  0.00  0.00    +0.000 NA
ENDBRANCH   6  16
TORSDOF 2
ENDMDL
MODEL 8
REMARK VINA RESULT:      -7.6      2.962      4.977
REMARK  Name = 
REMARK  2 active torsions:
REMARK  status: ('A' for Active; 'I' for Inactive)
REMARK    1  A    between atoms: C_6  and  N_7
REMARK    2  A    between atoms: C_12  and  C_13
REMARK                            x       y       z     vdW  Elec       q    Type
REMARK                         _______ _______ _______ _____ _____    ______ ____
ROOT
ATOM      1  O   UNL     1       2.314   2.430  22.052  0.00  0.00    +0.000 OA
ATOM      2  C   UNL     1       2.740   2.991  21.039  0.00  0.00    +0.000 C 
ATOM      3  C   UNL     1       3.587   2.250  20.046  0.00  0.00    +0.000 C 
ATOM      4  C   UNL     1       3.367   2.740  18.643  0.00  0.00    +0.000 C 
ATOM      5  O   UNL     1       3.237   1.956  17.701  0.00  0.00    +0.000 OA
ATOM      6  C   UNL     1       3.370   4.236  18.419  0.00  0.00    +0.000 C 
ATOM      7  C   UNL     1       2.334   4.880  19.379  0.00  0.00    +0.000 C 
ATOM      8  C   UNL     1       2.559   4.476  20.852  0.00  0.00    +0.000 C 
ENDROOT
BRANCH   7   9
ATOM      9  C   UNL     1       2.184   6.389  19.169  0.00  0.00    +0.000 A 
ATOM     10  C   UNL     1       2.477   7.009  17.943  0.00  0.00    +0.000 A 
ATOM     11  C   UNL     1       2.294   8.381  17.758  0.00  0.00    +0.000 A 
ATOM     12  C   UNL     1       1.830   9.170  18.803  0.00  0.00    +0.000 A 
ATOM     13  C   UNL     1       1.572   8.582  20.037  0.00  0.00    +0.000 A 
ATOM     14 CL   UNL     1       1.026   9.561  21.344  0.00  0.00    +0.000 Cl
ATOM     15  C   UNL     1       1.748   7.207  20.227  0.00  0.00    +0.000 A 
ENDBRANCH   7   9
BRANCH   6  16
ATOM     16  N   UNL     1       4.732   4.720  18.492  0.00  0.00    +0.000 N 
ATOM     17  C   UNL     1       5.712   4.584  17.556  0.00  0.00    +0.000 A 
ATOM     18  N   UNL     1       6.837   5.067  18.029  0.00  0.00    +0.000 NA
ATOM     19  C   UNL     1       6.495   5.485  19.280  0.00  0.00    +0.000 A 
ATOM     20  N   UNL     1       5.221   5.271  19.618  0.00  0.00    +0.000 NA
ENDBRANCH   6  16
TORSDOF 2
ENDMDL
MODEL 9
REMARK VINA RESULT:      -7.5      3.444      5.573
REMARK  Name = 
REMARK  2 active torsions:
REMARK  status: ('A' for Active; 'I' for Inactive)
REMARK    1  A    between atoms: C_6  and  N_7
REMARK    2  A    between atoms: C_12  and  C_13
REMARK                            x       y       z     vdW  Elec       q    Type
REMARK                         _______ _______ _______ _____ _____    ______ ____
ROOT
ATOM      1  O   UNL     1       6.110   5.845  15.319  0.00  0.00    +0.000 OA
ATOM      2  C   UNL     1       5.402   5.642  16.308  0.00  0.00    +0.000 C 
ATOM      3  C   UNL     1       5.532   4.376  17.103  0.00  0.00    +0.000 C 
ATOM      4  C   UNL     1       5.244   4.595  18.562  0.00  0.00    +0.000 C 
ATOM      5  O   UNL     1       5.960   4.110  19.439  0.00  0.00    +0.000 OA
ATOM      6  C   UNL     1       4.004   5.385  18.915  0.00  0.00    +0.000 C 
ATOM      7  C   UNL     1       4.059   6.747  18.170  0.00  0.00    +0.000 C 
ATOM      8  C   UNL     1       4.274   6.583  16.650  0.00  0.00    +0.000 C 
ENDROOT
BRANCH   7   9
ATOM      9  C   UNL     1       2.895   7.673  18.533  0.00  0.00    +0.000 A 
ATOM     10  C   UNL     1       2.347   8.584  17.615  0.00  0.00    +0.000 A 
ATOM     11  C   UNL     1       1.258   9.392  17.951  0.00  0.00    +0.000 A 
ATOM     12  C   UNL     1       0.702   9.319  19.223  0.00  0.00    +0.000 A 
ATOM     13  C   UNL     1       1.256   8.452  20.159  0.00  0.00    +0.000 A 
ATOM     14 CL   UNL     1       0.591   8.381  21.745  0.00  0.00    +0.000 Cl
ATOM     15  C   UNL     1       2.344   7.637  19.826  0.00  0.00    +0.000 A 
ENDBRANCH   7   9
BRANCH   6  16
ATOM     16  N   UNL     1       2.838   4.557  18.695  0.00  0.00    +0.000 N 
ATOM     17  C   UNL     1       2.145   4.393  17.536  0.00  0.00    +0.000 A 
ATOM     18  N   UNL     1       1.091   3.643  17.759  0.00  0.00    +0.000 NA
ATOM     19  C   UNL     1       1.177   3.376  19.092  0.00  0.00    +0.000 A 
ATOM     20  N   UNL     1       2.219   3.934  19.714  0.00  0.00    +0.000 NA
ENDBRANCH   6  16
TORSDOF 2
ENDMDL
