MODEL 1
REMARK VINA RESULT:      -7.5      0.000      0.000
REMARK  Name = 
REMARK  14 active torsions:
REMARK  status: ('A' for Active; 'I' for Inactive)
REMARK    1  A    between atoms: C_1  and  O_2
REMARK    2  A    between atoms: O_2  and  C_3
REMARK    3  A    between atoms: C_6  and  C_7
REMARK    4  A    between atoms: N_9  and  C_10
REMARK    5  A    between atoms: C_10  and  C_11
REMARK    6  A    between atoms: C_11  and  C_12
REMARK    7  A    between atoms: C_15  and  O_16
REMARK    8  A    between atoms: O_16  and  C_17
REMARK    9  A    between atoms: C_18  and  O_19
REMARK   10  A    between atoms: O_19  and  C_20
REMARK   11  A    between atoms: C_23  and  C_24
REMARK   12  A    between atoms: C_24  and  N_25
REMARK   13  A    between atoms: C_26  and  C_28
REMARK   14  A    between atoms: C_31  and  C_32
REMARK                            x       y       z     vdW  Elec       q    Type
REMARK                         _______ _______ _______ _____ _____    ______ ____
ROOT
ATOM      1  C   UNL     1       0.454  10.157  19.930  0.00  0.00    +0.000 C 
ATOM      2  C   UNL     1       1.075  11.345  20.701  0.00  0.00    +0.000 C 
ATOM      3  N   UNL     1       0.186  11.609  21.858  0.00  0.00    +0.000 NA
ATOM      4  C   UNL     1      -0.352  10.285  22.226  0.00  0.00    +0.000 C 
ATOM      5  C   UNL     1       0.046   9.270  21.139  0.00  0.00    +0.000 C 
ENDROOT
BRANCH   1   9
ATOM      6  C   UNL     1      -2.605  11.187  17.007  0.00  0.00    +0.000 A 
ATOM      7  C   UNL     1      -2.702  10.013  17.742  0.00  0.00    +0.000 A 
ATOM      8  C   UNL     1      -1.784   9.746  18.760  0.00  0.00    +0.000 A 
ATOM      9  C   UNL     1      -0.682  10.593  18.997  0.00  0.00    +0.000 A 
ATOM     10  C   UNL     1      -0.637  11.798  18.288  0.00  0.00    +0.000 A 
ATOM     11  C   UNL     1      -1.576  12.083  17.291  0.00  0.00    +0.000 A 
BRANCH   6  13
ATOM     12  C   UNL     1      -3.357  10.492  14.895  0.00  0.00    +0.000 C 
ATOM     13  O   UNL     1      -3.532  11.350  16.016  0.00  0.00    +0.000 OA
ENDBRANCH   6  13
ENDBRANCH   1   9
BRANCH   3  14
ATOM     14  C   UNL     1      -0.901  12.570  21.528  0.00  0.00    +0.000 C 
BRANCH  14  15
ATOM     15  C   UNL     1      -2.096  12.543  22.504  0.00  0.00    +0.000 C 
BRANCH  15  16
ATOM     16  C   UNL     1      -3.432  12.592  21.788  0.00  0.00    +0.000 A 
ATOM     17  C   UNL     1      -3.523  12.575  20.394  0.00  0.00    +0.000 A 
ATOM     18  C   UNL     1      -4.774  12.662  19.772  0.00  0.00    +0.000 A 
ATOM     19  C   UNL     1      -5.955  12.788  20.520  0.00  0.00    +0.000 A 
ATOM     20  C   UNL     1      -5.875  12.774  21.921  0.00  0.00    +0.000 A 
ATOM     21  C   UNL     1      -4.613  12.684  22.537  0.00  0.00    +0.000 A 
BRANCH  19  22
ATOM     22  O   UNL     1      -7.068  12.901  19.728  0.00  0.00    +0.000 OA
ATOM     23  C   UNL     1      -7.089  12.227  18.478  0.00  0.00    +0.000 C 
ENDBRANCH  19  22
BRANCH  20  24
ATOM     24  O   UNL     1      -7.019  12.917  22.660  0.00  0.00    +0.000 OA
ATOM     25  C   UNL     1      -6.910  13.684  23.854  0.00  0.00    +0.000 C 
ENDBRANCH  20  24
ENDBRANCH  15  16
ENDBRANCH  14  15
ENDBRANCH   3  14
BRANCH   5  26
ATOM     26  C   UNL     1       1.204   8.362  21.598  0.00  0.00    +0.000 C 
BRANCH  26  27
ATOM     27  N   UNL     1       1.979   7.840  20.484  0.00  0.00    +0.000 N 
ATOM     28  C   UNL     1       2.105   6.492  20.220  0.00  0.00    +0.000 C 
ATOM     29  O   UNL     1       1.561   5.613  20.874  0.00  0.00    +0.000 OA
ATOM     30  H   UNL     1       2.353   8.511  19.827  0.00  0.00    +0.000 HD
BRANCH  28  31
ATOM     31  C   UNL     1       2.942   6.149  19.035  0.00  0.00    +0.000 A 
ATOM     32  C   UNL     1       3.574   7.148  18.282  0.00  0.00    +0.000 A 
ATOM     33  C   UNL     1       4.330   6.805  17.152  0.00  0.00    +0.000 A 
ATOM     34  C   UNL     1       4.469   5.466  16.780  0.00  0.00    +0.000 A 
ATOM     35  C   UNL     1       3.862   4.465  17.547  0.00  0.00    +0.000 A 
ATOM     36  C   UNL     1       3.105   4.804  18.677  0.00  0.00    +0.000 A 
BRANCH  34  37
ATOM     37  C   UNL     1       5.234   5.121  15.612  0.00  0.00    +0.000 C 
ATOM     38  N   UNL     1       5.836   4.834  14.664  0.00  0.00    +0.000 NA
ENDBRANCH  34  37
ENDBRANCH  28  31
ENDBRANCH  26  27
ENDBRANCH   5  26
TORSDOF 11
ENDMDL
MODEL 2
REMARK VINA RESULT:      -7.5      0.792      1.884
REMARK  Name = 
REMARK  14 active torsions:
REMARK  status: ('A' for Active; 'I' for Inactive)
REMARK    1  A    between atoms: C_1  and  O_2
REMARK    2  A    between atoms: O_2  and  C_3
REMARK    3  A    between atoms: C_6  and  C_7
REMARK    4  A    between atoms: N_9  and  C_10
REMARK    5  A    between atoms: C_10  and  C_11
REMARK    6  A    between atoms: C_11  and  C_12
REMARK    7  A    between atoms: C_15  and  O_16
REMARK    8  A    between atoms: O_16  and  C_17
REMARK    9  A    between atoms: C_18  and  O_19
REMARK   10  A    between atoms: O_19  and  C_20
REMARK   11  A    between atoms: C_23  and  C_24
REMARK   12  A    between atoms: C_24  and  N_25
REMARK   13  A    between atoms: C_26  and  C_28
REMARK   14  A    between atoms: C_31  and  C_32
REMARK                            x       y       z     vdW  Elec       q    Type
REMARK                         _______ _______ _______ _____ _____    ______ ____
ROOT
ATOM      1  C   UNL     1       0.570   9.929  20.069  0.00  0.00    +0.000 C 
ATOM      2  C   UNL     1       1.129  11.023  21.009  0.00  0.00    +0.000 C 
ATOM      3  N   UNL     1       0.175  11.136  22.138  0.00  0.00    +0.000 NA
ATOM      4  C   UNL     1      -0.358   9.771  22.316  0.00  0.00    +0.000 C 
ATOM      5  C   UNL     1       0.115   8.899  21.138  0.00  0.00    +0.000 C 
ENDROOT
BRANCH   1   9
ATOM      6  C   UNL     1      -2.331  11.295  17.123  0.00  0.00    +0.000 A 
ATOM      7  C   UNL     1      -2.401  10.005  17.633  0.00  0.00    +0.000 A 
ATOM      8  C   UNL     1      -1.543   9.611  18.662  0.00  0.00    +0.000 A 
ATOM      9  C   UNL     1      -0.522  10.462  19.133  0.00  0.00    +0.000 A 
ATOM     10  C   UNL     1      -0.508  11.775  18.650  0.00  0.00    +0.000 A 
ATOM     11  C   UNL     1      -1.390  12.180  17.643  0.00  0.00    +0.000 A 
BRANCH   6  13
ATOM     12  C   UNL     1      -3.339  10.540  15.141  0.00  0.00    +0.000 C 
ATOM     13  O   UNL     1      -3.192  11.580  16.101  0.00  0.00    +0.000 OA
ENDBRANCH   6  13
ENDBRANCH   1   9
BRANCH   3  14
ATOM     14  C   UNL     1      -0.909  12.117  21.867  0.00  0.00    +0.000 C 
BRANCH  14  15
ATOM     15  C   UNL     1      -1.541  12.738  23.130  0.00  0.00    +0.000 C 
BRANCH  15  16
ATOM     16  C   UNL     1      -3.049  12.861  23.025  0.00  0.00    +0.000 A 
ATOM     17  C   UNL     1      -3.872  12.835  24.155  0.00  0.00    +0.000 A 
ATOM     18  C   UNL     1      -5.262  12.912  24.011  0.00  0.00    +0.000 A 
ATOM     19  C   UNL     1      -5.862  12.997  22.746  0.00  0.00    +0.000 A 
ATOM     20  C   UNL     1      -5.042  13.057  21.609  0.00  0.00    +0.000 A 
ATOM     21  C   UNL     1      -3.646  12.980  21.763  0.00  0.00    +0.000 A 
BRANCH  19  22
ATOM     22  O   UNL     1      -7.232  13.022  22.815  0.00  0.00    +0.000 OA
ATOM     23  C   UNL     1      -7.915  11.853  23.245  0.00  0.00    +0.000 C 
ENDBRANCH  19  22
BRANCH  20  24
ATOM     24  O   UNL     1      -5.619  13.118  20.368  0.00  0.00    +0.000 OA
ATOM     25  C   UNL     1      -5.970  11.875  19.770  0.00  0.00    +0.000 C 
ENDBRANCH  20  24
ENDBRANCH  15  16
ENDBRANCH  14  15
ENDBRANCH   3  14
BRANCH   5  26
ATOM     26  C   UNL     1       1.263   7.955  21.548  0.00  0.00    +0.000 C 
BRANCH  26  27
ATOM     27  N   UNL     1       2.084   7.553  20.418  0.00  0.00    +0.000 N 
ATOM     28  C   UNL     1       2.172   6.249  19.977  0.00  0.00    +0.000 C 
ATOM     29  O   UNL     1       1.553   5.316  20.472  0.00  0.00    +0.000 OA
ATOM     30  H   UNL     1       2.526   8.288  19.883  0.00  0.00    +0.000 HD
BRANCH  28  31
ATOM     31  C   UNL     1       3.068   6.029  18.806  0.00  0.00    +0.000 A 
ATOM     32  C   UNL     1       3.556   4.751  18.499  0.00  0.00    +0.000 A 
ATOM     33  C   UNL     1       4.423   4.573  17.412  0.00  0.00    +0.000 A 
ATOM     34  C   UNL     1       4.793   5.663  16.622  0.00  0.00    +0.000 A 
ATOM     35  C   UNL     1       4.285   6.935  16.910  0.00  0.00    +0.000 A 
ATOM     36  C   UNL     1       3.418   7.118  17.997  0.00  0.00    +0.000 A 
BRANCH  34  37
ATOM     37  C   UNL     1       5.695   5.476  15.516  0.00  0.00    +0.000 C 
ATOM     38  N   UNL     1       6.413   5.309  14.623  0.00  0.00    +0.000 NA
ENDBRANCH  34  37
ENDBRANCH  28  31
ENDBRANCH  26  27
ENDBRANCH   5  26
TORSDOF 11
ENDMDL
MODEL 3
REMARK VINA RESULT:      -7.1      1.615      2.240
REMARK  Name = 
REMARK  14 active torsions:
REMARK  status: ('A' for Active; 'I' for Inactive)
REMARK    1  A    between atoms: C_1  and  O_2
REMARK    2  A    between atoms: O_2  and  C_3
REMARK    3  A    between atoms: C_6  and  C_7
REMARK    4  A    between atoms: N_9  and  C_10
REMARK    5  A    between atoms: C_10  and  C_11
REMARK    6  A    between atoms: C_11  and  C_12
REMARK    7  A    between atoms: C_15  and  O_16
REMARK    8  A    between atoms: O_16  and  C_17
REMARK    9  A    between atoms: C_18  and  O_19
REMARK   10  A    between atoms: O_19  and  C_20
REMARK   11  A    between atoms: C_23  and  C_24
REMARK   12  A    between atoms: C_24  and  N_25
REMARK   13  A    between atoms: C_26  and  C_28
REMARK   14  A    between atoms: C_31  and  C_32
REMARK                            x       y       z     vdW  Elec       q    Type
REMARK                         _______ _______ _______ _____ _____    ______ ____
ROOT
ATOM      1  C   UNL     1       0.616  10.110  20.198  0.00  0.00    +0.000 C 
ATOM      2  C   UNL     1       0.891  11.133  21.325  0.00  0.00    +0.000 C 
ATOM      3  N   UNL     1      -0.167  10.932  22.345  0.00  0.00    +0.000 NA
ATOM      4  C   UNL     1      -0.471   9.489  22.288  0.00  0.00    +0.000 C 
ATOM      5  C   UNL     1       0.249   8.879  21.071  0.00  0.00    +0.000 C 
ENDROOT
BRANCH   1   9
ATOM      6  C   UNL     1      -2.238  11.322  17.141  0.00  0.00    +0.000 A 
ATOM      7  C   UNL     1      -2.304  10.053  17.699  0.00  0.00    +0.000 A 
ATOM      8  C   UNL     1      -1.463   9.711  18.761  0.00  0.00    +0.000 A 
ATOM      9  C   UNL     1      -0.463  10.592  19.220  0.00  0.00    +0.000 A 
ATOM     10  C   UNL     1      -0.454  11.885  18.685  0.00  0.00    +0.000 A 
ATOM     11  C   UNL     1      -1.319  12.240  17.645  0.00  0.00    +0.000 A 
BRANCH   6  13
ATOM     12  C   UNL     1      -3.262  10.448  15.217  0.00  0.00    +0.000 C 
ATOM     13  O   UNL     1      -3.081  11.557  16.091  0.00  0.00    +0.000 OA
ENDBRANCH   6  13
ENDBRANCH   1   9
BRANCH   3  14
ATOM     14  C   UNL     1      -1.374  11.758  22.078  0.00  0.00    +0.000 C 
BRANCH  14  15
ATOM     15  C   UNL     1      -1.419  13.092  22.851  0.00  0.00    +0.000 C 
BRANCH  15  16
ATOM     16  C   UNL     1      -2.835  13.532  23.170  0.00  0.00    +0.000 A 
ATOM     17  C   UNL     1      -3.892  12.620  23.243  0.00  0.00    +0.000 A 
ATOM     18  C   UNL     1      -5.191  13.072  23.502  0.00  0.00    +0.000 A 
ATOM     19  C   UNL     1      -5.469  14.437  23.674  0.00  0.00    +0.000 A 
ATOM     20  C   UNL     1      -4.409  15.355  23.635  0.00  0.00    +0.000 A 
ATOM     21  C   UNL     1      -3.107  14.892  23.376  0.00  0.00    +0.000 A 
BRANCH  19  22
ATOM     22  O   UNL     1      -6.804  14.679  23.876  0.00  0.00    +0.000 OA
ATOM     23  C   UNL     1      -7.636  13.610  24.300  0.00  0.00    +0.000 C 
ENDBRANCH  19  22
BRANCH  20  24
ATOM     24  O   UNL     1      -4.673  16.692  23.780  0.00  0.00    +0.000 OA
ATOM     25  C   UNL     1      -4.644  17.202  25.109  0.00  0.00    +0.000 C 
ENDBRANCH  20  24
ENDBRANCH  15  16
ENDBRANCH  14  15
ENDBRANCH   3  14
BRANCH   5  26
ATOM     26  C   UNL     1       1.500   8.080  21.486  0.00  0.00    +0.000 C 
BRANCH  26  27
ATOM     27  N   UNL     1       2.215   7.530  20.345  0.00  0.00    +0.000 N 
ATOM     28  C   UNL     1       2.191   6.191  20.016  0.00  0.00    +0.000 C 
ATOM     29  O   UNL     1       1.552   5.347  20.628  0.00  0.00    +0.000 OA
ATOM     30  H   UNL     1       2.662   8.187  19.720  0.00  0.00    +0.000 HD
BRANCH  28  31
ATOM     31  C   UNL     1       2.987   5.815  18.813  0.00  0.00    +0.000 A 
ATOM     32  C   UNL     1       2.975   4.503  18.319  0.00  0.00    +0.000 A 
ATOM     33  C   UNL     1       3.758   4.164  17.206  0.00  0.00    +0.000 A 
ATOM     34  C   UNL     1       4.540   5.133  16.576  0.00  0.00    +0.000 A 
ATOM     35  C   UNL     1       4.532   6.450  17.050  0.00  0.00    +0.000 A 
ATOM     36  C   UNL     1       3.752   6.793  18.163  0.00  0.00    +0.000 A 
BRANCH  34  37
ATOM     37  C   UNL     1       5.352   4.775  15.443  0.00  0.00    +0.000 C 
ATOM     38  N   UNL     1       6.010   4.471  14.538  0.00  0.00    +0.000 NA
ENDBRANCH  34  37
ENDBRANCH  28  31
ENDBRANCH  26  27
ENDBRANCH   5  26
TORSDOF 11
ENDMDL
MODEL 4
REMARK VINA RESULT:      -7.0      1.402      2.359
REMARK  Name = 
REMARK  14 active torsions:
REMARK  status: ('A' for Active; 'I' for Inactive)
REMARK    1  A    between atoms: C_1  and  O_2
REMARK    2  A    between atoms: O_2  and  C_3
REMARK    3  A    between atoms: C_6  and  C_7
REMARK    4  A    between atoms: N_9  and  C_10
REMARK    5  A    between atoms: C_10  and  C_11
REMARK    6  A    between atoms: C_11  and  C_12
REMARK    7  A    between atoms: C_15  and  O_16
REMARK    8  A    between atoms: O_16  and  C_17
REMARK    9  A    between atoms: C_18  and  O_19
REMARK   10  A    between atoms: O_19  and  C_20
REMARK   11  A    between atoms: C_23  and  C_24
REMARK   12  A    between atoms: C_24  and  N_25
REMARK   13  A    between atoms: C_26  and  C_28
REMARK   14  A    between atoms: C_31  and  C_32
REMARK                            x       y       z     vdW  Elec       q    Type
REMARK                         _______ _______ _______ _____ _____    ______ ____
ROOT
ATOM      1  C   UNL     1       0.593   9.974  20.234  0.00  0.00    +0.000 C 
ATOM      2  C   UNL     1       0.980  11.005  21.321  0.00  0.00    +0.000 C 
ATOM      3  N   UNL     1      -0.039  10.893  22.392  0.00  0.00    +0.000 NA
ATOM      4  C   UNL     1      -0.432   9.471  22.386  0.00  0.00    +0.000 C 
ATOM      5  C   UNL     1       0.193   8.789  21.155  0.00  0.00    +0.000 C 
ENDROOT
BRANCH   1   9
ATOM      6  C   UNL     1      -2.307  11.308  17.272  0.00  0.00    +0.000 A 
ATOM      7  C   UNL     1      -2.383  10.027  17.802  0.00  0.00    +0.000 A 
ATOM      8  C   UNL     1      -1.525   9.645  18.836  0.00  0.00    +0.000 A 
ATOM      9  C   UNL     1      -0.499  10.498  19.293  0.00  0.00    +0.000 A 
ATOM     10  C   UNL     1      -0.479  11.803  18.789  0.00  0.00    +0.000 A 
ATOM     11  C   UNL     1      -1.361  12.197  17.777  0.00  0.00    +0.000 A 
BRANCH   6  13
ATOM     12  C   UNL     1      -3.134  10.645  15.178  0.00  0.00    +0.000 C 
ATOM     13  O   UNL     1      -3.169  11.581  16.248  0.00  0.00    +0.000 OA
ENDBRANCH   6  13
ENDBRANCH   1   9
BRANCH   3  14
ATOM     14  C   UNL     1      -1.206  11.785  22.157  0.00  0.00    +0.000 C 
BRANCH  14  15
ATOM     15  C   UNL     1      -2.330  11.657  23.206  0.00  0.00    +0.000 C 
BRANCH  15  16
ATOM     16  C   UNL     1      -3.150  12.926  23.337  0.00  0.00    +0.000 A 
ATOM     17  C   UNL     1      -2.696  14.025  24.073  0.00  0.00    +0.000 A 
ATOM     18  C   UNL     1      -3.501  15.162  24.202  0.00  0.00    +0.000 A 
ATOM     19  C   UNL     1      -4.777  15.224  23.622  0.00  0.00    +0.000 A 
ATOM     20  C   UNL     1      -5.227  14.139  22.855  0.00  0.00    +0.000 A 
ATOM     21  C   UNL     1      -4.411  13.000  22.729  0.00  0.00    +0.000 A 
BRANCH  19  22
ATOM     22  O   UNL     1      -5.423  16.403  23.898  0.00  0.00    +0.000 OA
ATOM     23  C   UNL     1      -4.930  17.222  24.948  0.00  0.00    +0.000 C 
ENDBRANCH  19  22
BRANCH  20  24
ATOM     24  O   UNL     1      -6.480  14.180  22.302  0.00  0.00    +0.000 OA
ATOM     25  C   UNL     1      -7.550  13.727  23.123  0.00  0.00    +0.000 C 
ENDBRANCH  20  24
ENDBRANCH  15  16
ENDBRANCH  14  15
ENDBRANCH   3  14
BRANCH   5  26
ATOM     26  C   UNL     1       1.411   7.925  21.536  0.00  0.00    +0.000 C 
BRANCH  26  27
ATOM     27  N   UNL     1       2.194   7.524  20.378  0.00  0.00    +0.000 N 
ATOM     28  C   UNL     1       2.252   6.223  19.922  0.00  0.00    +0.000 C 
ATOM     29  O   UNL     1       1.638   5.293  20.425  0.00  0.00    +0.000 OA
ATOM     30  H   UNL     1       2.628   8.259  19.836  0.00  0.00    +0.000 HD
BRANCH  28  31
ATOM     31  C   UNL     1       3.110   6.005  18.722  0.00  0.00    +0.000 A 
ATOM     32  C   UNL     1       3.373   4.712  18.248  0.00  0.00    +0.000 A 
ATOM     33  C   UNL     1       4.209   4.528  17.137  0.00  0.00    +0.000 A 
ATOM     34  C   UNL     1       4.770   5.630  16.489  0.00  0.00    +0.000 A 
ATOM     35  C   UNL     1       4.486   6.923  16.944  0.00  0.00    +0.000 A 
ATOM     36  C   UNL     1       3.651   7.112  18.055  0.00  0.00    +0.000 A 
BRANCH  34  37
ATOM     37  C   UNL     1       5.638   5.434  15.359  0.00  0.00    +0.000 C 
ATOM     38  N   UNL     1       6.325   5.264  14.441  0.00  0.00    +0.000 NA
ENDBRANCH  34  37
ENDBRANCH  28  31
ENDBRANCH  26  27
ENDBRANCH   5  26
TORSDOF 11
ENDMDL
MODEL 5
REMARK VINA RESULT:      -7.0      4.477      8.369
REMARK  Name = 
REMARK  14 active torsions:
REMARK  status: ('A' for Active; 'I' for Inactive)
REMARK    1  A    between atoms: C_1  and  O_2
REMARK    2  A    between atoms: O_2  and  C_3
REMARK    3  A    between atoms: C_6  and  C_7
REMARK    4  A    between atoms: N_9  and  C_10
REMARK    5  A    between atoms: C_10  and  C_11
REMARK    6  A    between atoms: C_11  and  C_12
REMARK    7  A    between atoms: C_15  and  O_16
REMARK    8  A    between atoms: O_16  and  C_17
REMARK    9  A    between atoms: C_18  and  O_19
REMARK   10  A    between atoms: O_19  and  C_20
REMARK   11  A    between atoms: C_23  and  C_24
REMARK   12  A    between atoms: C_24  and  N_25
REMARK   13  A    between atoms: C_26  and  C_28
REMARK   14  A    between atoms: C_31  and  C_32
REMARK                            x       y       z     vdW  Elec       q    Type
REMARK                         _______ _______ _______ _____ _____    ______ ____
ROOT
ATOM      1  C   UNL     1       5.323   5.258  16.903  0.00  0.00    +0.000 C 
ATOM      2  C   UNL     1       4.467   6.311  16.160  0.00  0.00    +0.000 C 
ATOM      3  N   UNL     1       4.131   7.359  17.153  0.00  0.00    +0.000 NA
ATOM      4  C   UNL     1       5.294   7.402  18.059  0.00  0.00    +0.000 C 
ATOM      5  C   UNL     1       6.221   6.217  17.732  0.00  0.00    +0.000 C 
ENDROOT
BRANCH   1   9
ATOM      6  C   UNL     1       2.674   2.742  19.273  0.00  0.00    +0.000 A 
ATOM      7  C   UNL     1       2.368   3.035  17.951  0.00  0.00    +0.000 A 
ATOM      8  C   UNL     1       3.277   3.742  17.162  0.00  0.00    +0.000 A 
ATOM      9  C   UNL     1       4.468   4.268  17.704  0.00  0.00    +0.000 A 
ATOM     10  C   UNL     1       4.786   3.910  19.019  0.00  0.00    +0.000 A 
ATOM     11  C   UNL     1       3.890   3.173  19.800  0.00  0.00    +0.000 A 
BRANCH   6  13
ATOM     12  C   UNL     1       1.403   2.630  21.243  0.00  0.00    +0.000 C 
ATOM     13  O   UNL     1       1.713   2.069  19.973  0.00  0.00    +0.000 OA
ENDBRANCH   6  13
ENDBRANCH   1   9
BRANCH   3  14
ATOM     14  C   UNL     1       2.873   7.058  17.889  0.00  0.00    +0.000 C 
BRANCH  14  15
ATOM     15  C   UNL     1       1.796   8.158  17.791  0.00  0.00    +0.000 C 
BRANCH  15  16
ATOM     16  C   UNL     1       1.471   8.775  19.137  0.00  0.00    +0.000 A 
ATOM     17  C   UNL     1       1.554   8.043  20.324  0.00  0.00    +0.000 A 
ATOM     18  C   UNL     1       1.207   8.639  21.542  0.00  0.00    +0.000 A 
ATOM     19  C   UNL     1       0.754   9.966  21.603  0.00  0.00    +0.000 A 
ATOM     20  C   UNL     1       0.699  10.719  20.419  0.00  0.00    +0.000 A 
ATOM     21  C   UNL     1       1.051  10.112  19.201  0.00  0.00    +0.000 A 
BRANCH  19  22
ATOM     22  O   UNL     1       0.426  10.351  22.877  0.00  0.00    +0.000 OA
ATOM     23  C   UNL     1      -0.944  10.393  23.247  0.00  0.00    +0.000 C 
ENDBRANCH  19  22
BRANCH  20  24
ATOM     24  O   UNL     1       0.238  12.008  20.465  0.00  0.00    +0.000 OA
ATOM     25  C   UNL     1       1.223  13.035  20.424  0.00  0.00    +0.000 C 
ENDBRANCH  20  24
ENDBRANCH  15  16
ENDBRANCH  14  15
ENDBRANCH   3  14
BRANCH   5  26
ATOM     26  C   UNL     1       7.465   6.663  16.939  0.00  0.00    +0.000 C 
BRANCH  26  27
ATOM     27  N   UNL     1       7.849   8.036  17.230  0.00  0.00    +0.000 N 
ATOM     28  C   UNL     1       8.476   8.411  18.400  0.00  0.00    +0.000 C 
ATOM     29  O   UNL     1       8.792   7.630  19.287  0.00  0.00    +0.000 OA
ATOM     30  H   UNL     1       7.733   8.714  16.490  0.00  0.00    +0.000 HD
BRANCH  28  31
ATOM     31  C   UNL     1       8.790   9.863  18.520  0.00  0.00    +0.000 A 
ATOM     32  C   UNL     1       8.310  10.786  17.579  0.00  0.00    +0.000 A 
ATOM     33  C   UNL     1       8.644  12.143  17.693  0.00  0.00    +0.000 A 
ATOM     34  C   UNL     1       9.443  12.583  18.750  0.00  0.00    +0.000 A 
ATOM     35  C   UNL     1       9.900  11.668  19.704  0.00  0.00    +0.000 A 
ATOM     36  C   UNL     1       9.569  10.310  19.595  0.00  0.00    +0.000 A 
BRANCH  34  37
ATOM     37  C   UNL     1       9.795  13.975  18.853  0.00  0.00    +0.000 C 
ATOM     38  N   UNL     1      10.071  15.099  18.919  0.00  0.00    +0.000 NA
ENDBRANCH  34  37
ENDBRANCH  28  31
ENDBRANCH  26  27
ENDBRANCH   5  26
TORSDOF 11
ENDMDL
MODEL 6
REMARK VINA RESULT:      -6.8      1.107      2.245
REMARK  Name = 
REMARK  14 active torsions:
REMARK  status: ('A' for Active; 'I' for Inactive)
REMARK    1  A    between atoms: C_1  and  O_2
REMARK    2  A    between atoms: O_2  and  C_3
REMARK    3  A    between atoms: C_6  and  C_7
REMARK    4  A    between atoms: N_9  and  C_10
REMARK    5  A    between atoms: C_10  and  C_11
REMARK    6  A    between atoms: C_11  and  C_12
REMARK    7  A    between atoms: C_15  and  O_16
REMARK    8  A    between atoms: O_16  and  C_17
REMARK    9  A    between atoms: C_18  and  O_19
REMARK   10  A    between atoms: O_19  and  C_20
REMARK   11  A    between atoms: C_23  and  C_24
REMARK   12  A    between atoms: C_24  and  N_25
REMARK   13  A    between atoms: C_26  and  C_28
REMARK   14  A    between atoms: C_31  and  C_32
REMARK                            x       y       z     vdW  Elec       q    Type
REMARK                         _______ _______ _______ _____ _____    ______ ____
ROOT
ATOM      1  C   UNL     1       0.664   9.987  20.101  0.00  0.00    +0.000 C 
ATOM      2  C   UNL     1       0.942  11.033  21.206  0.00  0.00    +0.000 C 
ATOM      3  N   UNL     1      -0.096  10.835  22.246  0.00  0.00    +0.000 NA
ATOM      4  C   UNL     1      -0.381   9.387  22.218  0.00  0.00    +0.000 C 
ATOM      5  C   UNL     1       0.328   8.767  21.001  0.00  0.00    +0.000 C 
ENDROOT
BRANCH   1   9
ATOM      6  C   UNL     1      -2.690  11.294  17.651  0.00  0.00    +0.000 A 
ATOM      7  C   UNL     1      -1.876  12.225  18.281  0.00  0.00    +0.000 A 
ATOM      8  C   UNL     1      -0.734  11.806  18.968  0.00  0.00    +0.000 A 
ATOM      9  C   UNL     1      -0.435  10.437  19.132  0.00  0.00    +0.000 A 
ATOM     10  C   UNL     1      -1.233   9.520  18.438  0.00  0.00    +0.000 A 
ATOM     11  C   UNL     1      -2.358   9.942  17.723  0.00  0.00    +0.000 A 
BRANCH   6  13
ATOM     12  C   UNL     1      -4.984  11.767  17.812  0.00  0.00    +0.000 C 
ATOM     13  O   UNL     1      -3.797  11.795  17.027  0.00  0.00    +0.000 OA
ENDBRANCH   6  13
ENDBRANCH   1   9
BRANCH   3  14
ATOM     14  C   UNL     1      -1.319  11.640  21.984  0.00  0.00    +0.000 C 
BRANCH  14  15
ATOM     15  C   UNL     1      -1.399  12.959  22.780  0.00  0.00    +0.000 C 
BRANCH  15  16
ATOM     16  C   UNL     1      -2.813  13.498  22.871  0.00  0.00    +0.000 A 
ATOM     17  C   UNL     1      -3.228  14.306  23.934  0.00  0.00    +0.000 A 
ATOM     18  C   UNL     1      -4.553  14.751  24.001  0.00  0.00    +0.000 A 
ATOM     19  C   UNL     1      -5.496  14.387  23.028  0.00  0.00    +0.000 A 
ATOM     20  C   UNL     1      -5.081  13.602  21.941  0.00  0.00    +0.000 A 
ATOM     21  C   UNL     1      -3.746  13.162  21.881  0.00  0.00    +0.000 A 
BRANCH  19  22
ATOM     22  O   UNL     1      -6.745  14.887  23.293  0.00  0.00    +0.000 OA
ATOM     23  C   UNL     1      -7.636  14.115  24.085  0.00  0.00    +0.000 C 
ENDBRANCH  19  22
BRANCH  20  24
ATOM     24  O   UNL     1      -5.998  13.224  20.996  0.00  0.00    +0.000 OA
ATOM     25  C   UNL     1      -6.573  11.931  21.153  0.00  0.00    +0.000 C 
ENDBRANCH  20  24
ENDBRANCH  15  16
ENDBRANCH  14  15
ENDBRANCH   3  14
BRANCH   5  26
ATOM     26  C   UNL     1       1.596   7.992  21.410  0.00  0.00    +0.000 C 
BRANCH  26  27
ATOM     27  N   UNL     1       2.311   7.448  20.266  0.00  0.00    +0.000 N 
ATOM     28  C   UNL     1       2.288   6.111  19.928  0.00  0.00    +0.000 C 
ATOM     29  O   UNL     1       1.648   5.263  20.536  0.00  0.00    +0.000 OA
ATOM     30  H   UNL     1       2.759   8.109  19.646  0.00  0.00    +0.000 HD
BRANCH  28  31
ATOM     31  C   UNL     1       3.085   5.742  18.724  0.00  0.00    +0.000 A 
ATOM     32  C   UNL     1       3.140   4.416  18.272  0.00  0.00    +0.000 A 
ATOM     33  C   UNL     1       3.922   4.086  17.156  0.00  0.00    +0.000 A 
ATOM     34  C   UNL     1       4.637   5.078  16.482  0.00  0.00    +0.000 A 
ATOM     35  C   UNL     1       4.562   6.406  16.914  0.00  0.00    +0.000 A 
ATOM     36  C   UNL     1       3.781   6.741  18.030  0.00  0.00    +0.000 A 
BRANCH  34  37
ATOM     37  C   UNL     1       5.450   4.730  15.346  0.00  0.00    +0.000 C 
ATOM     38  N   UNL     1       6.095   4.433  14.430  0.00  0.00    +0.000 NA
ENDBRANCH  34  37
ENDBRANCH  28  31
ENDBRANCH  26  27
ENDBRANCH   5  26
TORSDOF 11
ENDMDL
MODEL 7
REMARK VINA RESULT:      -6.8      1.481      1.985
REMARK  Name = 
REMARK  14 active torsions:
REMARK  status: ('A' for Active; 'I' for Inactive)
REMARK    1  A    between atoms: C_1  and  O_2
REMARK    2  A    between atoms: O_2  and  C_3
REMARK    3  A    between atoms: C_6  and  C_7
REMARK    4  A    between atoms: N_9  and  C_10
REMARK    5  A    between atoms: C_10  and  C_11
REMARK    6  A    between atoms: C_11  and  C_12
REMARK    7  A    between atoms: C_15  and  O_16
REMARK    8  A    between atoms: O_16  and  C_17
REMARK    9  A    between atoms: C_18  and  O_19
REMARK   10  A    between atoms: O_19  and  C_20
REMARK   11  A    between atoms: C_23  and  C_24
REMARK   12  A    between atoms: C_24  and  N_25
REMARK   13  A    between atoms: C_26  and  C_28
REMARK   14  A    between atoms: C_31  and  C_32
REMARK                            x       y       z     vdW  Elec       q    Type
REMARK                         _______ _______ _______ _____ _____    ______ ____
ROOT
ATOM      1  C   UNL     1       0.525   9.943  20.225  0.00  0.00    +0.000 C 
ATOM      2  C   UNL     1       0.956  10.989  21.280  0.00  0.00    +0.000 C 
ATOM      3  N   UNL     1      -0.057  10.939  22.362  0.00  0.00    +0.000 NA
ATOM      4  C   UNL     1      -0.497   9.531  22.397  0.00  0.00    +0.000 C 
ATOM      5  C   UNL     1       0.094   8.797  21.180  0.00  0.00    +0.000 C 
ENDROOT
BRANCH   1   9
ATOM      6  C   UNL     1      -2.368  11.276  17.256  0.00  0.00    +0.000 A 
ATOM      7  C   UNL     1      -2.516  10.044  17.877  0.00  0.00    +0.000 A 
ATOM      8  C   UNL     1      -1.655   9.673  18.911  0.00  0.00    +0.000 A 
ATOM      9  C   UNL     1      -0.557  10.479  19.278  0.00  0.00    +0.000 A 
ATOM     10  C   UNL     1      -0.462  11.741  18.683  0.00  0.00    +0.000 A 
ATOM     11  C   UNL     1      -1.346  12.127  17.670  0.00  0.00    +0.000 A 
BRANCH   6  13
ATOM     12  C   UNL     1      -3.114  10.683  15.110  0.00  0.00    +0.000 C 
ATOM     13  O   UNL     1      -3.241  11.541  16.238  0.00  0.00    +0.000 OA
ENDBRANCH   6  13
ENDBRANCH   1   9
BRANCH   3  14
ATOM     14  C   UNL     1      -1.195  11.863  22.113  0.00  0.00    +0.000 C 
BRANCH  14  15
ATOM     15  C   UNL     1      -2.290  11.836  23.200  0.00  0.00    +0.000 C 
BRANCH  15  16
ATOM     16  C   UNL     1      -3.347  12.902  22.987  0.00  0.00    +0.000 A 
ATOM     17  C   UNL     1      -4.483  12.988  23.797  0.00  0.00    +0.000 A 
ATOM     18  C   UNL     1      -5.453  13.963  23.543  0.00  0.00    +0.000 A 
ATOM     19  C   UNL     1      -5.326  14.859  22.470  0.00  0.00    +0.000 A 
ATOM     20  C   UNL     1      -4.174  14.801  21.671  0.00  0.00    +0.000 A 
ATOM     21  C   UNL     1      -3.203  13.818  21.936  0.00  0.00    +0.000 A 
BRANCH  19  22
ATOM     22  O   UNL     1      -6.399  15.707  22.364  0.00  0.00    +0.000 OA
ATOM     23  C   UNL     1      -7.468  15.352  21.500  0.00  0.00    +0.000 C 
ENDBRANCH  19  22
BRANCH  20  24
ATOM     24  O   UNL     1      -4.050  15.656  20.608  0.00  0.00    +0.000 OA
ATOM     25  C   UNL     1      -3.102  16.709  20.749  0.00  0.00    +0.000 C 
ENDBRANCH  20  24
ENDBRANCH  15  16
ENDBRANCH  14  15
ENDBRANCH   3  14
BRANCH   5  26
ATOM     26  C   UNL     1       1.286   7.902  21.573  0.00  0.00    +0.000 C 
BRANCH  26  27
ATOM     27  N   UNL     1       2.113   7.542  20.432  0.00  0.00    +0.000 N 
ATOM     28  C   UNL     1       2.243   6.247  19.976  0.00  0.00    +0.000 C 
ATOM     29  O   UNL     1       1.662   5.287  20.464  0.00  0.00    +0.000 OA
ATOM     30  H   UNL     1       2.524   8.298  19.902  0.00  0.00    +0.000 HD
BRANCH  28  31
ATOM     31  C   UNL     1       3.137   6.072  18.795  0.00  0.00    +0.000 A 
ATOM     32  C   UNL     1       3.579   7.177  18.054  0.00  0.00    +0.000 A 
ATOM     33  C   UNL     1       4.393   6.987  16.928  0.00  0.00    +0.000 A 
ATOM     34  C   UNL     1       4.777   5.699  16.548  0.00  0.00    +0.000 A 
ATOM     35  C   UNL     1       4.358   4.598  17.302  0.00  0.00    +0.000 A 
ATOM     36  C   UNL     1       3.545   4.782  18.429  0.00  0.00    +0.000 A 
BRANCH  34  37
ATOM     37  C   UNL     1       5.599   5.510  15.382  0.00  0.00    +0.000 C 
ATOM     38  N   UNL     1       6.273   5.346  14.454  0.00  0.00    +0.000 NA
ENDBRANCH  34  37
ENDBRANCH  28  31
ENDBRANCH  26  27
ENDBRANCH   5  26
TORSDOF 11
ENDMDL
MODEL 8
REMARK VINA RESULT:      -6.7      2.954      4.521
REMARK  Name = 
REMARK  14 active torsions:
REMARK  status: ('A' for Active; 'I' for Inactive)
REMARK    1  A    between atoms: C_1  and  O_2
REMARK    2  A    between atoms: O_2  and  C_3
REMARK    3  A    between atoms: C_6  and  C_7
REMARK    4  A    between atoms: N_9  and  C_10
REMARK    5  A    between atoms: C_10  and  C_11
REMARK    6  A    between atoms: C_11  and  C_12
REMARK    7  A    between atoms: C_15  and  O_16
REMARK    8  A    between atoms: O_16  and  C_17
REMARK    9  A    between atoms: C_18  and  O_19
REMARK   10  A    between atoms: O_19  and  C_20
REMARK   11  A    between atoms: C_23  and  C_24
REMARK   12  A    between atoms: C_24  and  N_25
REMARK   13  A    between atoms: C_26  and  C_28
REMARK   14  A    between atoms: C_31  and  C_32
REMARK                            x       y       z     vdW  Elec       q    Type
REMARK                         _______ _______ _______ _____ _____    ______ ____
ROOT
ATOM      1  C   UNL     1       0.429   9.951  20.036  0.00  0.00    +0.000 C 
ATOM      2  C   UNL     1       1.046  11.090  20.882  0.00  0.00    +0.000 C 
ATOM      3  N   UNL     1       0.143  11.293  22.040  0.00  0.00    +0.000 NA
ATOM      4  C   UNL     1      -0.407   9.953  22.324  0.00  0.00    +0.000 C 
ATOM      5  C   UNL     1       0.001   8.999  21.186  0.00  0.00    +0.000 C 
ENDROOT
BRANCH   1   9
ATOM      6  C   UNL     1      -2.588  11.158  17.138  0.00  0.00    +0.000 A 
ATOM      7  C   UNL     1      -2.712   9.956  17.822  0.00  0.00    +0.000 A 
ATOM      8  C   UNL     1      -1.807   9.630  18.834  0.00  0.00    +0.000 A 
ATOM      9  C   UNL     1      -0.692  10.446  19.114  0.00  0.00    +0.000 A 
ATOM     10  C   UNL     1      -0.619  11.679  18.456  0.00  0.00    +0.000 A 
ATOM     11  C   UNL     1      -1.546  12.022  17.466  0.00  0.00    +0.000 A 
BRANCH   6  13
ATOM     12  C   UNL     1      -3.262  10.659  14.945  0.00  0.00    +0.000 C 
ATOM     13  O   UNL     1      -3.504  11.378  16.148  0.00  0.00    +0.000 OA
ENDBRANCH   6  13
ENDBRANCH   1   9
BRANCH   3  14
ATOM     14  C   UNL     1      -0.934  12.277  21.751  0.00  0.00    +0.000 C 
BRANCH  14  15
ATOM     15  C   UNL     1      -0.625  13.717  22.210  0.00  0.00    +0.000 C 
BRANCH  15  16
ATOM     16  C   UNL     1       0.214  14.481  21.205  0.00  0.00    +0.000 A 
ATOM     17  C   UNL     1      -0.272  14.810  19.936  0.00  0.00    +0.000 A 
ATOM     18  C   UNL     1       0.548  15.482  19.023  0.00  0.00    +0.000 A 
ATOM     19  C   UNL     1       1.872  15.822  19.343  0.00  0.00    +0.000 A 
ATOM     20  C   UNL     1       2.357  15.524  20.626  0.00  0.00    +0.000 A 
ATOM     21  C   UNL     1       1.525  14.851  21.537  0.00  0.00    +0.000 A 
BRANCH  19  22
ATOM     22  O   UNL     1       2.522  16.436  18.303  0.00  0.00    +0.000 OA
ATOM     23  C   UNL     1       3.388  15.662  17.486  0.00  0.00    +0.000 C 
ENDBRANCH  19  22
BRANCH  20  24
ATOM     24  O   UNL     1       3.654  15.833  20.941  0.00  0.00    +0.000 OA
ATOM     25  C   UNL     1       3.880  17.121  21.503  0.00  0.00    +0.000 C 
ENDBRANCH  20  24
ENDBRANCH  15  16
ENDBRANCH  14  15
ENDBRANCH   3  14
BRANCH   5  26
ATOM     26  C   UNL     1       1.147   8.060  21.609  0.00  0.00    +0.000 C 
BRANCH  26  27
ATOM     27  N   UNL     1       1.987   7.666  20.489  0.00  0.00    +0.000 N 
ATOM     28  C   UNL     1       2.170   6.353  20.110  0.00  0.00    +0.000 C 
ATOM     29  O   UNL     1       1.630   5.401  20.657  0.00  0.00    +0.000 OA
ATOM     30  H   UNL     1       2.365   8.406  19.912  0.00  0.00    +0.000 HD
BRANCH  28  31
ATOM     31  C   UNL     1       3.069   6.145  18.939  0.00  0.00    +0.000 A 
ATOM     32  C   UNL     1       3.464   7.220  18.131  0.00  0.00    +0.000 A 
ATOM     33  C   UNL     1       4.283   6.997  17.015  0.00  0.00    +0.000 A 
ATOM     34  C   UNL     1       4.720   5.706  16.711  0.00  0.00    +0.000 A 
ATOM     35  C   UNL     1       4.349   4.635  17.532  0.00  0.00    +0.000 A 
ATOM     36  C   UNL     1       3.529   4.853  18.648  0.00  0.00    +0.000 A 
BRANCH  34  37
ATOM     37  C   UNL     1       5.548   5.482  15.556  0.00  0.00    +0.000 C 
ATOM     38  N   UNL     1       6.224   5.317  14.630  0.00  0.00    +0.000 NA
ENDBRANCH  34  37
ENDBRANCH  28  31
ENDBRANCH  26  27
ENDBRANCH   5  26
TORSDOF 11
ENDMDL
MODEL 9
REMARK VINA RESULT:      -6.7      7.307      9.878
REMARK  Name = 
REMARK  14 active torsions:
REMARK  status: ('A' for Active; 'I' for Inactive)
REMARK    1  A    between atoms: C_1  and  O_2
REMARK    2  A    between atoms: O_2  and  C_3
REMARK    3  A    between atoms: C_6  and  C_7
REMARK    4  A    between atoms: N_9  and  C_10
REMARK    5  A    between atoms: C_10  and  C_11
REMARK    6  A    between atoms: C_11  and  C_12
REMARK    7  A    between atoms: C_15  and  O_16
REMARK    8  A    between atoms: O_16  and  C_17
REMARK    9  A    between atoms: C_18  and  O_19
REMARK   10  A    between atoms: O_19  and  C_20
REMARK   11  A    between atoms: C_23  and  C_24
REMARK   12  A    between atoms: C_24  and  N_25
REMARK   13  A    between atoms: C_26  and  C_28
REMARK   14  A    between atoms: C_31  and  C_32
REMARK                            x       y       z     vdW  Elec       q    Type
REMARK                         _______ _______ _______ _____ _____    ______ ____
ROOT
ATOM      1  C   UNL     1       9.127  11.784  17.554  0.00  0.00    +0.000 C 
ATOM      2  C   UNL     1      10.587  11.514  17.988  0.00  0.00    +0.000 C 
ATOM      3  N   UNL     1      10.543  11.173  19.430  0.00  0.00    +0.000 NA
ATOM      4  C   UNL     1       9.249  10.487  19.613  0.00  0.00    +0.000 C 
ATOM      5  C   UNL     1       8.429  10.625  18.317  0.00  0.00    +0.000 C 
ENDROOT
BRANCH   1   9
ATOM      6  C   UNL     1       7.750  15.867  18.182  0.00  0.00    +0.000 A 
ATOM      7  C   UNL     1       6.839  14.822  18.106  0.00  0.00    +0.000 A 
ATOM      8  C   UNL     1       7.291  13.504  18.023  0.00  0.00    +0.000 A 
ATOM      9  C   UNL     1       8.664  13.203  17.907  0.00  0.00    +0.000 A 
ATOM     10  C   UNL     1       9.566  14.264  18.047  0.00  0.00    +0.000 A 
ATOM     11  C   UNL     1       9.114  15.582  18.164  0.00  0.00    +0.000 A 
BRANCH   6  13
ATOM     12  C   UNL     1       6.628  17.467  19.484  0.00  0.00    +0.000 C 
ATOM     13  O   UNL     1       7.215  17.123  18.234  0.00  0.00    +0.000 OA
ENDBRANCH   6  13
ENDBRANCH   1   9
BRANCH   3  14
ATOM     14  C   UNL     1      10.653  12.376  20.299  0.00  0.00    +0.000 C 
BRANCH  14  15
ATOM     15  C   UNL     1      10.176  12.162  21.750  0.00  0.00    +0.000 C 
BRANCH  15  16
ATOM     16  C   UNL     1       8.792  12.732  21.997  0.00  0.00    +0.000 A 
ATOM     17  C   UNL     1       8.427  14.004  21.548  0.00  0.00    +0.000 A 
ATOM     18  C   UNL     1       7.153  14.509  21.832  0.00  0.00    +0.000 A 
ATOM     19  C   UNL     1       6.225  13.771  22.582  0.00  0.00    +0.000 A 
ATOM     20  C   UNL     1       6.572  12.479  23.008  0.00  0.00    +0.000 A 
ATOM     21  C   UNL     1       7.854  11.980  22.717  0.00  0.00    +0.000 A 
BRANCH  19  22
ATOM     22  O   UNL     1       5.053  14.453  22.786  0.00  0.00    +0.000 OA
ATOM     23  C   UNL     1       4.039  14.383  21.794  0.00  0.00    +0.000 C 
ENDBRANCH  19  22
BRANCH  20  24
ATOM     24  O   UNL     1       5.680  11.758  23.759  0.00  0.00    +0.000 OA
ATOM     25  C   UNL     1       6.002  11.589  25.135  0.00  0.00    +0.000 C 
ENDBRANCH  20  24
ENDBRANCH  15  16
ENDBRANCH  14  15
ENDBRANCH   3  14
BRANCH   5  26
ATOM     26  C   UNL     1       8.427   9.320  17.497  0.00  0.00    +0.000 C 
BRANCH  26  27
ATOM     27  N   UNL     1       7.322   8.442  17.849  0.00  0.00    +0.000 N 
ATOM     28  C   UNL     1       7.106   7.223  17.242  0.00  0.00    +0.000 C 
ATOM     29  O   UNL     1       7.830   6.752  16.375  0.00  0.00    +0.000 OA
ATOM     30  H   UNL     1       6.756   8.708  18.644  0.00  0.00    +0.000 HD
BRANCH  28  31
ATOM     31  C   UNL     1       5.921   6.464  17.735  0.00  0.00    +0.000 A 
ATOM     32  C   UNL     1       6.062   5.435  18.676  0.00  0.00    +0.000 A 
ATOM     33  C   UNL     1       4.938   4.712  19.101  0.00  0.00    +0.000 A 
ATOM     34  C   UNL     1       3.672   5.025  18.601  0.00  0.00    +0.000 A 
ATOM     35  C   UNL     1       3.526   6.070  17.683  0.00  0.00    +0.000 A 
ATOM     36  C   UNL     1       4.647   6.794  17.254  0.00  0.00    +0.000 A 
BRANCH  34  37
ATOM     37  C   UNL     1       2.525   4.270  19.031  0.00  0.00    +0.000 C 
ATOM     38  N   UNL     1       1.605   3.649  19.364  0.00  0.00    +0.000 NA
ENDBRANCH  34  37
ENDBRANCH  28  31
ENDBRANCH  26  27
ENDBRANCH   5  26
TORSDOF 11
ENDMDL
