MODEL 1
REMARK VINA RESULT:      -7.5      0.000      0.000
REMARK  Name = 
REMARK  5 active torsions:
REMARK  status: ('A' for Active; 'I' for Inactive)
REMARK    1  A    between atoms: C_1  and  O_2
REMARK    2  A    between atoms: O_2  and  C_3
REMARK    3  A    between atoms: C_6  and  C_7
REMARK    4  A    between atoms: N_9  and  C_10
REMARK    5  A    between atoms: C_20  and  C_21
REMARK                            x       y       z     vdW  Elec       q    Type
REMARK                         _______ _______ _______ _____ _____    ______ ____
ROOT
ATOM      1  C   UNL     1       1.149  10.534  18.606  0.00  0.00    +0.000 A 
ATOM      2  C   UNL     1       1.853   9.921  17.630  0.00  0.00    +0.000 A 
ATOM      3  C   UNL     1       2.371   8.577  17.839  0.00  0.00    +0.000 A 
ATOM      4  C   UNL     1       2.205   7.917  19.006  0.00  0.00    +0.000 A 
ATOM      5  C   UNL     1       1.465   8.554  20.054  0.00  0.00    +0.000 A 
ATOM      6  C   UNL     1       1.086   8.200  21.329  0.00  0.00    +0.000 A 
ATOM      7  C   UNL     1       0.350   9.294  21.826  0.00  0.00    +0.000 A 
ATOM      8  N   UNL     1       0.276  10.287  20.928  0.00  0.00    +0.000 NA
ATOM      9  N   UNL     1       0.951   9.838  19.826  0.00  0.00    +0.000 N 
ENDROOT
BRANCH   4  10
ATOM     10  C   UNL     1       2.706   6.504  19.171  0.00  0.00    +0.000 C 
ATOM     11  O   UNL     1       3.679   6.259  19.876  0.00  0.00    +0.000 OA
ATOM     12  N   UNL     1       2.080   5.563  18.365  0.00  0.00    +0.000 N 
ATOM     13  H   UNL     1       1.694   5.929  17.500  0.00  0.00    +0.000 HD
BRANCH  12  14
ATOM     14  C   UNL     1       2.544   4.214  18.308  0.00  0.00    +0.000 A 
ATOM     15  C   UNL     1       3.567   3.782  17.449  0.00  0.00    +0.000 A 
ATOM     16 CL   UNL     1       4.582   4.857  16.557  0.00  0.00    +0.000 Cl
ATOM     17  C   UNL     1       3.878   2.426  17.425  0.00  0.00    +0.000 A 
ATOM     18  N   UNL     1       3.271   1.489  18.194  0.00  0.00    +0.000 NA
ATOM     19  C   UNL     1       2.322   1.937  19.047  0.00  0.00    +0.000 A 
ATOM     20  C   UNL     1       1.945   3.269  19.154  0.00  0.00    +0.000 A 
ATOM     21 CL   UNL     1       0.718   3.713  20.285  0.00  0.00    +0.000 Cl
ENDBRANCH  12  14
ENDBRANCH   4  10
BRANCH   1  23
ATOM     22  C   UNL     1       1.457  12.924  18.661  0.00  0.00    +0.000 C 
ATOM     23  O   UNL     1       0.598  11.802  18.518  0.00  0.00    +0.000 OA
ENDBRANCH   1  23
BRANCH   7  24
ATOM     24  C   UNL     1      -0.280   9.416  23.133  0.00  0.00    +0.000 C 
ATOM     25  O   UNL     1       0.334   9.642  24.172  0.00  0.00    +0.000 OA
ENDBRANCH   7  24
TORSDOF 4
ENDMDL
MODEL 2
REMARK VINA RESULT:      -7.3      0.254      1.865
REMARK  Name = 
REMARK  5 active torsions:
REMARK  status: ('A' for Active; 'I' for Inactive)
REMARK    1  A    between atoms: C_1  and  O_2
REMARK    2  A    between atoms: O_2  and  C_3
REMARK    3  A    between atoms: C_6  and  C_7
REMARK    4  A    between atoms: N_9  and  C_10
REMARK    5  A    between atoms: C_20  and  C_21
REMARK                            x       y       z     vdW  Elec       q    Type
REMARK                         _______ _______ _______ _____ _____    ______ ____
ROOT
ATOM      1  C   UNL     1       1.320  10.439  18.605  0.00  0.00    +0.000 A 
ATOM      2  C   UNL     1       2.009   9.781  17.648  0.00  0.00    +0.000 A 
ATOM      3  C   UNL     1       2.445   8.411  17.874  0.00  0.00    +0.000 A 
ATOM      4  C   UNL     1       2.216   7.768  19.041  0.00  0.00    +0.000 A 
ATOM      5  C   UNL     1       1.491   8.453  20.069  0.00  0.00    +0.000 A 
ATOM      6  C   UNL     1       1.065   8.128  21.337  0.00  0.00    +0.000 A 
ATOM      7  C   UNL     1       0.381   9.265  21.812  0.00  0.00    +0.000 A 
ATOM      8  N   UNL     1       0.383  10.255  20.909  0.00  0.00    +0.000 NA
ATOM      9  N   UNL     1       1.056   9.762  19.824  0.00  0.00    +0.000 N 
ENDROOT
BRANCH   4  10
ATOM     10  C   UNL     1       2.632   6.330  19.224  0.00  0.00    +0.000 C 
ATOM     11  O   UNL     1       3.437   6.013  20.093  0.00  0.00    +0.000 OA
ATOM     12  N   UNL     1       2.153   5.455  18.259  0.00  0.00    +0.000 N 
ATOM     13  H   UNL     1       1.958   5.877  17.356  0.00  0.00    +0.000 HD
BRANCH  12  14
ATOM     14  C   UNL     1       2.578   4.092  18.221  0.00  0.00    +0.000 A 
ATOM     15  C   UNL     1       1.965   3.067  18.959  0.00  0.00    +0.000 A 
ATOM     16 CL   UNL     1       0.461   3.256  19.787  0.00  0.00    +0.000 Cl
ATOM     17  C   UNL     1       2.519   1.793  18.902  0.00  0.00    +0.000 A 
ATOM     18  N   UNL     1       3.606   1.464  18.161  0.00  0.00    +0.000 NA
ATOM     19  C   UNL     1       4.150   2.458  17.423  0.00  0.00    +0.000 A 
ATOM     20  C   UNL     1       3.668   3.760  17.402  0.00  0.00    +0.000 A 
ATOM     21 CL   UNL     1       4.453   4.938  16.414  0.00  0.00    +0.000 Cl
ENDBRANCH  12  14
ENDBRANCH   4  10
BRANCH   1  23
ATOM     22  C   UNL     1       1.736  12.807  18.765  0.00  0.00    +0.000 C 
ATOM     23  O   UNL     1       0.843  11.735  18.499  0.00  0.00    +0.000 OA
ENDBRANCH   1  23
BRANCH   7  24
ATOM     24  C   UNL     1      -0.269   9.430  23.105  0.00  0.00    +0.000 C 
ATOM     25  O   UNL     1       0.335   9.590  24.162  0.00  0.00    +0.000 OA
ENDBRANCH   7  24
TORSDOF 4
ENDMDL
MODEL 3
REMARK VINA RESULT:      -7.2      4.995      6.882
REMARK  Name = 
REMARK  5 active torsions:
REMARK  status: ('A' for Active; 'I' for Inactive)
REMARK    1  A    between atoms: C_1  and  O_2
REMARK    2  A    between atoms: O_2  and  C_3
REMARK    3  A    between atoms: C_6  and  C_7
REMARK    4  A    between atoms: N_9  and  C_10
REMARK    5  A    between atoms: C_20  and  C_21
REMARK                            x       y       z     vdW  Elec       q    Type
REMARK                         _______ _______ _______ _____ _____    ______ ____
ROOT
ATOM      1  C   UNL     1       7.136   5.130  14.498  0.00  0.00    +0.000 A 
ATOM      2  C   UNL     1       6.260   4.143  14.212  0.00  0.00    +0.000 A 
ATOM      3  C   UNL     1       5.287   3.720  15.209  0.00  0.00    +0.000 A 
ATOM      4  C   UNL     1       5.248   4.258  16.448  0.00  0.00    +0.000 A 
ATOM      5  C   UNL     1       6.173   5.303  16.770  0.00  0.00    +0.000 A 
ATOM      6  C   UNL     1       6.414   6.079  17.881  0.00  0.00    +0.000 A 
ATOM      7  C   UNL     1       7.471   6.940  17.524  0.00  0.00    +0.000 A 
ATOM      8  N   UNL     1       7.885   6.717  16.269  0.00  0.00    +0.000 NA
ATOM      9  N   UNL     1       7.085   5.716  15.789  0.00  0.00    +0.000 N 
ENDROOT
BRANCH   4  10
ATOM     10  C   UNL     1       4.192   3.837  17.439  0.00  0.00    +0.000 C 
ATOM     11  O   UNL     1       3.081   3.480  17.063  0.00  0.00    +0.000 OA
ATOM     12  N   UNL     1       4.533   4.024  18.772  0.00  0.00    +0.000 N 
ATOM     13  H   UNL     1       5.204   4.767  18.942  0.00  0.00    +0.000 HD
BRANCH  12  14
ATOM     14  C   UNL     1       3.582   3.806  19.815  0.00  0.00    +0.000 A 
ATOM     15  C   UNL     1       2.637   4.765  20.215  0.00  0.00    +0.000 A 
ATOM     16 CL   UNL     1       2.314   6.213  19.333  0.00  0.00    +0.000 Cl
ATOM     17  C   UNL     1       1.816   4.467  21.298  0.00  0.00    +0.000 A 
ATOM     18  N   UNL     1       1.850   3.298  21.984  0.00  0.00    +0.000 NA
ATOM     19  C   UNL     1       2.735   2.373  21.549  0.00  0.00    +0.000 A 
ATOM     20  C   UNL     1       3.592   2.568  20.474  0.00  0.00    +0.000 A 
ATOM     21 CL   UNL     1       4.677   1.305  20.017  0.00  0.00    +0.000 Cl
ENDBRANCH  12  14
ENDBRANCH   4  10
BRANCH   1  23
ATOM     22  C   UNL     1       7.913   5.420  12.235  0.00  0.00    +0.000 C 
ATOM     23  O   UNL     1       8.094   5.624  13.629  0.00  0.00    +0.000 OA
ENDBRANCH   1  23
BRANCH   7  24
ATOM     24  C   UNL     1       8.094   7.964  18.350  0.00  0.00    +0.000 C 
ATOM     25  O   UNL     1       8.310   9.113  17.973  0.00  0.00    +0.000 OA
ENDBRANCH   7  24
TORSDOF 4
ENDMDL
MODEL 4
REMARK VINA RESULT:      -7.2      4.994      6.901
REMARK  Name = 
REMARK  5 active torsions:
REMARK  status: ('A' for Active; 'I' for Inactive)
REMARK    1  A    between atoms: C_1  and  O_2
REMARK    2  A    between atoms: O_2  and  C_3
REMARK    3  A    between atoms: C_6  and  C_7
REMARK    4  A    between atoms: N_9  and  C_10
REMARK    5  A    between atoms: C_20  and  C_21
REMARK                            x       y       z     vdW  Elec       q    Type
REMARK                         _______ _______ _______ _____ _____    ______ ____
ROOT
ATOM      1  C   UNL     1       7.050   5.037  14.488  0.00  0.00    +0.000 A 
ATOM      2  C   UNL     1       6.195   4.038  14.178  0.00  0.00    +0.000 A 
ATOM      3  C   UNL     1       5.285   3.518  15.187  0.00  0.00    +0.000 A 
ATOM      4  C   UNL     1       5.284   3.975  16.458  0.00  0.00    +0.000 A 
ATOM      5  C   UNL     1       6.187   5.031  16.806  0.00  0.00    +0.000 A 
ATOM      6  C   UNL     1       6.452   5.744  17.954  0.00  0.00    +0.000 A 
ATOM      7  C   UNL     1       7.461   6.664  17.607  0.00  0.00    +0.000 A 
ATOM      8  N   UNL     1       7.825   6.536  16.324  0.00  0.00    +0.000 NA
ATOM      9  N   UNL     1       7.038   5.538  15.815  0.00  0.00    +0.000 N 
ENDROOT
BRANCH   4  10
ATOM     10  C   UNL     1       4.290   3.453  17.466  0.00  0.00    +0.000 C 
ATOM     11  O   UNL     1       3.451   2.617  17.148  0.00  0.00    +0.000 OA
ATOM     12  N   UNL     1       4.315   4.092  18.698  0.00  0.00    +0.000 N 
ATOM     13  H   UNL     1       4.649   5.050  18.676  0.00  0.00    +0.000 HD
BRANCH  12  14
ATOM     14  C   UNL     1       3.339   3.804  19.699  0.00  0.00    +0.000 A 
ATOM     15  C   UNL     1       3.410   2.692  20.554  0.00  0.00    +0.000 A 
ATOM     16 CL   UNL     1       4.808   1.688  20.700  0.00  0.00    +0.000 Cl
ATOM     17  C   UNL     1       2.358   2.472  21.436  0.00  0.00    +0.000 A 
ATOM     18  N   UNL     1       1.270   3.273  21.544  0.00  0.00    +0.000 NA
ATOM     19  C   UNL     1       1.247   4.363  20.743  0.00  0.00    +0.000 A 
ATOM     20  C   UNL     1       2.250   4.678  19.836  0.00  0.00    +0.000 A 
ATOM     21 CL   UNL     1       2.102   6.101  18.870  0.00  0.00    +0.000 Cl
ENDBRANCH  12  14
ENDBRANCH   4  10
BRANCH   1  23
ATOM     22  C   UNL     1       7.801   5.367  12.222  0.00  0.00    +0.000 C 
ATOM     23  O   UNL     1       7.950   5.620  13.612  0.00  0.00    +0.000 OA
ENDBRANCH   1  23
BRANCH   7  24
ATOM     24  C   UNL     1       8.087   7.656  18.470  0.00  0.00    +0.000 C 
ATOM     25  O   UNL     1       8.271   8.827  18.148  0.00  0.00    +0.000 OA
ENDBRANCH   7  24
TORSDOF 4
ENDMDL
MODEL 5
REMARK VINA RESULT:      -6.9      3.002      6.803
REMARK  Name = 
REMARK  5 active torsions:
REMARK  status: ('A' for Active; 'I' for Inactive)
REMARK    1  A    between atoms: C_1  and  O_2
REMARK    2  A    between atoms: O_2  and  C_3
REMARK    3  A    between atoms: C_6  and  C_7
REMARK    4  A    between atoms: N_9  and  C_10
REMARK    5  A    between atoms: C_20  and  C_21
REMARK                            x       y       z     vdW  Elec       q    Type
REMARK                         _______ _______ _______ _____ _____    ______ ____
ROOT
ATOM      1  C   UNL     1       4.986   5.327  17.929  0.00  0.00    +0.000 A 
ATOM      2  C   UNL     1       5.014   6.492  17.246  0.00  0.00    +0.000 A 
ATOM      3  C   UNL     1       3.947   7.466  17.421  0.00  0.00    +0.000 A 
ATOM      4  C   UNL     1       2.888   7.234  18.227  0.00  0.00    +0.000 A 
ATOM      5  C   UNL     1       2.840   6.002  18.957  0.00  0.00    +0.000 A 
ATOM      6  C   UNL     1       1.963   5.440  19.857  0.00  0.00    +0.000 A 
ATOM      7  C   UNL     1       2.523   4.196  20.209  0.00  0.00    +0.000 A 
ATOM      8  N   UNL     1       3.677   3.975  19.564  0.00  0.00    +0.000 NA
ATOM      9  N   UNL     1       3.889   5.087  18.796  0.00  0.00    +0.000 N 
ENDROOT
BRANCH   4  10
ATOM     10  C   UNL     1       1.827   8.287  18.430  0.00  0.00    +0.000 C 
ATOM     11  O   UNL     1       1.057   8.588  17.524  0.00  0.00    +0.000 OA
ATOM     12  N   UNL     1       1.897   8.963  19.641  0.00  0.00    +0.000 N 
ATOM     13  H   UNL     1       2.823   9.007  20.054  0.00  0.00    +0.000 HD
BRANCH  12  14
ATOM     14  C   UNL     1       1.050  10.080  19.913  0.00  0.00    +0.000 A 
ATOM     15  C   UNL     1       1.249  11.355  19.360  0.00  0.00    +0.000 A 
ATOM     16 CL   UNL     1       2.360  11.678  18.077  0.00  0.00    +0.000 Cl
ATOM     17  C   UNL     1       0.405  12.386  19.762  0.00  0.00    +0.000 A 
ATOM     18  N   UNL     1      -0.616  12.239  20.641  0.00  0.00    +0.000 NA
ATOM     19  C   UNL     1      -0.816  10.991  21.123  0.00  0.00    +0.000 A 
ATOM     20  C   UNL     1      -0.037   9.894  20.778  0.00  0.00    +0.000 A 
ATOM     21 CL   UNL     1      -0.398   8.351  21.464  0.00  0.00    +0.000 Cl
ENDBRANCH  12  14
ENDBRANCH   4  10
BRANCH   1  23
ATOM     22  C   UNL     1       7.288   4.709  17.572  0.00  0.00    +0.000 C 
ATOM     23  O   UNL     1       5.948   4.333  17.855  0.00  0.00    +0.000 OA
ENDBRANCH   1  23
BRANCH   7  24
ATOM     24  C   UNL     1       1.984   3.216  21.141  0.00  0.00    +0.000 C 
ATOM     25  O   UNL     1       2.193   3.230  22.350  0.00  0.00    +0.000 OA
ENDBRANCH   7  24
TORSDOF 4
ENDMDL
MODEL 6
REMARK VINA RESULT:      -6.9      4.826      6.783
REMARK  Name = 
REMARK  5 active torsions:
REMARK  status: ('A' for Active; 'I' for Inactive)
REMARK    1  A    between atoms: C_1  and  O_2
REMARK    2  A    between atoms: O_2  and  C_3
REMARK    3  A    between atoms: C_6  and  C_7
REMARK    4  A    between atoms: N_9  and  C_10
REMARK    5  A    between atoms: C_20  and  C_21
REMARK                            x       y       z     vdW  Elec       q    Type
REMARK                         _______ _______ _______ _____ _____    ______ ____
ROOT
ATOM      1  C   UNL     1       7.227   5.183  14.850  0.00  0.00    +0.000 A 
ATOM      2  C   UNL     1       6.453   4.077  14.841  0.00  0.00    +0.000 A 
ATOM      3  C   UNL     1       5.690   3.711  16.026  0.00  0.00    +0.000 A 
ATOM      4  C   UNL     1       5.754   4.427  17.170  0.00  0.00    +0.000 A 
ATOM      5  C   UNL     1       6.573   5.601  17.199  0.00  0.00    +0.000 A 
ATOM      6  C   UNL     1       6.864   6.560  18.143  0.00  0.00    +0.000 A 
ATOM      7  C   UNL     1       7.743   7.463  17.511  0.00  0.00    +0.000 A 
ATOM      8  N   UNL     1       8.005   7.095  16.250  0.00  0.00    +0.000 NA
ATOM      9  N   UNL     1       7.281   5.952  16.041  0.00  0.00    +0.000 N 
ENDROOT
BRANCH   4  10
ATOM     10  C   UNL     1       4.908   4.053  18.362  0.00  0.00    +0.000 C 
ATOM     11  O   UNL     1       5.391   3.445  19.311  0.00  0.00    +0.000 OA
ATOM     12  N   UNL     1       3.553   4.319  18.225  0.00  0.00    +0.000 N 
ATOM     13  H   UNL     1       3.212   4.323  17.268  0.00  0.00    +0.000 HD
BRANCH  12  14
ATOM     14  C   UNL     1       2.612   3.890  19.210  0.00  0.00    +0.000 A 
ATOM     15  C   UNL     1       2.032   4.752  20.155  0.00  0.00    +0.000 A 
ATOM     16 CL   UNL     1       2.160   6.473  20.083  0.00  0.00    +0.000 Cl
ATOM     17  C   UNL     1       1.190   4.203  21.116  0.00  0.00    +0.000 A 
ATOM     18  N   UNL     1       0.871   2.887  21.192  0.00  0.00    +0.000 NA
ATOM     19  C   UNL     1       1.404   2.087  20.242  0.00  0.00    +0.000 A 
ATOM     20  C   UNL     1       2.248   2.536  19.234  0.00  0.00    +0.000 A 
ATOM     21 CL   UNL     1       2.862   1.409  18.080  0.00  0.00    +0.000 Cl
ENDBRANCH  12  14
ENDBRANCH   4  10
BRANCH   1  23
ATOM     22  C   UNL     1       7.688   5.144  12.485  0.00  0.00    +0.000 C 
ATOM     23  O   UNL     1       7.985   5.637  13.783  0.00  0.00    +0.000 OA
ENDBRANCH   1  23
BRANCH   7  24
ATOM     24  C   UNL     1       8.339   8.662  18.083  0.00  0.00    +0.000 C 
ATOM     25  O   UNL     1       7.950   9.802  17.845  0.00  0.00    +0.000 OA
ENDBRANCH   7  24
TORSDOF 4
ENDMDL
MODEL 7
REMARK VINA RESULT:      -6.8      3.233      7.029
REMARK  Name = 
REMARK  5 active torsions:
REMARK  status: ('A' for Active; 'I' for Inactive)
REMARK    1  A    between atoms: C_1  and  O_2
REMARK    2  A    between atoms: O_2  and  C_3
REMARK    3  A    between atoms: C_6  and  C_7
REMARK    4  A    between atoms: N_9  and  C_10
REMARK    5  A    between atoms: C_20  and  C_21
REMARK                            x       y       z     vdW  Elec       q    Type
REMARK                         _______ _______ _______ _____ _____    ______ ____
ROOT
ATOM      1  C   UNL     1       4.090   5.897  17.914  0.00  0.00    +0.000 A 
ATOM      2  C   UNL     1       3.992   7.125  17.360  0.00  0.00    +0.000 A 
ATOM      3  C   UNL     1       3.054   8.097  17.902  0.00  0.00    +0.000 A 
ATOM      4  C   UNL     1       2.233   7.805  18.934  0.00  0.00    +0.000 A 
ATOM      5  C   UNL     1       2.319   6.505  19.531  0.00  0.00    +0.000 A 
ATOM      6  C   UNL     1       1.683   5.871  20.574  0.00  0.00    +0.000 A 
ATOM      7  C   UNL     1       2.258   4.587  20.647  0.00  0.00    +0.000 A 
ATOM      8  N   UNL     1       3.191   4.410  19.703  0.00  0.00    +0.000 NA
ATOM      9  N   UNL     1       3.246   5.591  19.013  0.00  0.00    +0.000 N 
ENDROOT
BRANCH   4  10
ATOM     10  C   UNL     1       1.311   8.852  19.508  0.00  0.00    +0.000 C 
ATOM     11  O   UNL     1       0.827   8.719  20.627  0.00  0.00    +0.000 OA
ATOM     12  N   UNL     1       0.958   9.866  18.629  0.00  0.00    +0.000 N 
ATOM     13  H   UNL     1       0.979   9.609  17.647  0.00  0.00    +0.000 HD
BRANCH  12  14
ATOM     14  C   UNL     1      -0.018  10.846  18.985  0.00  0.00    +0.000 A 
ATOM     15  C   UNL     1       0.209  11.856  19.934  0.00  0.00    +0.000 A 
ATOM     16 CL   UNL     1       1.765  12.221  20.587  0.00  0.00    +0.000 Cl
ATOM     17  C   UNL     1      -0.845  12.704  20.256  0.00  0.00    +0.000 A 
ATOM     18  N   UNL     1      -2.079  12.636  19.699  0.00  0.00    +0.000 NA
ATOM     19  C   UNL     1      -2.258  11.686  18.755  0.00  0.00    +0.000 A 
ATOM     20  C   UNL     1      -1.270  10.796  18.354  0.00  0.00    +0.000 A 
ATOM     21 CL   UNL     1      -1.626   9.628  17.135  0.00  0.00    +0.000 Cl
ENDBRANCH  12  14
ENDBRANCH   4  10
BRANCH   1  23
ATOM     22  C   UNL     1       6.336   5.036  17.778  0.00  0.00    +0.000 C 
ATOM     23  O   UNL     1       4.951   4.898  17.495  0.00  0.00    +0.000 OA
ENDBRANCH   1  23
BRANCH   7  24
ATOM     24  C   UNL     1       1.936   3.527  21.592  0.00  0.00    +0.000 C 
ATOM     25  O   UNL     1       2.748   2.702  22.002  0.00  0.00    +0.000 OA
ENDBRANCH   7  24
TORSDOF 4
ENDMDL
MODEL 8
REMARK VINA RESULT:      -6.8      4.877      6.763
REMARK  Name = 
REMARK  5 active torsions:
REMARK  status: ('A' for Active; 'I' for Inactive)
REMARK    1  A    between atoms: C_1  and  O_2
REMARK    2  A    between atoms: O_2  and  C_3
REMARK    3  A    between atoms: C_6  and  C_7
REMARK    4  A    between atoms: N_9  and  C_10
REMARK    5  A    between atoms: C_20  and  C_21
REMARK                            x       y       z     vdW  Elec       q    Type
REMARK                         _______ _______ _______ _____ _____    ______ ____
ROOT
ATOM      1  C   UNL     1       7.382   5.244  14.848  0.00  0.00    +0.000 A 
ATOM      2  C   UNL     1       6.670   4.096  14.857  0.00  0.00    +0.000 A 
ATOM      3  C   UNL     1       5.879   3.737  16.024  0.00  0.00    +0.000 A 
ATOM      4  C   UNL     1       5.856   4.501  17.139  0.00  0.00    +0.000 A 
ATOM      5  C   UNL     1       6.609   5.719  17.149  0.00  0.00    +0.000 A 
ATOM      6  C   UNL     1       6.808   6.730  18.062  0.00  0.00    +0.000 A 
ATOM      7  C   UNL     1       7.662   7.654  17.428  0.00  0.00    +0.000 A 
ATOM      8  N   UNL     1       7.996   7.251  16.195  0.00  0.00    +0.000 NA
ATOM      9  N   UNL     1       7.344   6.062  16.007  0.00  0.00    +0.000 N 
ENDROOT
BRANCH   4  10
ATOM     10  C   UNL     1       4.982   4.129  18.311  0.00  0.00    +0.000 C 
ATOM     11  O   UNL     1       5.469   3.664  19.336  0.00  0.00    +0.000 OA
ATOM     12  N   UNL     1       3.618   4.220  18.076  0.00  0.00    +0.000 N 
ATOM     13  H   UNL     1       3.341   4.104  17.106  0.00  0.00    +0.000 HD
BRANCH  12  14
ATOM     14  C   UNL     1       2.670   3.765  19.042  0.00  0.00    +0.000 A 
ATOM     15  C   UNL     1       2.367   2.411  19.253  0.00  0.00    +0.000 A 
ATOM     16 CL   UNL     1       3.285   1.111  18.580  0.00  0.00    +0.000 Cl
ATOM     17  C   UNL     1       1.368   2.094  20.167  0.00  0.00    +0.000 A 
ATOM     18  N   UNL     1       0.675   3.008  20.889  0.00  0.00    +0.000 NA
ATOM     19  C   UNL     1       1.017   4.303  20.703  0.00  0.00    +0.000 A 
ATOM     20  C   UNL     1       2.006   4.723  19.823  0.00  0.00    +0.000 A 
ATOM     21 CL   UNL     1       2.349   6.409  19.678  0.00  0.00    +0.000 Cl
ENDBRANCH  12  14
ENDBRANCH   4  10
BRANCH   1  23
ATOM     22  C   UNL     1       7.792   5.319  12.475  0.00  0.00    +0.000 C 
ATOM     23  O   UNL     1       8.158   5.695  13.794  0.00  0.00    +0.000 OA
ENDBRANCH   1  23
BRANCH   7  24
ATOM     24  C   UNL     1       8.168   8.907  17.971  0.00  0.00    +0.000 C 
ATOM     25  O   UNL     1       8.926   8.983  18.933  0.00  0.00    +0.000 OA
ENDBRANCH   7  24
TORSDOF 4
ENDMDL
MODEL 9
REMARK VINA RESULT:      -6.8      3.109      7.073
REMARK  Name = 
REMARK  5 active torsions:
REMARK  status: ('A' for Active; 'I' for Inactive)
REMARK    1  A    between atoms: C_1  and  O_2
REMARK    2  A    between atoms: O_2  and  C_3
REMARK    3  A    between atoms: C_6  and  C_7
REMARK    4  A    between atoms: N_9  and  C_10
REMARK    5  A    between atoms: C_20  and  C_21
REMARK                            x       y       z     vdW  Elec       q    Type
REMARK                         _______ _______ _______ _____ _____    ______ ____
ROOT
ATOM      1  C   UNL     1       5.036   5.464  18.111  0.00  0.00    +0.000 A 
ATOM      2  C   UNL     1       5.021   6.573  17.341  0.00  0.00    +0.000 A 
ATOM      3  C   UNL     1       3.916   7.515  17.440  0.00  0.00    +0.000 A 
ATOM      4  C   UNL     1       2.863   7.304  18.260  0.00  0.00    +0.000 A 
ATOM      5  C   UNL     1       2.860   6.130  19.082  0.00  0.00    +0.000 A 
ATOM      6  C   UNL     1       2.003   5.604  20.022  0.00  0.00    +0.000 A 
ATOM      7  C   UNL     1       2.610   4.414  20.469  0.00  0.00    +0.000 A 
ATOM      8  N   UNL     1       3.774   4.190  19.844  0.00  0.00    +0.000 NA
ATOM      9  N   UNL     1       3.945   5.247  18.992  0.00  0.00    +0.000 N 
ENDROOT
BRANCH   4  10
ATOM     10  C   UNL     1       1.761   8.326  18.381  0.00  0.00    +0.000 C 
ATOM     11  O   UNL     1       0.983   8.526  17.454  0.00  0.00    +0.000 OA
ATOM     12  N   UNL     1       1.799   9.095  19.536  0.00  0.00    +0.000 N 
ATOM     13  H   UNL     1       2.721   9.206  19.946  0.00  0.00    +0.000 HD
BRANCH  12  14
ATOM     14  C   UNL     1       0.908  10.195  19.721  0.00  0.00    +0.000 A 
ATOM     15  C   UNL     1      -0.212  10.152  20.566  0.00  0.00    +0.000 A 
ATOM     16 CL   UNL     1      -0.507   8.879  21.696  0.00  0.00    +0.000 Cl
ATOM     17  C   UNL     1      -1.052  11.260  20.603  0.00  0.00    +0.000 A 
ATOM     18  N   UNL     1      -0.851  12.396  19.890  0.00  0.00    +0.000 NA
ATOM     19  C   UNL     1       0.260  12.430  19.120  0.00  0.00    +0.000 A 
ATOM     20  C   UNL     1       1.166  11.383  19.020  0.00  0.00    +0.000 A 
ATOM     21 CL   UNL     1       2.548  11.554  18.000  0.00  0.00    +0.000 Cl
ENDBRANCH  12  14
ENDBRANCH   4  10
BRANCH   1  23
ATOM     22  C   UNL     1       7.009   4.541  17.080  0.00  0.00    +0.000 C 
ATOM     23  O   UNL     1       6.036   4.506  18.114  0.00  0.00    +0.000 OA
ENDBRANCH   1  23
BRANCH   7  24
ATOM     24  C   UNL     1       2.106   3.487  21.473  0.00  0.00    +0.000 C 
ATOM     25  O   UNL     1       2.783   2.607  21.996  0.00  0.00    +0.000 OA
ENDBRANCH   7  24
TORSDOF 4
ENDMDL
