MODEL 1
REMARK VINA RESULT:      -5.3      0.000      0.000
REMARK  Name = 
REMARK  4 active torsions:
REMARK  status: ('A' for Active; 'I' for Inactive)
REMARK    1  A    between atoms: C_1  and  O_2
REMARK    2  A    between atoms: O_2  and  C_3
REMARK    3  A    between atoms: C_4  and  O_5
REMARK    4  A    between atoms: C_7  and  O_8
REMARK                            x       y       z     vdW  Elec       q    Type
REMARK                         _______ _______ _______ _____ _____    ______ ____
ROOT
ATOM      1  C   UNL     1       6.635   5.555  16.580  0.00  0.00    +0.000 A 
ATOM      2  C   UNL     1       7.035   4.799  17.695  0.00  0.00    +0.000 A 
ATOM      3  C   UNL     1       6.284   4.734  18.861  0.00  0.00    +0.000 A 
ATOM      4  C   UNL     1       5.090   5.439  18.924  0.00  0.00    +0.000 A 
ATOM      5  C   UNL     1       4.649   6.202  17.830  0.00  0.00    +0.000 A 
ATOM      6 BR   UNL     1       2.986   7.137  17.996  0.00  0.00    +0.000 Br
ATOM      7  C   UNL     1       5.414   6.252  16.642  0.00  0.00    +0.000 A 
ATOM      8 CL   UNL     1       4.782   7.097  15.262  0.00  0.00    +0.000 Cl
ENDROOT
BRANCH   1  10
ATOM      9  C   UNL     1       7.036   4.715  14.373  0.00  0.00    +0.000 C 
ATOM     10  O   UNL     1       7.496   5.424  15.518  0.00  0.00    +0.000 OA
ENDBRANCH   1  10
BRANCH   2  11
ATOM     11  O   UNL     1       8.204   4.083  17.662  0.00  0.00    +0.000 OA
ATOM     12  H   UNL     1       8.359   3.882  16.717  0.00  0.00    +0.000 HD
ENDBRANCH   2  11
BRANCH   4  13
ATOM     13  O   UNL     1       4.334   5.367  20.063  0.00  0.00    +0.000 OA
ATOM     14  H   UNL     1       4.003   6.252  20.294  0.00  0.00    +0.000 HD
ENDBRANCH   4  13
TORSDOF 3
ENDMDL
MODEL 2
REMARK VINA RESULT:      -5.2      1.711      2.272
REMARK  Name = 
REMARK  4 active torsions:
REMARK  status: ('A' for Active; 'I' for Inactive)
REMARK    1  A    between atoms: C_1  and  O_2
REMARK    2  A    between atoms: O_2  and  C_3
REMARK    3  A    between atoms: C_4  and  O_5
REMARK    4  A    between atoms: C_7  and  O_8
REMARK                            x       y       z     vdW  Elec       q    Type
REMARK                         _______ _______ _______ _____ _____    ______ ____
ROOT
ATOM      1  C   UNL     1       5.137   4.827  17.850  0.00  0.00    +0.000 A 
ATOM      2  C   UNL     1       4.730   4.179  19.028  0.00  0.00    +0.000 A 
ATOM      3  C   UNL     1       3.738   4.689  19.855  0.00  0.00    +0.000 A 
ATOM      4  C   UNL     1       3.124   5.882  19.502  0.00  0.00    +0.000 A 
ATOM      5  C   UNL     1       3.497   6.560  18.329  0.00  0.00    +0.000 A 
ATOM      6 BR   UNL     1       2.594   8.196  17.909  0.00  0.00    +0.000 Br
ATOM      7  C   UNL     1       4.498   6.026  17.485  0.00  0.00    +0.000 A 
ATOM      8 CL   UNL     1       4.848   6.818  15.979  0.00  0.00    +0.000 Cl
ENDROOT
BRANCH   1  10
ATOM      9  C   UNL     1       7.428   4.583  17.192  0.00  0.00    +0.000 C 
ATOM     10  O   UNL     1       6.085   4.113  17.157  0.00  0.00    +0.000 OA
ENDBRANCH   1  10
BRANCH   2  11
ATOM     11  O   UNL     1       5.309   2.993  19.400  0.00  0.00    +0.000 OA
ATOM     12  H   UNL     1       4.564   2.395  19.612  0.00  0.00    +0.000 HD
ENDBRANCH   2  11
BRANCH   4  13
ATOM     13  O   UNL     1       2.134   6.385  20.303  0.00  0.00    +0.000 OA
ATOM     14  H   UNL     1       1.573   6.991  19.790  0.00  0.00    +0.000 HD
ENDBRANCH   4  13
TORSDOF 3
ENDMDL
MODEL 3
REMARK VINA RESULT:      -5.2      3.336      4.971
REMARK  Name = 
REMARK  4 active torsions:
REMARK  status: ('A' for Active; 'I' for Inactive)
REMARK    1  A    between atoms: C_1  and  O_2
REMARK    2  A    between atoms: O_2  and  C_3
REMARK    3  A    between atoms: C_4  and  O_5
REMARK    4  A    between atoms: C_7  and  O_8
REMARK                            x       y       z     vdW  Elec       q    Type
REMARK                         _______ _______ _______ _____ _____    ______ ____
ROOT
ATOM      1  C   UNL     1       2.187   4.020  18.414  0.00  0.00    +0.000 A 
ATOM      2  C   UNL     1       2.717   2.736  18.198  0.00  0.00    +0.000 A 
ATOM      3  C   UNL     1       3.897   2.525  17.497  0.00  0.00    +0.000 A 
ATOM      4  C   UNL     1       4.580   3.623  16.996  0.00  0.00    +0.000 A 
ATOM      5  C   UNL     1       4.090   4.925  17.195  0.00  0.00    +0.000 A 
ATOM      6 BR   UNL     1       5.098   6.386  16.478  0.00  0.00    +0.000 Br
ATOM      7  C   UNL     1       2.894   5.132  17.921  0.00  0.00    +0.000 A 
ATOM      8 CL   UNL     1       2.380   6.756  18.261  0.00  0.00    +0.000 Cl
ENDROOT
BRANCH   1  10
ATOM      9  C   UNL     1       1.174   4.328  20.563  0.00  0.00    +0.000 C 
ATOM     10  O   UNL     1       1.050   3.997  19.183  0.00  0.00    +0.000 OA
ENDBRANCH   1  10
BRANCH   2  11
ATOM     11  O   UNL     1       2.072   1.631  18.689  0.00  0.00    +0.000 OA
ATOM     12  H   UNL     1       1.281   1.974  19.151  0.00  0.00    +0.000 HD
ENDBRANCH   2  11
BRANCH   4  13
ATOM     13  O   UNL     1       5.753   3.426  16.318  0.00  0.00    +0.000 OA
ATOM     14  H   UNL     1       5.707   2.594  15.818  0.00  0.00    +0.000 HD
ENDBRANCH   4  13
TORSDOF 3
ENDMDL
MODEL 4
REMARK VINA RESULT:      -5.1      3.157      4.774
REMARK  Name = 
REMARK  4 active torsions:
REMARK  status: ('A' for Active; 'I' for Inactive)
REMARK    1  A    between atoms: C_1  and  O_2
REMARK    2  A    between atoms: O_2  and  C_3
REMARK    3  A    between atoms: C_4  and  O_5
REMARK    4  A    between atoms: C_7  and  O_8
REMARK                            x       y       z     vdW  Elec       q    Type
REMARK                         _______ _______ _______ _____ _____    ______ ____
ROOT
ATOM      1  C   UNL     1       3.283   3.880  20.080  0.00  0.00    +0.000 A 
ATOM      2  C   UNL     1       4.329   3.347  19.308  0.00  0.00    +0.000 A 
ATOM      3  C   UNL     1       4.864   4.015  18.214  0.00  0.00    +0.000 A 
ATOM      4  C   UNL     1       4.349   5.258  17.875  0.00  0.00    +0.000 A 
ATOM      5  C   UNL     1       3.307   5.831  18.623  0.00  0.00    +0.000 A 
ATOM      6 BR   UNL     1       2.659   7.553  18.094  0.00  0.00    +0.000 Br
ATOM      7  C   UNL     1       2.777   5.150  19.743  0.00  0.00    +0.000 A 
ATOM      8 CL   UNL     1       1.580   5.937  20.726  0.00  0.00    +0.000 Cl
ENDROOT
BRANCH   1  10
ATOM      9  C   UNL     1       1.629   2.564  21.208  0.00  0.00    +0.000 C 
ATOM     10  O   UNL     1       2.955   3.080  21.147  0.00  0.00    +0.000 OA
ENDBRANCH   1  10
BRANCH   2  11
ATOM     11  O   UNL     1       4.867   2.126  19.622  0.00  0.00    +0.000 OA
ATOM     12  H   UNL     1       5.825   2.210  19.441  0.00  0.00    +0.000 HD
ENDBRANCH   2  11
BRANCH   4  13
ATOM     13  O   UNL     1       4.882   5.931  16.809  0.00  0.00    +0.000 OA
ATOM     14  H   UNL     1       5.145   5.298  16.119  0.00  0.00    +0.000 HD
ENDBRANCH   4  13
TORSDOF 3
ENDMDL
MODEL 5
REMARK VINA RESULT:      -5.1      3.801      5.523
REMARK  Name = 
REMARK  4 active torsions:
REMARK  status: ('A' for Active; 'I' for Inactive)
REMARK    1  A    between atoms: C_1  and  O_2
REMARK    2  A    between atoms: O_2  and  C_3
REMARK    3  A    between atoms: C_4  and  O_5
REMARK    4  A    between atoms: C_7  and  O_8
REMARK                            x       y       z     vdW  Elec       q    Type
REMARK                         _______ _______ _______ _____ _____    ______ ____
ROOT
ATOM      1  C   UNL     1       1.780   3.690  19.318  0.00  0.00    +0.000 A 
ATOM      2  C   UNL     1       2.142   2.607  18.499  0.00  0.00    +0.000 A 
ATOM      3  C   UNL     1       3.042   2.734  17.448  0.00  0.00    +0.000 A 
ATOM      4  C   UNL     1       3.608   3.977  17.203  0.00  0.00    +0.000 A 
ATOM      5  C   UNL     1       3.280   5.085  18.001  0.00  0.00    +0.000 A 
ATOM      6 BR   UNL     1       4.112   6.762  17.601  0.00  0.00    +0.000 Br
ATOM      7  C   UNL     1       2.372   4.944  19.077  0.00  0.00    +0.000 A 
ATOM      8 CL   UNL     1       2.084   6.298  20.125  0.00  0.00    +0.000 Cl
ENDROOT
BRANCH   1  10
ATOM      9  C   UNL     1       1.497   2.991  21.591  0.00  0.00    +0.000 C 
ATOM     10  O   UNL     1       0.927   3.323  20.330  0.00  0.00    +0.000 OA
ENDBRANCH   1  10
BRANCH   2  11
ATOM     11  O   UNL     1       1.608   1.364  18.721  0.00  0.00    +0.000 OA
ATOM     12  H   UNL     1       1.017   1.195  17.959  0.00  0.00    +0.000 HD
ENDBRANCH   2  11
BRANCH   4  13
ATOM     13  O   UNL     1       4.509   4.108  16.180  0.00  0.00    +0.000 OA
ATOM     14  H   UNL     1       4.343   3.426  15.507  0.00  0.00    +0.000 HD
ENDBRANCH   4  13
TORSDOF 3
ENDMDL
MODEL 6
REMARK VINA RESULT:      -5.0      2.428      4.011
REMARK  Name = 
REMARK  4 active torsions:
REMARK  status: ('A' for Active; 'I' for Inactive)
REMARK    1  A    between atoms: C_1  and  O_2
REMARK    2  A    between atoms: O_2  and  C_3
REMARK    3  A    between atoms: C_4  and  O_5
REMARK    4  A    between atoms: C_7  and  O_8
REMARK                            x       y       z     vdW  Elec       q    Type
REMARK                         _______ _______ _______ _____ _____    ______ ____
ROOT
ATOM      1  C   UNL     1       5.305   4.413  18.424  0.00  0.00    +0.000 A 
ATOM      2  C   UNL     1       6.506   5.114  18.626  0.00  0.00    +0.000 A 
ATOM      3  C   UNL     1       7.323   5.511  17.575  0.00  0.00    +0.000 A 
ATOM      4  C   UNL     1       6.934   5.208  16.278  0.00  0.00    +0.000 A 
ATOM      5  C   UNL     1       5.738   4.514  16.031  0.00  0.00    +0.000 A 
ATOM      6 BR   UNL     1       5.270   4.143  14.212  0.00  0.00    +0.000 Br
ATOM      7  C   UNL     1       4.906   4.125  17.106  0.00  0.00    +0.000 A 
ATOM      8 CL   UNL     1       3.372   3.384  16.766  0.00  0.00    +0.000 Cl
ENDROOT
BRANCH   1  10
ATOM      9  C   UNL     1       3.477   4.968  19.870  0.00  0.00    +0.000 C 
ATOM     10  O   UNL     1       4.629   4.178  19.597  0.00  0.00    +0.000 OA
ENDBRANCH   1  10
BRANCH   2  11
ATOM     11  O   UNL     1       6.913   5.438  19.894  0.00  0.00    +0.000 OA
ATOM     12  H   UNL     1       7.612   6.113  19.778  0.00  0.00    +0.000 HD
ENDBRANCH   2  11
BRANCH   4  13
ATOM     13  O   UNL     1       7.725   5.610  15.235  0.00  0.00    +0.000 OA
ATOM     14  H   UNL     1       7.786   6.580  15.224  0.00  0.00    +0.000 HD
ENDBRANCH   4  13
TORSDOF 3
ENDMDL
MODEL 7
REMARK VINA RESULT:      -5.0      3.310      3.718
REMARK  Name = 
REMARK  4 active torsions:
REMARK  status: ('A' for Active; 'I' for Inactive)
REMARK    1  A    between atoms: C_1  and  O_2
REMARK    2  A    between atoms: O_2  and  C_3
REMARK    3  A    between atoms: C_4  and  O_5
REMARK    4  A    between atoms: C_7  and  O_8
REMARK                            x       y       z     vdW  Elec       q    Type
REMARK                         _______ _______ _______ _____ _____    ______ ____
ROOT
ATOM      1  C   UNL     1       4.348   4.763  17.996  0.00  0.00    +0.000 A 
ATOM      2  C   UNL     1       4.541   3.525  17.361  0.00  0.00    +0.000 A 
ATOM      3  C   UNL     1       3.719   2.430  17.595  0.00  0.00    +0.000 A 
ATOM      4  C   UNL     1       2.665   2.567  18.487  0.00  0.00    +0.000 A 
ATOM      5  C   UNL     1       2.432   3.789  19.139  0.00  0.00    +0.000 A 
ATOM      6 BR   UNL     1       0.951   3.897  20.348  0.00  0.00    +0.000 Br
ATOM      7  C   UNL     1       3.266   4.903  18.885  0.00  0.00    +0.000 A 
ATOM      8 CL   UNL     1       2.878   6.435  19.606  0.00  0.00    +0.000 Cl
ENDROOT
BRANCH   1  10
ATOM      9  C   UNL     1       4.782   6.670  16.613  0.00  0.00    +0.000 C 
ATOM     10  O   UNL     1       5.238   5.718  17.569  0.00  0.00    +0.000 OA
ENDBRANCH   1  10
BRANCH   2  11
ATOM     11  O   UNL     1       5.567   3.359  16.467  0.00  0.00    +0.000 OA
ATOM     12  H   UNL     1       6.315   3.007  16.991  0.00  0.00    +0.000 HD
ENDBRANCH   2  11
BRANCH   4  13
ATOM     13  O   UNL     1       1.839   1.499  18.711  0.00  0.00    +0.000 OA
ATOM     14  H   UNL     1       1.347   1.288  17.900  0.00  0.00    +0.000 HD
ENDBRANCH   4  13
TORSDOF 3
ENDMDL
MODEL 8
REMARK VINA RESULT:      -4.9      3.572      4.527
REMARK  Name = 
REMARK  4 active torsions:
REMARK  status: ('A' for Active; 'I' for Inactive)
REMARK    1  A    between atoms: C_1  and  O_2
REMARK    2  A    between atoms: O_2  and  C_3
REMARK    3  A    between atoms: C_4  and  O_5
REMARK    4  A    between atoms: C_7  and  O_8
REMARK                            x       y       z     vdW  Elec       q    Type
REMARK                         _______ _______ _______ _____ _____    ______ ____
ROOT
ATOM      1  C   UNL     1       3.382   5.739  18.372  0.00  0.00    +0.000 A 
ATOM      2  C   UNL     1       3.907   4.950  17.335  0.00  0.00    +0.000 A 
ATOM      3  C   UNL     1       3.678   3.583  17.248  0.00  0.00    +0.000 A 
ATOM      4  C   UNL     1       2.896   2.975  18.220  0.00  0.00    +0.000 A 
ATOM      5  C   UNL     1       2.346   3.727  19.271  0.00  0.00    +0.000 A 
ATOM      6 BR   UNL     1       1.271   2.813  20.566  0.00  0.00    +0.000 Br
ATOM      7  C   UNL     1       2.573   5.121  19.344  0.00  0.00    +0.000 A 
ATOM      8 CL   UNL     1       1.776   6.046  20.580  0.00  0.00    +0.000 Cl
ENDROOT
BRANCH   1  10
ATOM      9  C   UNL     1       2.630   7.951  17.843  0.00  0.00    +0.000 C 
ATOM     10  O   UNL     1       3.682   7.071  18.225  0.00  0.00    +0.000 OA
ENDBRANCH   1  10
BRANCH   2  11
ATOM     11  O   UNL     1       4.675   5.521  16.353  0.00  0.00    +0.000 OA
ATOM     12  H   UNL     1       5.159   4.779  15.936  0.00  0.00    +0.000 HD
ENDBRANCH   2  11
BRANCH   4  13
ATOM     13  O   UNL     1       2.651   1.631  18.133  0.00  0.00    +0.000 OA
ATOM     14  H   UNL     1       2.053   1.454  17.387  0.00  0.00    +0.000 HD
ENDBRANCH   4  13
TORSDOF 3
ENDMDL
MODEL 9
REMARK VINA RESULT:      -4.9      3.418      4.899
REMARK  Name = 
REMARK  4 active torsions:
REMARK  status: ('A' for Active; 'I' for Inactive)
REMARK    1  A    between atoms: C_1  and  O_2
REMARK    2  A    between atoms: O_2  and  C_3
REMARK    3  A    between atoms: C_4  and  O_5
REMARK    4  A    between atoms: C_7  and  O_8
REMARK                            x       y       z     vdW  Elec       q    Type
REMARK                         _______ _______ _______ _____ _____    ______ ____
ROOT
ATOM      1  C   UNL     1       2.728   3.348  19.261  0.00  0.00    +0.000 A 
ATOM      2  C   UNL     1       3.624   2.799  18.328  0.00  0.00    +0.000 A 
ATOM      3  C   UNL     1       4.269   3.570  17.370  0.00  0.00    +0.000 A 
ATOM      4  C   UNL     1       4.022   4.935  17.337  0.00  0.00    +0.000 A 
ATOM      5  C   UNL     1       3.139   5.527  18.255  0.00  0.00    +0.000 A 
ATOM      6 BR   UNL     1       2.860   7.418  18.147  0.00  0.00    +0.000 Br
ATOM      7  C   UNL     1       2.496   4.736  19.236  0.00  0.00    +0.000 A 
ATOM      8 CL   UNL     1       1.510   5.511  20.437  0.00  0.00    +0.000 Cl
ENDROOT
BRANCH   1  10
ATOM      9  C   UNL     1       2.641   2.544  21.516  0.00  0.00    +0.000 C 
ATOM     10  O   UNL     1       2.257   2.414  20.151  0.00  0.00    +0.000 OA
ENDBRANCH   1  10
BRANCH   2  11
ATOM     11  O   UNL     1       3.898   1.456  18.340  0.00  0.00    +0.000 OA
ATOM     12  H   UNL     1       3.994   1.218  19.285  0.00  0.00    +0.000 HD
ENDBRANCH   2  11
BRANCH   4  13
ATOM     13  O   UNL     1       4.666   5.706  16.407  0.00  0.00    +0.000 OA
ATOM     14  H   UNL     1       4.590   5.295  15.530  0.00  0.00    +0.000 HD
ENDBRANCH   4  13
TORSDOF 3
ENDMDL
