MODEL 1
REMARK VINA RESULT:      -7.7      0.000      0.000
REMARK  Name = 
REMARK  8 active torsions:
REMARK  status: ('A' for Active; 'I' for Inactive)
REMARK    1  A    between atoms: C_1  and  O_2
REMARK    2  A    between atoms: O_2  and  C_3
REMARK    3  A    between atoms: C_5  and  C_6
REMARK    4  A    between atoms: C_11  and  C_12
REMARK    5  A    between atoms: C_24  and  O_25
REMARK    6  A    between atoms: O_25  and  C_26
REMARK    7  A    between atoms: C_27  and  O_28
REMARK    8  A    between atoms: O_28  and  C_29
REMARK                            x       y       z     vdW  Elec       q    Type
REMARK                         _______ _______ _______ _____ _____    ______ ____
ROOT
ATOM      1  C   UNL     1       2.325   6.802  19.645  0.00  0.00    +0.000 C 
ATOM      2  O   UNL     1       2.108   6.173  20.681  0.00  0.00    +0.000 OA
ATOM      3  N   UNL     1       1.835   8.097  19.431  0.00  0.00    +0.000 N 
ATOM      4  C   UNL     1       1.273   8.811  20.576  0.00  0.00    +0.000 C 
ATOM      5  C   UNL     1      -0.051   9.478  20.214  0.00  0.00    +0.000 C 
ATOM      6  C   UNL     1       0.089  10.419  19.010  0.00  0.00    +0.000 C 
ATOM      7  C   UNL     1       0.726   9.667  17.837  0.00  0.00    +0.000 C 
ATOM      8  C   UNL     1       1.992   8.901  18.212  0.00  0.00    +0.000 C 
ENDROOT
BRANCH   6   9
ATOM      9  C   UNL     1       0.850  11.671  19.382  0.00  0.00    +0.000 A 
ATOM     10  N   UNL     1       1.759  12.246  18.627  0.00  0.00    +0.000 NA
ATOM     11  C   UNL     1       2.346  13.303  19.299  0.00  0.00    +0.000 A 
ATOM     12  C   UNL     1       3.384  14.118  18.809  0.00  0.00    +0.000 A 
ATOM     13  C   UNL     1       3.894  15.145  19.607  0.00  0.00    +0.000 A 
ATOM     14  C   UNL     1       3.390  15.363  20.885  0.00  0.00    +0.000 A 
ATOM     15  C   UNL     1       2.349  14.577  21.389  0.00  0.00    +0.000 A 
ATOM     16  C   UNL     1       1.843  13.548  20.579  0.00  0.00    +0.000 A 
ATOM     17  S   UNL     1       0.594  12.411  20.915  0.00  0.00    +0.000 S 
ENDBRANCH   6   9
BRANCH   1  20
ATOM     18  C   UNL     1       5.005   6.059  17.088  0.00  0.00    +0.000 A 
ATOM     19  C   UNL     1       4.170   6.737  17.991  0.00  0.00    +0.000 A 
ATOM     20  C   UNL     1       3.083   6.092  18.580  0.00  0.00    +0.000 A 
ATOM     21  C   UNL     1       2.741   4.818  18.146  0.00  0.00    +0.000 A 
ATOM     22  C   UNL     1       3.564   4.110  17.262  0.00  0.00    +0.000 A 
ATOM     23  C   UNL     1       4.710   4.726  16.713  0.00  0.00    +0.000 A 
BRANCH  18  25
ATOM     24  C   UNL     1       7.281   6.748  17.312  0.00  0.00    +0.000 C 
ATOM     25  O   UNL     1       6.091   6.685  16.530  0.00  0.00    +0.000 OA
ENDBRANCH  18  25
BRANCH  22  26
ATOM     26  O   UNL     1       3.099   2.831  17.093  0.00  0.00    +0.000 OA
ATOM     27  C   UNL     1       3.353   1.849  18.084  0.00  0.00    +0.000 C 
ENDBRANCH  22  26
BRANCH  23  28
ATOM     28  O   UNL     1       5.428   3.961  15.833  0.00  0.00    +0.000 OA
ATOM     29  C   UNL     1       5.510   4.308  14.461  0.00  0.00    +0.000 C 
ENDBRANCH  23  28
ENDBRANCH   1  20
TORSDOF 5
ENDMDL
MODEL 2
REMARK VINA RESULT:      -7.6      3.641      8.789
REMARK  Name = 
REMARK  8 active torsions:
REMARK  status: ('A' for Active; 'I' for Inactive)
REMARK    1  A    between atoms: C_1  and  O_2
REMARK    2  A    between atoms: O_2  and  C_3
REMARK    3  A    between atoms: C_5  and  C_6
REMARK    4  A    between atoms: C_11  and  C_12
REMARK    5  A    between atoms: C_24  and  O_25
REMARK    6  A    between atoms: O_25  and  C_26
REMARK    7  A    between atoms: C_27  and  O_28
REMARK    8  A    between atoms: O_28  and  C_29
REMARK                            x       y       z     vdW  Elec       q    Type
REMARK                         _______ _______ _______ _____ _____    ______ ____
ROOT
ATOM      1  C   UNL     1       3.146   5.998  19.523  0.00  0.00    +0.000 C 
ATOM      2  O   UNL     1       2.885   5.111  20.336  0.00  0.00    +0.000 OA
ATOM      3  N   UNL     1       4.244   5.928  18.654  0.00  0.00    +0.000 N 
ATOM      4  C   UNL     1       4.937   4.646  18.535  0.00  0.00    +0.000 C 
ATOM      5  C   UNL     1       6.451   4.832  18.601  0.00  0.00    +0.000 C 
ATOM      6  C   UNL     1       6.956   5.816  17.538  0.00  0.00    +0.000 C 
ATOM      7  C   UNL     1       6.183   7.134  17.645  0.00  0.00    +0.000 C 
ATOM      8  C   UNL     1       4.667   6.956  17.696  0.00  0.00    +0.000 C 
ENDROOT
BRANCH   6   9
ATOM      9  C   UNL     1       6.887   5.210  16.155  0.00  0.00    +0.000 A 
ATOM     10  N   UNL     1       7.603   5.608  15.127  0.00  0.00    +0.000 NA
ATOM     11  C   UNL     1       7.225   4.928  13.984  0.00  0.00    +0.000 A 
ATOM     12  C   UNL     1       7.752   5.125  12.693  0.00  0.00    +0.000 A 
ATOM     13  C   UNL     1       7.262   4.374  11.623  0.00  0.00    +0.000 A 
ATOM     14  C   UNL     1       6.252   3.437  11.820  0.00  0.00    +0.000 A 
ATOM     15  C   UNL     1       5.723   3.211  13.094  0.00  0.00    +0.000 A 
ATOM     16  C   UNL     1       6.222   3.972  14.164  0.00  0.00    +0.000 A 
ATOM     17  S   UNL     1       5.770   3.944  15.825  0.00  0.00    +0.000 S 
ENDBRANCH   6   9
BRANCH   1  20
ATOM     18  C   UNL     1       0.690   8.576  20.786  0.00  0.00    +0.000 A 
ATOM     19  C   UNL     1       1.422   7.387  20.638  0.00  0.00    +0.000 A 
ATOM     20  C   UNL     1       2.277   7.205  19.551  0.00  0.00    +0.000 A 
ATOM     21  C   UNL     1       2.280   8.149  18.533  0.00  0.00    +0.000 A 
ATOM     22  C   UNL     1       1.576   9.352  18.660  0.00  0.00    +0.000 A 
ATOM     23  C   UNL     1       0.762   9.582  19.791  0.00  0.00    +0.000 A 
BRANCH  18  25
ATOM     24  C   UNL     1       0.430   9.421  23.005  0.00  0.00    +0.000 C 
ATOM     25  O   UNL     1      -0.130   8.766  21.870  0.00  0.00    +0.000 OA
ENDBRANCH  18  25
BRANCH  22  26
ATOM     26  O   UNL     1       1.844  10.180  17.600  0.00  0.00    +0.000 OA
ATOM     27  C   UNL     1       2.477  11.429  17.820  0.00  0.00    +0.000 C 
ENDBRANCH  22  26
BRANCH  23  28
ATOM     28  O   UNL     1       0.088  10.773  19.804  0.00  0.00    +0.000 OA
ATOM     29  C   UNL     1      -1.205  10.889  19.237  0.00  0.00    +0.000 C 
ENDBRANCH  23  28
ENDBRANCH   1  20
TORSDOF 5
ENDMDL
MODEL 3
REMARK VINA RESULT:      -7.5      0.756      1.177
REMARK  Name = 
REMARK  8 active torsions:
REMARK  status: ('A' for Active; 'I' for Inactive)
REMARK    1  A    between atoms: C_1  and  O_2
REMARK    2  A    between atoms: O_2  and  C_3
REMARK    3  A    between atoms: C_5  and  C_6
REMARK    4  A    between atoms: C_11  and  C_12
REMARK    5  A    between atoms: C_24  and  O_25
REMARK    6  A    between atoms: O_25  and  C_26
REMARK    7  A    between atoms: C_27  and  O_28
REMARK    8  A    between atoms: O_28  and  C_29
REMARK                            x       y       z     vdW  Elec       q    Type
REMARK                         _______ _______ _______ _____ _____    ______ ____
ROOT
ATOM      1  C   UNL     1       2.362   6.746  19.631  0.00  0.00    +0.000 C 
ATOM      2  O   UNL     1       2.117   6.096  20.648  0.00  0.00    +0.000 OA
ATOM      3  N   UNL     1       1.893   8.052  19.438  0.00  0.00    +0.000 N 
ATOM      4  C   UNL     1       1.319   8.747  20.588  0.00  0.00    +0.000 C 
ATOM      5  C   UNL     1       0.010   9.439  20.216  0.00  0.00    +0.000 C 
ATOM      6  C   UNL     1       0.186  10.406  19.038  0.00  0.00    +0.000 C 
ATOM      7  C   UNL     1       0.836   9.673  17.860  0.00  0.00    +0.000 C 
ATOM      8  C   UNL     1       2.085   8.882  18.242  0.00  0.00    +0.000 C 
ENDROOT
BRANCH   6   9
ATOM      9  C   UNL     1       0.956  11.639  19.454  0.00  0.00    +0.000 A 
ATOM     10  N   UNL     1       0.771  12.291  20.580  0.00  0.00    +0.000 NA
ATOM     11  C   UNL     1       1.550  13.433  20.609  0.00  0.00    +0.000 A 
ATOM     12  C   UNL     1       1.577  14.388  21.644  0.00  0.00    +0.000 A 
ATOM     13  C   UNL     1       2.406  15.507  21.532  0.00  0.00    +0.000 A 
ATOM     14  C   UNL     1       3.198  15.690  20.404  0.00  0.00    +0.000 A 
ATOM     15  C   UNL     1       3.201  14.749  19.370  0.00  0.00    +0.000 A 
ATOM     16  C   UNL     1       2.365  13.627  19.491  0.00  0.00    +0.000 A 
ATOM     17  S   UNL     1       2.130  12.319  18.397  0.00  0.00    +0.000 S 
ENDBRANCH   6   9
BRANCH   1  20
ATOM     18  C   UNL     1       5.060   6.048  17.079  0.00  0.00    +0.000 A 
ATOM     19  C   UNL     1       4.214   6.711  17.983  0.00  0.00    +0.000 A 
ATOM     20  C   UNL     1       3.131   6.050  18.564  0.00  0.00    +0.000 A 
ATOM     21  C   UNL     1       2.805   4.776  18.121  0.00  0.00    +0.000 A 
ATOM     22  C   UNL     1       3.638   4.082  17.236  0.00  0.00    +0.000 A 
ATOM     23  C   UNL     1       4.780   4.714  16.694  0.00  0.00    +0.000 A 
BRANCH  18  25
ATOM     24  C   UNL     1       7.260   6.926  17.378  0.00  0.00    +0.000 C 
ATOM     25  O   UNL     1       6.140   6.689  16.529  0.00  0.00    +0.000 OA
ENDBRANCH  18  25
BRANCH  22  26
ATOM     26  O   UNL     1       3.188   2.799  17.058  0.00  0.00    +0.000 OA
ATOM     27  C   UNL     1       3.288   1.861  18.117  0.00  0.00    +0.000 C 
ENDBRANCH  22  26
BRANCH  23  28
ATOM     28  O   UNL     1       5.510   3.962  15.812  0.00  0.00    +0.000 OA
ATOM     29  C   UNL     1       5.505   4.254  14.426  0.00  0.00    +0.000 C 
ENDBRANCH  23  28
ENDBRANCH   1  20
TORSDOF 5
ENDMDL
MODEL 4
REMARK VINA RESULT:      -7.5      0.432      2.335
REMARK  Name = 
REMARK  8 active torsions:
REMARK  status: ('A' for Active; 'I' for Inactive)
REMARK    1  A    between atoms: C_1  and  O_2
REMARK    2  A    between atoms: O_2  and  C_3
REMARK    3  A    between atoms: C_5  and  C_6
REMARK    4  A    between atoms: C_11  and  C_12
REMARK    5  A    between atoms: C_24  and  O_25
REMARK    6  A    between atoms: O_25  and  C_26
REMARK    7  A    between atoms: C_27  and  O_28
REMARK    8  A    between atoms: O_28  and  C_29
REMARK                            x       y       z     vdW  Elec       q    Type
REMARK                         _______ _______ _______ _____ _____    ______ ____
ROOT
ATOM      1  C   UNL     1       2.182   6.899  19.854  0.00  0.00    +0.000 C 
ATOM      2  O   UNL     1       1.928   6.289  20.893  0.00  0.00    +0.000 OA
ATOM      3  N   UNL     1       1.713   8.196  19.605  0.00  0.00    +0.000 N 
ATOM      4  C   UNL     1       1.126   8.934  20.722  0.00  0.00    +0.000 C 
ATOM      5  C   UNL     1      -0.180   9.609  20.311  0.00  0.00    +0.000 C 
ATOM      6  C   UNL     1       0.005  10.530  19.098  0.00  0.00    +0.000 C 
ATOM      7  C   UNL     1       0.668   9.752  17.956  0.00  0.00    +0.000 C 
ATOM      8  C   UNL     1       1.914   8.979  18.379  0.00  0.00    +0.000 C 
ENDROOT
BRANCH   6   9
ATOM      9  C   UNL     1       0.769  11.779  19.473  0.00  0.00    +0.000 A 
ATOM     10  N   UNL     1       1.707  12.331  18.736  0.00  0.00    +0.000 NA
ATOM     11  C   UNL     1       2.286  13.393  19.408  0.00  0.00    +0.000 A 
ATOM     12  C   UNL     1       3.347  14.189  18.936  0.00  0.00    +0.000 A 
ATOM     13  C   UNL     1       3.845  15.223  19.733  0.00  0.00    +0.000 A 
ATOM     14  C   UNL     1       3.305  15.467  20.992  0.00  0.00    +0.000 A 
ATOM     15  C   UNL     1       2.240  14.702  21.476  0.00  0.00    +0.000 A 
ATOM     16  C   UNL     1       1.747  13.664  20.668  0.00  0.00    +0.000 A 
ATOM     17  S   UNL     1       0.476  12.547  20.984  0.00  0.00    +0.000 S 
ENDBRANCH   6   9
BRANCH   1  20
ATOM     18  C   UNL     1       3.201   4.166  17.452  0.00  0.00    +0.000 A 
ATOM     19  C   UNL     1       2.595   4.853  18.517  0.00  0.00    +0.000 A 
ATOM     20  C   UNL     1       2.962   6.164  18.822  0.00  0.00    +0.000 A 
ATOM     21  C   UNL     1       4.044   6.730  18.161  0.00  0.00    +0.000 A 
ATOM     22  C   UNL     1       4.656   6.079  17.085  0.00  0.00    +0.000 A 
ATOM     23  C   UNL     1       4.245   4.778  16.716  0.00  0.00    +0.000 A 
BRANCH  18  25
ATOM     24  C   UNL     1       3.303   1.836  17.966  0.00  0.00    +0.000 C 
ATOM     25  O   UNL     1       2.820   2.888  17.134  0.00  0.00    +0.000 OA
ENDBRANCH  18  25
BRANCH  22  26
ATOM     26  O   UNL     1       5.598   6.890  16.505  0.00  0.00    +0.000 OA
ATOM     27  C   UNL     1       6.771   7.236  17.223  0.00  0.00    +0.000 C 
ENDBRANCH  22  26
BRANCH  23  28
ATOM     28  O   UNL     1       4.929   4.215  15.672  0.00  0.00    +0.000 OA
ATOM     29  C   UNL     1       6.263   3.765  15.831  0.00  0.00    +0.000 C 
ENDBRANCH  23  28
ENDBRANCH   1  20
TORSDOF 5
ENDMDL
MODEL 5
REMARK VINA RESULT:      -7.3      0.962      2.566
REMARK  Name = 
REMARK  8 active torsions:
REMARK  status: ('A' for Active; 'I' for Inactive)
REMARK    1  A    between atoms: C_1  and  O_2
REMARK    2  A    between atoms: O_2  and  C_3
REMARK    3  A    between atoms: C_5  and  C_6
REMARK    4  A    between atoms: C_11  and  C_12
REMARK    5  A    between atoms: C_24  and  O_25
REMARK    6  A    between atoms: O_25  and  C_26
REMARK    7  A    between atoms: C_27  and  O_28
REMARK    8  A    between atoms: O_28  and  C_29
REMARK                            x       y       z     vdW  Elec       q    Type
REMARK                         _______ _______ _______ _____ _____    ______ ____
ROOT
ATOM      1  C   UNL     1       2.150   6.797  20.008  0.00  0.00    +0.000 C 
ATOM      2  O   UNL     1       1.739   6.253  21.032  0.00  0.00    +0.000 OA
ATOM      3  N   UNL     1       1.808   8.111  19.659  0.00  0.00    +0.000 N 
ATOM      4  C   UNL     1       1.158   8.937  20.675  0.00  0.00    +0.000 C 
ATOM      5  C   UNL     1      -0.041   9.681  20.094  0.00  0.00    +0.000 C 
ATOM      6  C   UNL     1       0.344  10.532  18.876  0.00  0.00    +0.000 C 
ATOM      7  C   UNL     1       1.070   9.660  17.846  0.00  0.00    +0.000 C 
ATOM      8  C   UNL     1       2.201   8.822  18.437  0.00  0.00    +0.000 C 
ENDROOT
BRANCH   6   9
ATOM      9  C   UNL     1       1.152  11.741  19.289  0.00  0.00    +0.000 A 
ATOM     10  N   UNL     1       1.009  12.382  20.428  0.00  0.00    +0.000 NA
ATOM     11  C   UNL     1       1.816  13.505  20.453  0.00  0.00    +0.000 A 
ATOM     12  C   UNL     1       1.889  14.445  21.499  0.00  0.00    +0.000 A 
ATOM     13  C   UNL     1       2.741  15.547  21.381  0.00  0.00    +0.000 A 
ATOM     14  C   UNL     1       3.510  15.726  20.236  0.00  0.00    +0.000 A 
ATOM     15  C   UNL     1       3.467  14.799  19.190  0.00  0.00    +0.000 A 
ATOM     16  C   UNL     1       2.608  13.695  19.318  0.00  0.00    +0.000 A 
ATOM     17  S   UNL     1       2.317  12.408  18.213  0.00  0.00    +0.000 S 
ENDBRANCH   6   9
BRANCH   1  20
ATOM     18  C   UNL     1       3.094   4.120  17.514  0.00  0.00    +0.000 A 
ATOM     19  C   UNL     1       2.399   4.852  18.490  0.00  0.00    +0.000 A 
ATOM     20  C   UNL     1       2.983   5.964  19.099  0.00  0.00    +0.000 A 
ATOM     21  C   UNL     1       4.318   6.246  18.842  0.00  0.00    +0.000 A 
ATOM     22  C   UNL     1       5.030   5.546  17.862  0.00  0.00    +0.000 A 
ATOM     23  C   UNL     1       4.427   4.463  17.184  0.00  0.00    +0.000 A 
BRANCH  18  25
ATOM     24  C   UNL     1       2.319   1.866  17.675  0.00  0.00    +0.000 C 
ATOM     25  O   UNL     1       2.509   3.044  16.895  0.00  0.00    +0.000 OA
ENDBRANCH  18  25
BRANCH  22  26
ATOM     26  O   UNL     1       6.276   6.095  17.690  0.00  0.00    +0.000 OA
ATOM     27  C   UNL     1       7.400   5.512  18.326  0.00  0.00    +0.000 C 
ENDBRANCH  22  26
BRANCH  23  28
ATOM     28  O   UNL     1       5.219   3.823  16.269  0.00  0.00    +0.000 OA
ATOM     29  C   UNL     1       5.449   4.378  14.986  0.00  0.00    +0.000 C 
ENDBRANCH  23  28
ENDBRANCH   1  20
TORSDOF 5
ENDMDL
MODEL 6
REMARK VINA RESULT:      -7.2      1.834      3.231
REMARK  Name = 
REMARK  8 active torsions:
REMARK  status: ('A' for Active; 'I' for Inactive)
REMARK    1  A    between atoms: C_1  and  O_2
REMARK    2  A    between atoms: O_2  and  C_3
REMARK    3  A    between atoms: C_5  and  C_6
REMARK    4  A    between atoms: C_11  and  C_12
REMARK    5  A    between atoms: C_24  and  O_25
REMARK    6  A    between atoms: O_25  and  C_26
REMARK    7  A    between atoms: C_27  and  O_28
REMARK    8  A    between atoms: O_28  and  C_29
REMARK                            x       y       z     vdW  Elec       q    Type
REMARK                         _______ _______ _______ _____ _____    ______ ____
ROOT
ATOM      1  C   UNL     1       1.397   8.260  20.883  0.00  0.00    +0.000 C 
ATOM      2  O   UNL     1       1.336   8.133  22.107  0.00  0.00    +0.000 OA
ATOM      3  N   UNL     1       0.984   9.424  20.222  0.00  0.00    +0.000 N 
ATOM      4  C   UNL     1       0.720  10.611  21.034  0.00  0.00    +0.000 C 
ATOM      5  C   UNL     1      -0.590  11.279  20.623  0.00  0.00    +0.000 C 
ATOM      6  C   UNL     1      -0.611  11.634  19.130  0.00  0.00    +0.000 C 
ATOM      7  C   UNL     1      -0.281  10.390  18.298  0.00  0.00    +0.000 C 
ATOM      8  C   UNL     1       0.965   9.646  18.771  0.00  0.00    +0.000 C 
ENDROOT
BRANCH   6   9
ATOM      9  C   UNL     1       0.310  12.795  18.833  0.00  0.00    +0.000 A 
ATOM     10  N   UNL     1       1.562  12.677  18.449  0.00  0.00    +0.000 NA
ATOM     11  C   UNL     1       2.161  13.921  18.368  0.00  0.00    +0.000 A 
ATOM     12  C   UNL     1       3.504  14.170  18.026  0.00  0.00    +0.000 A 
ATOM     13  C   UNL     1       3.980  15.483  18.000  0.00  0.00    +0.000 A 
ATOM     14  C   UNL     1       3.140  16.546  18.317  0.00  0.00    +0.000 A 
ATOM     15  C   UNL     1       1.799  16.326  18.645  0.00  0.00    +0.000 A 
ATOM     16  C   UNL     1       1.329  15.002  18.669  0.00  0.00    +0.000 A 
ATOM     17  S   UNL     1      -0.242  14.410  19.048  0.00  0.00    +0.000 S 
ENDBRANCH   6   9
BRANCH   1  20
ATOM     18  C   UNL     1       1.681   4.689  19.681  0.00  0.00    +0.000 A 
ATOM     19  C   UNL     1       1.384   5.816  20.464  0.00  0.00    +0.000 A 
ATOM     20  C   UNL     1       1.868   7.077  20.113  0.00  0.00    +0.000 A 
ATOM     21  C   UNL     1       2.776   7.181  19.068  0.00  0.00    +0.000 A 
ATOM     22  C   UNL     1       3.077   6.080  18.259  0.00  0.00    +0.000 A 
ATOM     23  C   UNL     1       2.536   4.810  18.558  0.00  0.00    +0.000 A 
BRANCH  18  25
ATOM     24  C   UNL     1       1.512   2.939  21.298  0.00  0.00    +0.000 C 
ATOM     25  O   UNL     1       1.182   3.454  20.011  0.00  0.00    +0.000 OA
ENDBRANCH  18  25
BRANCH  22  26
ATOM     26  O   UNL     1       3.879   6.458  17.213  0.00  0.00    +0.000 OA
ATOM     27  C   UNL     1       5.286   6.504  17.381  0.00  0.00    +0.000 C 
ENDBRANCH  22  26
BRANCH  23  28
ATOM     28  O   UNL     1       2.918   3.792  17.727  0.00  0.00    +0.000 OA
ATOM     29  C   UNL     1       4.030   2.972  18.038  0.00  0.00    +0.000 C 
ENDBRANCH  23  28
ENDBRANCH   1  20
TORSDOF 5
ENDMDL
MODEL 7
REMARK VINA RESULT:      -7.2      3.540      8.617
REMARK  Name = 
REMARK  8 active torsions:
REMARK  status: ('A' for Active; 'I' for Inactive)
REMARK    1  A    between atoms: C_1  and  O_2
REMARK    2  A    between atoms: O_2  and  C_3
REMARK    3  A    between atoms: C_5  and  C_6
REMARK    4  A    between atoms: C_11  and  C_12
REMARK    5  A    between atoms: C_24  and  O_25
REMARK    6  A    between atoms: O_25  and  C_26
REMARK    7  A    between atoms: C_27  and  O_28
REMARK    8  A    between atoms: O_28  and  C_29
REMARK                            x       y       z     vdW  Elec       q    Type
REMARK                         _______ _______ _______ _____ _____    ______ ____
ROOT
ATOM      1  C   UNL     1       3.072   5.954  19.560  0.00  0.00    +0.000 C 
ATOM      2  O   UNL     1       2.708   5.044  20.305  0.00  0.00    +0.000 OA
ATOM      3  N   UNL     1       4.188   5.843  18.720  0.00  0.00    +0.000 N 
ATOM      4  C   UNL     1       4.774   4.516  18.538  0.00  0.00    +0.000 C 
ATOM      5  C   UNL     1       6.294   4.563  18.660  0.00  0.00    +0.000 C 
ATOM      6  C   UNL     1       6.919   5.565  17.679  0.00  0.00    +0.000 C 
ATOM      7  C   UNL     1       6.257   6.936  17.849  0.00  0.00    +0.000 C 
ATOM      8  C   UNL     1       4.731   6.888  17.844  0.00  0.00    +0.000 C 
ENDROOT
BRANCH   6   9
ATOM      9  C   UNL     1       6.845   5.054  16.258  0.00  0.00    +0.000 A 
ATOM     10  N   UNL     1       7.600   5.481  15.270  0.00  0.00    +0.000 NA
ATOM     11  C   UNL     1       7.210   4.897  14.078  0.00  0.00    +0.000 A 
ATOM     12  C   UNL     1       7.772   5.151  12.812  0.00  0.00    +0.000 A 
ATOM     13  C   UNL     1       7.265   4.498  11.686  0.00  0.00    +0.000 A 
ATOM     14  C   UNL     1       6.205   3.604  11.805  0.00  0.00    +0.000 A 
ATOM     15  C   UNL     1       5.641   3.322  13.053  0.00  0.00    +0.000 A 
ATOM     16  C   UNL     1       6.157   3.985  14.179  0.00  0.00    +0.000 A 
ATOM     17  S   UNL     1       5.672   3.872  15.827  0.00  0.00    +0.000 S 
ENDBRANCH   6   9
BRANCH   1  20
ATOM     18  C   UNL     1       1.613   9.290  18.549  0.00  0.00    +0.000 A 
ATOM     19  C   UNL     1       2.421   8.142  18.593  0.00  0.00    +0.000 A 
ATOM     20  C   UNL     1       2.309   7.229  19.641  0.00  0.00    +0.000 A 
ATOM     21  C   UNL     1       1.499   7.545  20.724  0.00  0.00    +0.000 A 
ATOM     22  C   UNL     1       0.669   8.671  20.702  0.00  0.00    +0.000 A 
ATOM     23  C   UNL     1       0.718   9.568  19.611  0.00  0.00    +0.000 A 
BRANCH  18  25
ATOM     24  C   UNL     1       2.525  11.323  17.690  0.00  0.00    +0.000 C 
ATOM     25  O   UNL     1       1.704  10.173  17.504  0.00  0.00    +0.000 OA
ENDBRANCH  18  25
BRANCH  22  26
ATOM     26  O   UNL     1      -0.138   8.695  21.811  0.00  0.00    +0.000 OA
ATOM     27  C   UNL     1       0.282   9.387  22.976  0.00  0.00    +0.000 C 
ENDBRANCH  22  26
BRANCH  23  28
ATOM     28  O   UNL     1      -0.108  10.656  19.701  0.00  0.00    +0.000 OA
ATOM     29  C   UNL     1       0.315  11.844  20.346  0.00  0.00    +0.000 C 
ENDBRANCH  23  28
ENDBRANCH   1  20
TORSDOF 5
ENDMDL
MODEL 8
REMARK VINA RESULT:      -7.1      1.008      2.594
REMARK  Name = 
REMARK  8 active torsions:
REMARK  status: ('A' for Active; 'I' for Inactive)
REMARK    1  A    between atoms: C_1  and  O_2
REMARK    2  A    between atoms: O_2  and  C_3
REMARK    3  A    between atoms: C_5  and  C_6
REMARK    4  A    between atoms: C_11  and  C_12
REMARK    5  A    between atoms: C_24  and  O_25
REMARK    6  A    between atoms: O_25  and  C_26
REMARK    7  A    between atoms: C_27  and  O_28
REMARK    8  A    between atoms: O_28  and  C_29
REMARK                            x       y       z     vdW  Elec       q    Type
REMARK                         _______ _______ _______ _____ _____    ______ ____
ROOT
ATOM      1  C   UNL     1       2.213   7.101  19.809  0.00  0.00    +0.000 C 
ATOM      2  O   UNL     1       2.054   6.540  20.893  0.00  0.00    +0.000 OA
ATOM      3  N   UNL     1       1.640   8.345  19.510  0.00  0.00    +0.000 N 
ATOM      4  C   UNL     1       1.056   9.108  20.612  0.00  0.00    +0.000 C 
ATOM      5  C   UNL     1      -0.313   9.664  20.232  0.00  0.00    +0.000 C 
ATOM      6  C   UNL     1      -0.253  10.519  18.959  0.00  0.00    +0.000 C 
ATOM      7  C   UNL     1       0.407   9.721  17.831  0.00  0.00    +0.000 C 
ATOM      8  C   UNL     1       1.725   9.063  18.232  0.00  0.00    +0.000 C 
ENDROOT
BRANCH   6   9
ATOM      9  C   UNL     1       0.436  11.839  19.220  0.00  0.00    +0.000 A 
ATOM     10  N   UNL     1       1.452  12.003  20.038  0.00  0.00    +0.000 NA
ATOM     11  C   UNL     1       1.778  13.343  20.139  0.00  0.00    +0.000 A 
ATOM     12  C   UNL     1       2.789  13.887  20.954  0.00  0.00    +0.000 A 
ATOM     13  C   UNL     1       2.998  15.269  20.969  0.00  0.00    +0.000 A 
ATOM     14  C   UNL     1       2.210  16.111  20.192  0.00  0.00    +0.000 A 
ATOM     15  C   UNL     1       1.210  15.594  19.362  0.00  0.00    +0.000 A 
ATOM     16  C   UNL     1       1.007  14.205  19.354  0.00  0.00    +0.000 A 
ATOM     17  S   UNL     1      -0.141  13.276  18.469  0.00  0.00    +0.000 S 
ENDBRANCH   6   9
BRANCH   1  20
ATOM     18  C   UNL     1       3.186   4.393  17.360  0.00  0.00    +0.000 A 
ATOM     19  C   UNL     1       2.576   5.077  18.424  0.00  0.00    +0.000 A 
ATOM     20  C   UNL     1       2.993   6.360  18.782  0.00  0.00    +0.000 A 
ATOM     21  C   UNL     1       4.123   6.892  18.175  0.00  0.00    +0.000 A 
ATOM     22  C   UNL     1       4.740   6.243  17.100  0.00  0.00    +0.000 A 
ATOM     23  C   UNL     1       4.283   4.975  16.679  0.00  0.00    +0.000 A 
BRANCH  18  25
ATOM     24  C   UNL     1       2.207   2.314  18.011  0.00  0.00    +0.000 C 
ATOM     25  O   UNL     1       2.757   3.144  16.991  0.00  0.00    +0.000 OA
ENDBRANCH  18  25
BRANCH  22  26
ATOM     26  O   UNL     1       5.739   7.025  16.577  0.00  0.00    +0.000 OA
ATOM     27  C   UNL     1       6.940   7.219  17.306  0.00  0.00    +0.000 C 
ENDBRANCH  22  26
BRANCH  23  28
ATOM     28  O   UNL     1       4.975   4.410  15.642  0.00  0.00    +0.000 OA
ATOM     29  C   UNL     1       6.221   3.771  15.857  0.00  0.00    +0.000 C 
ENDBRANCH  23  28
ENDBRANCH   1  20
TORSDOF 5
ENDMDL
MODEL 9
REMARK VINA RESULT:      -7.0      2.581      4.772
REMARK  Name = 
REMARK  8 active torsions:
REMARK  status: ('A' for Active; 'I' for Inactive)
REMARK    1  A    between atoms: C_1  and  O_2
REMARK    2  A    between atoms: O_2  and  C_3
REMARK    3  A    between atoms: C_5  and  C_6
REMARK    4  A    between atoms: C_11  and  C_12
REMARK    5  A    between atoms: C_24  and  O_25
REMARK    6  A    between atoms: O_25  and  C_26
REMARK    7  A    between atoms: C_27  and  O_28
REMARK    8  A    between atoms: O_28  and  C_29
REMARK                            x       y       z     vdW  Elec       q    Type
REMARK                         _______ _______ _______ _____ _____    ______ ____
ROOT
ATOM      1  C   UNL     1       3.089   7.731  17.825  0.00  0.00    +0.000 C 
ATOM      2  O   UNL     1       3.811   8.076  16.889  0.00  0.00    +0.000 OA
ATOM      3  N   UNL     1       2.164   8.596  18.425  0.00  0.00    +0.000 N 
ATOM      4  C   UNL     1       1.871   9.856  17.746  0.00  0.00    +0.000 C 
ATOM      5  C   UNL     1       1.882  11.026  18.726  0.00  0.00    +0.000 C 
ATOM      6  C   UNL     1       0.910  10.806  19.894  0.00  0.00    +0.000 C 
ATOM      7  C   UNL     1       1.200   9.458  20.560  0.00  0.00    +0.000 C 
ATOM      8  C   UNL     1       1.305   8.295  19.577  0.00  0.00    +0.000 C 
ENDROOT
BRANCH   6   9
ATOM      9  C   UNL     1      -0.526  10.936  19.440  0.00  0.00    +0.000 A 
ATOM     10  N   UNL     1      -1.045  10.301  18.413  0.00  0.00    +0.000 NA
ATOM     11  C   UNL     1      -2.345  10.721  18.194  0.00  0.00    +0.000 A 
ATOM     12  C   UNL     1      -3.191  10.282  17.157  0.00  0.00    +0.000 A 
ATOM     13  C   UNL     1      -4.481  10.806  17.048  0.00  0.00    +0.000 A 
ATOM     14  C   UNL     1      -4.935  11.763  17.950  0.00  0.00    +0.000 A 
ATOM     15  C   UNL     1      -4.120  12.203  18.998  0.00  0.00    +0.000 A 
ATOM     16  C   UNL     1      -2.825  11.671  19.100  0.00  0.00    +0.000 A 
ATOM     17  S   UNL     1      -1.591  12.018  20.249  0.00  0.00    +0.000 S 
ENDBRANCH   6   9
BRANCH   1  20
ATOM     18  C   UNL     1       2.302   4.233  19.019  0.00  0.00    +0.000 A 
ATOM     19  C   UNL     1       2.171   5.584  18.659  0.00  0.00    +0.000 A 
ATOM     20  C   UNL     1       3.293   6.354  18.352  0.00  0.00    +0.000 A 
ATOM     21  C   UNL     1       4.555   5.814  18.558  0.00  0.00    +0.000 A 
ATOM     22  C   UNL     1       4.719   4.467  18.899  0.00  0.00    +0.000 A 
ATOM     23  C   UNL     1       3.589   3.654  19.141  0.00  0.00    +0.000 A 
BRANCH  18  25
ATOM     24  C   UNL     1       0.942   3.156  20.660  0.00  0.00    +0.000 C 
ATOM     25  O   UNL     1       1.197   3.469  19.293  0.00  0.00    +0.000 OA
ENDBRANCH  18  25
BRANCH  22  26
ATOM     26  O   UNL     1       6.049   4.131  18.906  0.00  0.00    +0.000 OA
ATOM     27  C   UNL     1       6.961   4.836  18.080  0.00  0.00    +0.000 C 
ENDBRANCH  22  26
BRANCH  23  28
ATOM     28  O   UNL     1       3.856   2.360  19.501  0.00  0.00    +0.000 OA
ATOM     29  C   UNL     1       3.770   1.307  18.559  0.00  0.00    +0.000 C 
ENDBRANCH  23  28
ENDBRANCH   1  20
TORSDOF 5
ENDMDL
