MODEL 1
REMARK VINA RESULT:      -9.3      0.000      0.000
REMARK  Name = 
REMARK  9 active torsions:
REMARK  status: ('A' for Active; 'I' for Inactive)
REMARK    1  A    between atoms: C_1  and  C_2
REMARK    2  A    between atoms: C_2  and  C_3
REMARK    3  A    between atoms: C_3  and  C_4
REMARK    4  A    between atoms: C_4  and  C_5
REMARK    5  A    between atoms: N_15  and  C_16
REMARK    6  A    between atoms: C_16  and  C_17
REMARK    7  A    between atoms: C_20  and  C_21
REMARK    8  A    between atoms: C_26  and  C_27
REMARK    9  A    between atoms: C_27  and  O_29
REMARK                            x       y       z     vdW  Elec       q    Type
REMARK                         _______ _______ _______ _____ _____    ______ ____
ROOT
ATOM      1  C   UNL     1       2.982   7.802  17.276  0.00  0.00    +0.000 C 
ENDROOT
BRANCH   1  12
ATOM      2  C   UNL     1       3.143   5.279  17.767  0.00  0.00    +0.000 C 
ATOM      3  N   UNL     1       3.980   4.294  17.851  0.00  0.00    +0.000 NA
ATOM      4  C   UNL     1       5.295   4.833  17.452  0.00  0.00    +0.000 C 
ATOM      5  C   UNL     1       5.690   4.060  16.182  0.00  0.00    +0.000 C 
ATOM      6  C   UNL     1       7.122   4.344  15.761  0.00  0.00    +0.000 C 
ATOM      7  N   UNL     1       8.059   4.123  16.860  0.00  0.00    +0.000 NA
ATOM      8  C   UNL     1       7.722   4.917  18.042  0.00  0.00    +0.000 C 
ATOM      9  C   UNL     1       6.313   4.610  18.553  0.00  0.00    +0.000 C 
ATOM     10  C   UNL     1       4.971   6.319  17.246  0.00  0.00    +0.000 C 
ATOM     11  O   UNL     1       5.734   7.162  16.795  0.00  0.00    +0.000 OA
ATOM     12  N   UNL     1       3.649   6.509  17.576  0.00  0.00    +0.000 N 
ATOM     13  H   UNL     1       8.998   4.374  16.547  0.00  0.00    +0.000 HD
BRANCH   2  14
ATOM     14  C   UNL     1       1.679   4.882  17.861  0.00  0.00    +0.000 C 
BRANCH  14  15
ATOM     15  C   UNL     1       1.339   3.560  18.571  0.00  0.00    +0.000 C 
BRANCH  15  17
ATOM     16  C   UNL     1       1.866   4.202  21.046  0.00  0.00    +0.000 C 
ATOM     17  C   UNL     1       0.902   3.567  20.047  0.00  0.00    +0.000 C 
ENDBRANCH  15  17
ENDBRANCH  14  15
ENDBRANCH   2  14
ENDBRANCH   1  12
BRANCH   1  18
ATOM     18  C   UNL     1       1.942   8.451  18.228  0.00  0.00    +0.000 A 
ATOM     19  C   UNL     1       1.846   8.173  19.604  0.00  0.00    +0.000 A 
ATOM     20  C   UNL     1       1.076   8.988  20.506  0.00  0.00    +0.000 A 
ATOM     21  C   UNL     1       0.331  10.109  20.088  0.00  0.00    +0.000 A 
ATOM     22  C   UNL     1       0.438  10.375  18.705  0.00  0.00    +0.000 A 
ATOM     23  C   UNL     1       1.217   9.583  17.809  0.00  0.00    +0.000 A 
BRANCH  21  24
ATOM     24  C   UNL     1      -0.482  11.008  21.016  0.00  0.00    +0.000 A 
ATOM     25  C   UNL     1      -1.009  12.223  20.494  0.00  0.00    +0.000 A 
ATOM     26  C   UNL     1      -1.788  13.130  21.241  0.00  0.00    +0.000 A 
ATOM     27  C   UNL     1      -2.067  12.873  22.570  0.00  0.00    +0.000 A 
ATOM     28  C   UNL     1      -1.560  11.714  23.139  0.00  0.00    +0.000 A 
ATOM     29  C   UNL     1      -0.782  10.784  22.391  0.00  0.00    +0.000 A 
BRANCH  29  30
ATOM     30  C   UNL     1      -0.345   9.627  23.214  0.00  0.00    +0.000 C 
ATOM     31  O   UNL     1       0.562   9.715  24.026  0.00  0.00    +0.000 OA
BRANCH  30  32
ATOM     32  O   UNL     1      -1.102   8.521  23.091  0.00  0.00    +0.000 OA
ATOM     33  H   UNL     1      -1.124   7.949  23.882  0.00  0.00    +0.000 HD
ENDBRANCH  30  32
ENDBRANCH  29  30
ENDBRANCH  21  24
ENDBRANCH   1  18
TORSDOF 8
ENDMDL
MODEL 2
REMARK VINA RESULT:      -9.0      1.623      1.965
REMARK  Name = 
REMARK  9 active torsions:
REMARK  status: ('A' for Active; 'I' for Inactive)
REMARK    1  A    between atoms: C_1  and  C_2
REMARK    2  A    between atoms: C_2  and  C_3
REMARK    3  A    between atoms: C_3  and  C_4
REMARK    4  A    between atoms: C_4  and  C_5
REMARK    5  A    between atoms: N_15  and  C_16
REMARK    6  A    between atoms: C_16  and  C_17
REMARK    7  A    between atoms: C_20  and  C_21
REMARK    8  A    between atoms: C_26  and  C_27
REMARK    9  A    between atoms: C_27  and  O_29
REMARK                            x       y       z     vdW  Elec       q    Type
REMARK                         _______ _______ _______ _____ _____    ______ ____
ROOT
ATOM      1  C   UNL     1       2.677   7.597  17.374  0.00  0.00    +0.000 C 
ENDROOT
BRANCH   1  12
ATOM      2  C   UNL     1       2.983   5.103  17.935  0.00  0.00    +0.000 C 
ATOM      3  N   UNL     1       3.877   4.175  18.064  0.00  0.00    +0.000 NA
ATOM      4  C   UNL     1       5.165   4.784  17.680  0.00  0.00    +0.000 C 
ATOM      5  C   UNL     1       5.637   4.007  16.439  0.00  0.00    +0.000 C 
ATOM      6  C   UNL     1       7.058   4.369  16.042  0.00  0.00    +0.000 C 
ATOM      7  N   UNL     1       7.981   4.234  17.167  0.00  0.00    +0.000 NA
ATOM      8  C   UNL     1       7.567   5.035  18.320  0.00  0.00    +0.000 C 
ATOM      9  C   UNL     1       6.169   4.653  18.808  0.00  0.00    +0.000 C 
ATOM     10  C   UNL     1       4.755   6.241  17.427  0.00  0.00    +0.000 C 
ATOM     11  O   UNL     1       5.474   7.119  16.971  0.00  0.00    +0.000 OA
ATOM     12  N   UNL     1       3.415   6.357  17.723  0.00  0.00    +0.000 N 
ATOM     13  H   UNL     1       8.910   4.536  16.869  0.00  0.00    +0.000 HD
BRANCH   2  14
ATOM     14  C   UNL     1       1.544   4.617  18.007  0.00  0.00    +0.000 C 
BRANCH  14  15
ATOM     15  C   UNL     1       1.204   3.535  19.046  0.00  0.00    +0.000 C 
BRANCH  15  17
ATOM     16  C   UNL     1       1.559   2.796  21.525  0.00  0.00    +0.000 C 
ATOM     17  C   UNL     1       1.149   3.891  20.542  0.00  0.00    +0.000 C 
ENDBRANCH  15  17
ENDBRANCH  14  15
ENDBRANCH   2  14
ENDBRANCH   1  12
BRANCH   1  18
ATOM     18  C   UNL     1       1.806   8.372  18.399  0.00  0.00    +0.000 A 
ATOM     19  C   UNL     1       1.841   8.159  19.790  0.00  0.00    +0.000 A 
ATOM     20  C   UNL     1       1.246   9.073  20.727  0.00  0.00    +0.000 A 
ATOM     21  C   UNL     1       0.554  10.237  20.337  0.00  0.00    +0.000 A 
ATOM     22  C   UNL     1       0.527  10.437  18.939  0.00  0.00    +0.000 A 
ATOM     23  C   UNL     1       1.134   9.545  18.005  0.00  0.00    +0.000 A 
BRANCH  21  24
ATOM     24  C   UNL     1      -0.075  11.240  21.301  0.00  0.00    +0.000 A 
ATOM     25  C   UNL     1      -1.154  10.807  22.122  0.00  0.00    +0.000 A 
ATOM     26  C   UNL     1      -1.809  11.629  23.062  0.00  0.00    +0.000 A 
ATOM     27  C   UNL     1      -1.424  12.947  23.217  0.00  0.00    +0.000 A 
ATOM     28  C   UNL     1      -0.392  13.431  22.426  0.00  0.00    +0.000 A 
ATOM     29  C   UNL     1       0.285  12.607  21.482  0.00  0.00    +0.000 A 
BRANCH  29  30
ATOM     30  C   UNL     1       1.345  13.346  20.749  0.00  0.00    +0.000 C 
ATOM     31  O   UNL     1       2.508  13.351  21.120  0.00  0.00    +0.000 OA
BRANCH  30  32
ATOM     32  O   UNL     1       0.956  13.896  19.584  0.00  0.00    +0.000 OA
ATOM     33  H   UNL     1       0.611  13.264  18.926  0.00  0.00    +0.000 HD
ENDBRANCH  30  32
ENDBRANCH  29  30
ENDBRANCH  21  24
ENDBRANCH   1  18
TORSDOF 8
ENDMDL
MODEL 3
REMARK VINA RESULT:      -8.8      2.448      4.340
REMARK  Name = 
REMARK  9 active torsions:
REMARK  status: ('A' for Active; 'I' for Inactive)
REMARK    1  A    between atoms: C_1  and  C_2
REMARK    2  A    between atoms: C_2  and  C_3
REMARK    3  A    between atoms: C_3  and  C_4
REMARK    4  A    between atoms: C_4  and  C_5
REMARK    5  A    between atoms: N_15  and  C_16
REMARK    6  A    between atoms: C_16  and  C_17
REMARK    7  A    between atoms: C_20  and  C_21
REMARK    8  A    between atoms: C_26  and  C_27
REMARK    9  A    between atoms: C_27  and  O_29
REMARK                            x       y       z     vdW  Elec       q    Type
REMARK                         _______ _______ _______ _____ _____    ______ ____
ROOT
ATOM      1  C   UNL     1       3.856   7.119  17.811  0.00  0.00    +0.000 C 
ENDROOT
BRANCH   1  12
ATOM      2  C   UNL     1       5.188   5.149  18.798  0.00  0.00    +0.000 C 
ATOM      3  N   UNL     1       5.105   3.890  19.094  0.00  0.00    +0.000 NA
ATOM      4  C   UNL     1       3.713   3.489  18.810  0.00  0.00    +0.000 C 
ATOM      5  C   UNL     1       3.121   3.064  20.164  0.00  0.00    +0.000 C 
ATOM      6  C   UNL     1       1.755   2.416  20.015  0.00  0.00    +0.000 C 
ATOM      7  N   UNL     1       1.784   1.318  19.051  0.00  0.00    +0.000 NA
ATOM      8  C   UNL     1       2.278   1.745  17.741  0.00  0.00    +0.000 C 
ATOM      9  C   UNL     1       3.686   2.335  17.827  0.00  0.00    +0.000 C 
ATOM     10  C   UNL     1       3.134   4.779  18.214  0.00  0.00    +0.000 C 
ATOM     11  O   UNL     1       1.961   4.972  17.926  0.00  0.00    +0.000 OA
ATOM     12  N   UNL     1       4.153   5.703  18.145  0.00  0.00    +0.000 N 
ATOM     13  H   UNL     1       0.837   0.949  18.945  0.00  0.00    +0.000 HD
BRANCH   2  14
ATOM     14  C   UNL     1       6.456   5.836  19.280  0.00  0.00    +0.000 C 
BRANCH  14  15
ATOM     15  C   UNL     1       7.548   6.133  18.238  0.00  0.00    +0.000 C 
BRANCH  15  17
ATOM     16  C   UNL     1       8.202   8.651  18.007  0.00  0.00    +0.000 C 
ATOM     17  C   UNL     1       7.496   7.432  17.414  0.00  0.00    +0.000 C 
ENDBRANCH  15  17
ENDBRANCH  14  15
ENDBRANCH   2  14
ENDBRANCH   1  12
BRANCH   1  18
ATOM     18  C   UNL     1       2.642   7.884  18.401  0.00  0.00    +0.000 A 
ATOM     19  C   UNL     1       2.174   7.733  19.719  0.00  0.00    +0.000 A 
ATOM     20  C   UNL     1       1.242   8.650  20.320  0.00  0.00    +0.000 A 
ATOM     21  C   UNL     1       0.696   9.754  19.636  0.00  0.00    +0.000 A 
ATOM     22  C   UNL     1       1.175   9.892  18.314  0.00  0.00    +0.000 A 
ATOM     23  C   UNL     1       2.115   8.998  17.719  0.00  0.00    +0.000 A 
BRANCH  21  24
ATOM     24  C   UNL     1      -0.280  10.758  20.243  0.00  0.00    +0.000 A 
ATOM     25  C   UNL     1      -0.163  11.067  21.627  0.00  0.00    +0.000 A 
ATOM     26  C   UNL     1      -0.990  11.987  22.303  0.00  0.00    +0.000 A 
ATOM     27  C   UNL     1      -2.001  12.639  21.623  0.00  0.00    +0.000 A 
ATOM     28  C   UNL     1      -2.178  12.360  20.275  0.00  0.00    +0.000 A 
ATOM     29  C   UNL     1      -1.340  11.442  19.579  0.00  0.00    +0.000 A 
BRANCH  29  30
ATOM     30  C   UNL     1      -1.725  11.302  18.152  0.00  0.00    +0.000 C 
ATOM     31  O   UNL     1      -2.320  10.322  17.734  0.00  0.00    +0.000 OA
BRANCH  30  32
ATOM     32  O   UNL     1      -1.486  12.383  17.387  0.00  0.00    +0.000 OA
ATOM     33  H   UNL     1      -2.279  12.785  16.984  0.00  0.00    +0.000 HD
ENDBRANCH  30  32
ENDBRANCH  29  30
ENDBRANCH  21  24
ENDBRANCH   1  18
TORSDOF 8
ENDMDL
MODEL 4
REMARK VINA RESULT:      -8.8      1.716      2.312
REMARK  Name = 
REMARK  9 active torsions:
REMARK  status: ('A' for Active; 'I' for Inactive)
REMARK    1  A    between atoms: C_1  and  C_2
REMARK    2  A    between atoms: C_2  and  C_3
REMARK    3  A    between atoms: C_3  and  C_4
REMARK    4  A    between atoms: C_4  and  C_5
REMARK    5  A    between atoms: N_15  and  C_16
REMARK    6  A    between atoms: C_16  and  C_17
REMARK    7  A    between atoms: C_20  and  C_21
REMARK    8  A    between atoms: C_26  and  C_27
REMARK    9  A    between atoms: C_27  and  O_29
REMARK                            x       y       z     vdW  Elec       q    Type
REMARK                         _______ _______ _______ _____ _____    ______ ____
ROOT
ATOM      1  C   UNL     1       2.272   7.176  17.533  0.00  0.00    +0.000 C 
ENDROOT
BRANCH   1  12
ATOM      2  C   UNL     1       2.938   4.820  18.330  0.00  0.00    +0.000 C 
ATOM      3  N   UNL     1       3.946   4.016  18.450  0.00  0.00    +0.000 NA
ATOM      4  C   UNL     1       5.100   4.707  17.843  0.00  0.00    +0.000 C 
ATOM      5  C   UNL     1       5.523   3.833  16.649  0.00  0.00    +0.000 C 
ATOM      6  C   UNL     1       6.837   4.292  16.039  0.00  0.00    +0.000 C 
ATOM      7  N   UNL     1       7.888   4.400  17.049  0.00  0.00    +0.000 NA
ATOM      8  C   UNL     1       7.511   5.292  18.146  0.00  0.00    +0.000 C 
ATOM      9  C   UNL     1       6.232   4.828  18.844  0.00  0.00    +0.000 C 
ATOM     10  C   UNL     1       4.491   6.068  17.480  0.00  0.00    +0.000 C 
ATOM     11  O   UNL     1       5.044   6.953  16.841  0.00  0.00    +0.000 OA
ATOM     12  N   UNL     1       3.189   6.076  17.925  0.00  0.00    +0.000 N 
ATOM     13  H   UNL     1       8.735   4.760  16.605  0.00  0.00    +0.000 HD
BRANCH   2  14
ATOM     14  C   UNL     1       1.585   4.196  18.635  0.00  0.00    +0.000 C 
BRANCH  14  15
ATOM     15  C   UNL     1       1.048   4.317  20.072  0.00  0.00    +0.000 C 
BRANCH  15  17
ATOM     16  C   UNL     1       2.167   2.656  21.747  0.00  0.00    +0.000 C 
ATOM     17  C   UNL     1       1.990   4.096  21.269  0.00  0.00    +0.000 C 
ENDBRANCH  15  17
ENDBRANCH  14  15
ENDBRANCH   2  14
ENDBRANCH   1  12
BRANCH   1  18
ATOM     18  C   UNL     1       1.917   8.351  18.483  0.00  0.00    +0.000 A 
ATOM     19  C   UNL     1       1.551   9.638  18.049  0.00  0.00    +0.000 A 
ATOM     20  C   UNL     1       0.958  10.612  18.926  0.00  0.00    +0.000 A 
ATOM     21  C   UNL     1       0.721  10.374  20.295  0.00  0.00    +0.000 A 
ATOM     22  C   UNL     1       1.093   9.078  20.715  0.00  0.00    +0.000 A 
ATOM     23  C   UNL     1       1.663   8.101  19.845  0.00  0.00    +0.000 A 
BRANCH  21  24
ATOM     24  C   UNL     1       0.078  11.373  21.253  0.00  0.00    +0.000 A 
ATOM     25  C   UNL     1      -0.997  10.931  22.074  0.00  0.00    +0.000 A 
ATOM     26  C   UNL     1      -1.663  11.749  23.009  0.00  0.00    +0.000 A 
ATOM     27  C   UNL     1      -1.295  13.073  23.158  0.00  0.00    +0.000 A 
ATOM     28  C   UNL     1      -0.267  13.566  22.367  0.00  0.00    +0.000 A 
ATOM     29  C   UNL     1       0.422  12.746  21.428  0.00  0.00    +0.000 A 
BRANCH  29  30
ATOM     30  C   UNL     1       1.473  13.494  20.694  0.00  0.00    +0.000 C 
ATOM     31  O   UNL     1       1.220  14.177  19.715  0.00  0.00    +0.000 OA
BRANCH  30  32
ATOM     32  O   UNL     1       2.694  13.467  21.260  0.00  0.00    +0.000 OA
ATOM     33  H   UNL     1       2.819  12.772  21.933  0.00  0.00    +0.000 HD
ENDBRANCH  30  32
ENDBRANCH  29  30
ENDBRANCH  21  24
ENDBRANCH   1  18
TORSDOF 8
ENDMDL
MODEL 5
REMARK VINA RESULT:      -8.8      1.702      2.111
REMARK  Name = 
REMARK  9 active torsions:
REMARK  status: ('A' for Active; 'I' for Inactive)
REMARK    1  A    between atoms: C_1  and  C_2
REMARK    2  A    between atoms: C_2  and  C_3
REMARK    3  A    between atoms: C_3  and  C_4
REMARK    4  A    between atoms: C_4  and  C_5
REMARK    5  A    between atoms: N_15  and  C_16
REMARK    6  A    between atoms: C_16  and  C_17
REMARK    7  A    between atoms: C_20  and  C_21
REMARK    8  A    between atoms: C_26  and  C_27
REMARK    9  A    between atoms: C_27  and  O_29
REMARK                            x       y       z     vdW  Elec       q    Type
REMARK                         _______ _______ _______ _____ _____    ______ ____
ROOT
ATOM      1  C   UNL     1       2.872   7.800  17.523  0.00  0.00    +0.000 C 
ENDROOT
BRANCH   1  12
ATOM      2  C   UNL     1       3.118   5.320  18.169  0.00  0.00    +0.000 C 
ATOM      3  N   UNL     1       3.981   4.360  18.273  0.00  0.00    +0.000 NA
ATOM      4  C   UNL     1       5.261   4.897  17.770  0.00  0.00    +0.000 C 
ATOM      5  C   UNL     1       5.608   4.050  16.534  0.00  0.00    +0.000 C 
ATOM      6  C   UNL     1       7.009   4.334  16.019  0.00  0.00    +0.000 C 
ATOM      7  N   UNL     1       8.006   4.206  17.080  0.00  0.00    +0.000 NA
ATOM      8  C   UNL     1       7.712   5.070  18.223  0.00  0.00    +0.000 C 
ATOM      9  C   UNL     1       6.340   4.769  18.827  0.00  0.00    +0.000 C 
ATOM     10  C   UNL     1       4.892   6.359  17.484  0.00  0.00    +0.000 C 
ATOM     11  O   UNL     1       5.610   7.186  16.940  0.00  0.00    +0.000 OA
ATOM     12  N   UNL     1       3.584   6.544  17.871  0.00  0.00    +0.000 N 
ATOM     13  H   UNL     1       8.922   4.455  16.701  0.00  0.00    +0.000 HD
BRANCH   2  14
ATOM     14  C   UNL     1       1.670   4.900  18.366  0.00  0.00    +0.000 C 
BRANCH  14  15
ATOM     15  C   UNL     1       1.224   4.512  19.787  0.00  0.00    +0.000 C 
BRANCH  15  17
ATOM     16  C   UNL     1       1.531   2.657  21.598  0.00  0.00    +0.000 C 
ATOM     17  C   UNL     1       1.103   3.029  20.180  0.00  0.00    +0.000 C 
ENDBRANCH  15  17
ENDBRANCH  14  15
ENDBRANCH   2  14
ENDBRANCH   1  12
BRANCH   1  18
ATOM     18  C   UNL     1       1.806   8.445  18.449  0.00  0.00    +0.000 A 
ATOM     19  C   UNL     1       1.792   8.317  19.850  0.00  0.00    +0.000 A 
ATOM     20  C   UNL     1       0.976   9.147  20.695  0.00  0.00    +0.000 A 
ATOM     21  C   UNL     1       0.102  10.134  20.196  0.00  0.00    +0.000 A 
ATOM     22  C   UNL     1       0.127  10.250  18.788  0.00  0.00    +0.000 A 
ATOM     23  C   UNL     1       0.951   9.444  17.946  0.00  0.00    +0.000 A 
BRANCH  21  24
ATOM     24  C   UNL     1      -0.766  11.046  21.059  0.00  0.00    +0.000 A 
ATOM     25  C   UNL     1      -0.940  10.716  22.432  0.00  0.00    +0.000 A 
ATOM     26  C   UNL     1      -1.702  11.483  23.337  0.00  0.00    +0.000 A 
ATOM     27  C   UNL     1      -2.351  12.623  22.903  0.00  0.00    +0.000 A 
ATOM     28  C   UNL     1      -2.236  12.982  21.568  0.00  0.00    +0.000 A 
ATOM     29  C   UNL     1      -1.459  12.222  20.647  0.00  0.00    +0.000 A 
BRANCH  29  30
ATOM     30  C   UNL     1      -1.492  12.794  19.277  0.00  0.00    +0.000 C 
ATOM     31  O   UNL     1      -0.604  13.516  18.854  0.00  0.00    +0.000 OA
BRANCH  30  32
ATOM     32  O   UNL     1      -2.499  12.355  18.499  0.00  0.00    +0.000 OA
ATOM     33  H   UNL     1      -3.367  12.758  18.685  0.00  0.00    +0.000 HD
ENDBRANCH  30  32
ENDBRANCH  29  30
ENDBRANCH  21  24
ENDBRANCH   1  18
TORSDOF 8
ENDMDL
MODEL 6
REMARK VINA RESULT:      -8.6      1.864      2.496
REMARK  Name = 
REMARK  9 active torsions:
REMARK  status: ('A' for Active; 'I' for Inactive)
REMARK    1  A    between atoms: C_1  and  C_2
REMARK    2  A    between atoms: C_2  and  C_3
REMARK    3  A    between atoms: C_3  and  C_4
REMARK    4  A    between atoms: C_4  and  C_5
REMARK    5  A    between atoms: N_15  and  C_16
REMARK    6  A    between atoms: C_16  and  C_17
REMARK    7  A    between atoms: C_20  and  C_21
REMARK    8  A    between atoms: C_26  and  C_27
REMARK    9  A    between atoms: C_27  and  O_29
REMARK                            x       y       z     vdW  Elec       q    Type
REMARK                         _______ _______ _______ _____ _____    ______ ____
ROOT
ATOM      1  C   UNL     1       2.109   7.318  18.303  0.00  0.00    +0.000 C 
ENDROOT
BRANCH   1  12
ATOM      2  C   UNL     1       3.343   5.397  19.493  0.00  0.00    +0.000 C 
ATOM      3  N   UNL     1       4.442   4.712  19.483  0.00  0.00    +0.000 NA
ATOM      4  C   UNL     1       5.213   5.184  18.317  0.00  0.00    +0.000 C 
ATOM      5  C   UNL     1       5.342   3.966  17.386  0.00  0.00    +0.000 C 
ATOM      6  C   UNL     1       6.296   4.225  16.232  0.00  0.00    +0.000 C 
ATOM      7  N   UNL     1       7.594   4.702  16.706  0.00  0.00    +0.000 NA
ATOM      8  C   UNL     1       7.473   5.905  17.531  0.00  0.00    +0.000 C 
ATOM      9  C   UNL     1       6.582   5.672  18.751  0.00  0.00    +0.000 C 
ATOM     10  C   UNL     1       4.324   6.321  17.796  0.00  0.00    +0.000 C 
ATOM     11  O   UNL     1       4.497   6.948  16.761  0.00  0.00    +0.000 OA
ATOM     12  N   UNL     1       3.257   6.445  18.657  0.00  0.00    +0.000 N 
ATOM     13  H   UNL     1       8.183   4.911  15.898  0.00  0.00    +0.000 HD
BRANCH   2  14
ATOM     14  C   UNL     1       2.276   4.879  20.444  0.00  0.00    +0.000 C 
BRANCH  14  15
ATOM     15  C   UNL     1       1.153   4.007  19.854  0.00  0.00    +0.000 C 
BRANCH  15  17
ATOM     16  C   UNL     1       2.082   2.207  18.206  0.00  0.00    +0.000 C 
ATOM     17  C   UNL     1       1.262   3.480  18.412  0.00  0.00    +0.000 C 
ENDBRANCH  15  17
ENDBRANCH  14  15
ENDBRANCH   2  14
ENDBRANCH   1  12
BRANCH   1  18
ATOM     18  C   UNL     1       1.711   8.563  19.141  0.00  0.00    +0.000 A 
ATOM     19  C   UNL     1       1.299   9.790  18.590  0.00  0.00    +0.000 A 
ATOM     20  C   UNL     1       0.671  10.818  19.376  0.00  0.00    +0.000 A 
ATOM     21  C   UNL     1       0.443  10.700  20.761  0.00  0.00    +0.000 A 
ATOM     22  C   UNL     1       0.862   9.463  21.299  0.00  0.00    +0.000 A 
ATOM     23  C   UNL     1       1.467   8.431  20.521  0.00  0.00    +0.000 A 
BRANCH  21  24
ATOM     24  C   UNL     1      -0.236  11.760  21.625  0.00  0.00    +0.000 A 
ATOM     25  C   UNL     1      -1.386  11.389  22.376  0.00  0.00    +0.000 A 
ATOM     26  C   UNL     1      -2.093  12.267  23.222  0.00  0.00    +0.000 A 
ATOM     27  C   UNL     1      -1.690  13.583  23.347  0.00  0.00    +0.000 A 
ATOM     28  C   UNL     1      -0.587  14.008  22.620  0.00  0.00    +0.000 A 
ATOM     29  C   UNL     1       0.142  13.127  21.771  0.00  0.00    +0.000 A 
BRANCH  29  30
ATOM     30  C   UNL     1       1.273  13.808  21.093  0.00  0.00    +0.000 C 
ATOM     31  O   UNL     1       2.422  13.713  21.493  0.00  0.00    +0.000 OA
BRANCH  30  32
ATOM     32  O   UNL     1       0.959  14.425  19.938  0.00  0.00    +0.000 OA
ATOM     33  H   UNL     1       1.152  15.381  19.918  0.00  0.00    +0.000 HD
ENDBRANCH  30  32
ENDBRANCH  29  30
ENDBRANCH  21  24
ENDBRANCH   1  18
TORSDOF 8
ENDMDL
MODEL 7
REMARK VINA RESULT:      -8.6      3.661      9.242
REMARK  Name = 
REMARK  9 active torsions:
REMARK  status: ('A' for Active; 'I' for Inactive)
REMARK    1  A    between atoms: C_1  and  C_2
REMARK    2  A    between atoms: C_2  and  C_3
REMARK    3  A    between atoms: C_3  and  C_4
REMARK    4  A    between atoms: C_4  and  C_5
REMARK    5  A    between atoms: N_15  and  C_16
REMARK    6  A    between atoms: C_16  and  C_17
REMARK    7  A    between atoms: C_20  and  C_21
REMARK    8  A    between atoms: C_26  and  C_27
REMARK    9  A    between atoms: C_27  and  O_29
REMARK                            x       y       z     vdW  Elec       q    Type
REMARK                         _______ _______ _______ _____ _____    ______ ____
ROOT
ATOM      1  C   UNL     1       0.651  10.080  20.491  0.00  0.00    +0.000 C 
ENDROOT
BRANCH   1  12
ATOM      2  C   UNL     1      -1.043  11.488  19.158  0.00  0.00    +0.000 C 
ATOM      3  N   UNL     1      -1.416  12.706  18.923  0.00  0.00    +0.000 NA
ATOM      4  C   UNL     1      -0.599  13.566  19.800  0.00  0.00    +0.000 C 
ATOM      5  C   UNL     1      -1.594  14.253  20.751  0.00  0.00    +0.000 C 
ATOM      6  C   UNL     1      -0.936  15.341  21.582  0.00  0.00    +0.000 C 
ATOM      7  N   UNL     1      -0.218  16.298  20.743  0.00  0.00    +0.000 NA
ATOM      8  C   UNL     1       0.781  15.647  19.894  0.00  0.00    +0.000 C 
ATOM      9  C   UNL     1       0.154  14.595  18.979  0.00  0.00    +0.000 C 
ATOM     10  C   UNL     1       0.337  12.541  20.455  0.00  0.00    +0.000 C 
ATOM     11  O   UNL     1       1.131  12.770  21.356  0.00  0.00    +0.000 OA
ATOM     12  N   UNL     1       0.058  11.309  19.907  0.00  0.00    +0.000 N 
ATOM     13  H   UNL     1       0.250  16.978  21.345  0.00  0.00    +0.000 HD
BRANCH   2  14
ATOM     14  C   UNL     1      -1.950  10.418  18.571  0.00  0.00    +0.000 C 
BRANCH  14  15
ATOM     15  C   UNL     1      -1.806  10.102  17.072  0.00  0.00    +0.000 C 
BRANCH  15  17
ATOM     16  C   UNL     1      -3.035  10.079  14.769  0.00  0.00    +0.000 C 
ATOM     17  C   UNL     1      -2.673  10.844  16.040  0.00  0.00    +0.000 C 
ENDBRANCH  15  17
ENDBRANCH  14  15
ENDBRANCH   2  14
ENDBRANCH   1  12
BRANCH   1  18
ATOM     18  C   UNL     1       1.293   8.964  19.623  0.00  0.00    +0.000 A 
ATOM     19  C   UNL     1       1.712   9.138  18.291  0.00  0.00    +0.000 A 
ATOM     20  C   UNL     1       2.552   8.187  17.614  0.00  0.00    +0.000 A 
ATOM     21  C   UNL     1       3.001   6.991  18.211  0.00  0.00    +0.000 A 
ATOM     22  C   UNL     1       2.572   6.831  19.547  0.00  0.00    +0.000 A 
ATOM     23  C   UNL     1       1.755   7.781  20.231  0.00  0.00    +0.000 A 
BRANCH  21  24
ATOM     24  C   UNL     1       3.907   5.967  17.532  0.00  0.00    +0.000 A 
ATOM     25  C   UNL     1       5.092   6.427  16.893  0.00  0.00    +0.000 A 
ATOM     26  C   UNL     1       6.018   5.584  16.246  0.00  0.00    +0.000 A 
ATOM     27  C   UNL     1       5.792   4.221  16.190  0.00  0.00    +0.000 A 
ATOM     28  C   UNL     1       4.641   3.717  16.778  0.00  0.00    +0.000 A 
ATOM     29  C   UNL     1       3.705   4.559  17.445  0.00  0.00    +0.000 A 
BRANCH  29  30
ATOM     30  C   UNL     1       2.550   3.797  17.986  0.00  0.00    +0.000 C 
ATOM     31  O   UNL     1       2.606   3.204  19.051  0.00  0.00    +0.000 OA
BRANCH  30  32
ATOM     32  O   UNL     1       1.408   3.916  17.284  0.00  0.00    +0.000 OA
ATOM     33  H   UNL     1       1.479   4.454  16.473  0.00  0.00    +0.000 HD
ENDBRANCH  30  32
ENDBRANCH  29  30
ENDBRANCH  21  24
ENDBRANCH   1  18
TORSDOF 8
ENDMDL
MODEL 8
REMARK VINA RESULT:      -8.5      1.541      3.637
REMARK  Name = 
REMARK  9 active torsions:
REMARK  status: ('A' for Active; 'I' for Inactive)
REMARK    1  A    between atoms: C_1  and  C_2
REMARK    2  A    between atoms: C_2  and  C_3
REMARK    3  A    between atoms: C_3  and  C_4
REMARK    4  A    between atoms: C_4  and  C_5
REMARK    5  A    between atoms: N_15  and  C_16
REMARK    6  A    between atoms: C_16  and  C_17
REMARK    7  A    between atoms: C_20  and  C_21
REMARK    8  A    between atoms: C_26  and  C_27
REMARK    9  A    between atoms: C_27  and  O_29
REMARK                            x       y       z     vdW  Elec       q    Type
REMARK                         _______ _______ _______ _____ _____    ______ ____
ROOT
ATOM      1  C   UNL     1       3.536   7.146  17.660  0.00  0.00    +0.000 C 
ENDROOT
BRANCH   1  12
ATOM      2  C   UNL     1       4.986   5.225  18.576  0.00  0.00    +0.000 C 
ATOM      3  N   UNL     1       4.957   3.969  18.893  0.00  0.00    +0.000 NA
ATOM      4  C   UNL     1       3.560   3.530  18.717  0.00  0.00    +0.000 C 
ATOM      5  C   UNL     1       3.078   3.111  20.117  0.00  0.00    +0.000 C 
ATOM      6  C   UNL     1       1.722   2.427  20.076  0.00  0.00    +0.000 C 
ATOM      7  N   UNL     1       1.709   1.315  19.127  0.00  0.00    +0.000 NA
ATOM      8  C   UNL     1       2.096   1.734  17.780  0.00  0.00    +0.000 C 
ATOM      9  C   UNL     1       3.491   2.360  17.755  0.00  0.00    +0.000 C 
ATOM     10  C   UNL     1       2.906   4.796  18.147  0.00  0.00    +0.000 C 
ATOM     11  O   UNL     1       1.710   4.954  17.943  0.00  0.00    +0.000 OA
ATOM     12  N   UNL     1       3.892   5.743  17.992  0.00  0.00    +0.000 N 
ATOM     13  H   UNL     1       0.767   0.921  19.096  0.00  0.00    +0.000 HD
BRANCH   2  14
ATOM     14  C   UNL     1       6.267   5.950  18.954  0.00  0.00    +0.000 C 
BRANCH  14  15
ATOM     15  C   UNL     1       7.469   5.826  18.001  0.00  0.00    +0.000 C 
BRANCH  15  17
ATOM     16  C   UNL     1       7.070   4.770  15.646  0.00  0.00    +0.000 C 
ATOM     17  C   UNL     1       7.594   4.606  17.072  0.00  0.00    +0.000 C 
ENDBRANCH  15  17
ENDBRANCH  14  15
ENDBRANCH   2  14
ENDBRANCH   1  12
BRANCH   1  18
ATOM     18  C   UNL     1       2.443   7.938  18.427  0.00  0.00    +0.000 A 
ATOM     19  C   UNL     1       2.100   7.714  19.773  0.00  0.00    +0.000 A 
ATOM     20  C   UNL     1       1.300   8.638  20.531  0.00  0.00    +0.000 A 
ATOM     21  C   UNL     1       0.767   9.825  19.988  0.00  0.00    +0.000 A 
ATOM     22  C   UNL     1       1.120  10.035  18.636  0.00  0.00    +0.000 A 
ATOM     23  C   UNL     1       1.931   9.132  17.885  0.00  0.00    +0.000 A 
BRANCH  21  24
ATOM     24  C   UNL     1      -0.071  10.838  20.763  0.00  0.00    +0.000 A 
ATOM     25  C   UNL     1      -0.462  12.039  20.107  0.00  0.00    +0.000 A 
ATOM     26  C   UNL     1      -1.247  13.045  20.707  0.00  0.00    +0.000 A 
ATOM     27  C   UNL     1      -1.671  12.906  22.015  0.00  0.00    +0.000 A 
ATOM     28  C   UNL     1      -1.300  11.765  22.712  0.00  0.00    +0.000 A 
ATOM     29  C   UNL     1      -0.517  10.736  22.113  0.00  0.00    +0.000 A 
BRANCH  29  30
ATOM     30  C   UNL     1      -0.240   9.621  23.054  0.00  0.00    +0.000 C 
ATOM     31  O   UNL     1       0.590   9.714  23.943  0.00  0.00    +0.000 OA
BRANCH  30  32
ATOM     32  O   UNL     1      -1.058   8.558  22.936  0.00  0.00    +0.000 OA
ATOM     33  H   UNL     1      -0.735   7.743  23.362  0.00  0.00    +0.000 HD
ENDBRANCH  30  32
ENDBRANCH  29  30
ENDBRANCH  21  24
ENDBRANCH   1  18
TORSDOF 8
ENDMDL
MODEL 9
REMARK VINA RESULT:      -8.5      3.741      9.079
REMARK  Name = 
REMARK  9 active torsions:
REMARK  status: ('A' for Active; 'I' for Inactive)
REMARK    1  A    between atoms: C_1  and  C_2
REMARK    2  A    between atoms: C_2  and  C_3
REMARK    3  A    between atoms: C_3  and  C_4
REMARK    4  A    between atoms: C_4  and  C_5
REMARK    5  A    between atoms: N_15  and  C_16
REMARK    6  A    between atoms: C_16  and  C_17
REMARK    7  A    between atoms: C_20  and  C_21
REMARK    8  A    between atoms: C_26  and  C_27
REMARK    9  A    between atoms: C_27  and  O_29
REMARK                            x       y       z     vdW  Elec       q    Type
REMARK                         _______ _______ _______ _____ _____    ______ ____
ROOT
ATOM      1  C   UNL     1       0.004  10.109  20.266  0.00  0.00    +0.000 C 
ENDROOT
BRANCH   1  12
ATOM      2  C   UNL     1      -1.155  12.145  19.198  0.00  0.00    +0.000 C 
ATOM      3  N   UNL     1      -1.102  13.436  19.110  0.00  0.00    +0.000 NA
ATOM      4  C   UNL     1      -0.015  13.868  20.010  0.00  0.00    +0.000 C 
ATOM      5  C   UNL     1      -0.691  14.731  21.089  0.00  0.00    +0.000 C 
ATOM      6  C   UNL     1       0.322  15.435  21.977  0.00  0.00    +0.000 C 
ATOM      7  N   UNL     1       1.295  16.189  21.189  0.00  0.00    +0.000 NA
ATOM      8  C   UNL     1       1.988  15.347  20.214  0.00  0.00    +0.000 C 
ATOM      9  C   UNL     1       1.015  14.676  19.245  0.00  0.00    +0.000 C 
ATOM     10  C   UNL     1       0.539  12.521  20.495  0.00  0.00    +0.000 C 
ATOM     11  O   UNL     1       1.391  12.367  21.358  0.00  0.00    +0.000 OA
ATOM     12  N   UNL     1      -0.157  11.525  19.848  0.00  0.00    +0.000 N 
ATOM     13  H   UNL     1       1.983  16.600  21.822  0.00  0.00    +0.000 HD
BRANCH   2  14
ATOM     14  C   UNL     1      -2.387  11.512  18.571  0.00  0.00    +0.000 C 
BRANCH  14  15
ATOM     15  C   UNL     1      -2.195  10.691  17.283  0.00  0.00    +0.000 C 
BRANCH  15  17
ATOM     16  C   UNL     1      -2.889  10.103  14.837  0.00  0.00    +0.000 C 
ATOM     17  C   UNL     1      -3.268  10.721  16.181  0.00  0.00    +0.000 C 
ENDBRANCH  15  17
ENDBRANCH  14  15
ENDBRANCH   2  14
ENDBRANCH   1  12
BRANCH   1  18
ATOM     18  C   UNL     1       1.112   9.186  19.693  0.00  0.00    +0.000 A 
ATOM     19  C   UNL     1       1.611   8.045  20.348  0.00  0.00    +0.000 A 
ATOM     20  C   UNL     1       2.418   7.060  19.680  0.00  0.00    +0.000 A 
ATOM     21  C   UNL     1       2.805   7.166  18.329  0.00  0.00    +0.000 A 
ATOM     22  C   UNL     1       2.298   8.316  17.685  0.00  0.00    +0.000 A 
ATOM     23  C   UNL     1       1.478   9.286  18.337  0.00  0.00    +0.000 A 
BRANCH  21  24
ATOM     24  C   UNL     1       3.646   6.135  17.581  0.00  0.00    +0.000 A 
ATOM     25  C   UNL     1       4.812   6.577  16.896  0.00  0.00    +0.000 A 
ATOM     26  C   UNL     1       5.679   5.725  16.183  0.00  0.00    +0.000 A 
ATOM     27  C   UNL     1       5.410   4.372  16.103  0.00  0.00    +0.000 A 
ATOM     28  C   UNL     1       4.273   3.886  16.733  0.00  0.00    +0.000 A 
ATOM     29  C   UNL     1       3.396   4.736  17.467  0.00  0.00    +0.000 A 
BRANCH  29  30
ATOM     30  C   UNL     1       2.246   3.993  18.043  0.00  0.00    +0.000 C 
ATOM     31  O   UNL     1       2.310   3.441  19.129  0.00  0.00    +0.000 OA
BRANCH  30  32
ATOM     32  O   UNL     1       1.099   4.086  17.345  0.00  0.00    +0.000 OA
ATOM     33  H   UNL     1       0.299   4.218  17.887  0.00  0.00    +0.000 HD
ENDBRANCH  30  32
ENDBRANCH  29  30
ENDBRANCH  21  24
ENDBRANCH   1  18
TORSDOF 8
ENDMDL
