MODEL 1
REMARK VINA RESULT:      -8.6      0.000      0.000
REMARK  Name = 
REMARK  10 active torsions:
REMARK  status: ('A' for Active; 'I' for Inactive)
REMARK    1  A    between atoms: C_2  and  C_3
REMARK    2  A    between atoms: C_3  and  N_4
REMARK    3  A    between atoms: C_6  and  C_7
REMARK    4  A    between atoms: N_8  and  C_9
REMARK    5  A    between atoms: C_9  and  C_10
REMARK    6  A    between atoms: C_9  and  C_24
REMARK    7  A    between atoms: C_13  and  C_14
REMARK    8  A    between atoms: C_28  and  O_29
REMARK    9  A    between atoms: O_29  and  C_30
REMARK   10  A    between atoms: C_33  and  C_34
REMARK                            x       y       z     vdW  Elec       q    Type
REMARK                         _______ _______ _______ _____ _____    ______ ____
ROOT
ATOM      1  C   UNL     1       0.133  10.998  19.420  0.00  0.00    +0.000 C 
ENDROOT
BRANCH   1   6
ATOM      2  N   UNL     1      -1.606  12.454  23.173  0.00  0.00    +0.000 NA
ATOM      3  C   UNL     1      -1.325  11.005  23.070  0.00  0.00    +0.000 C 
ATOM      4  C   UNL     1      -0.988  10.483  21.631  0.00  0.00    +0.000 C 
ATOM      5  C   UNL     1      -0.595   9.007  21.794  0.00  0.00    +0.000 C 
ATOM      6  N   UNL     1       0.046  11.286  20.905  0.00  0.00    +0.000 NA
ATOM      7  C   UNL     1      -0.110  12.737  21.167  0.00  0.00    +0.000 C 
ATOM      8  C   UNL     1      -0.403  13.132  22.633  0.00  0.00    +0.000 C 
ATOM      9  C   UNL     1      -0.440  14.657  22.757  0.00  0.00    +0.000 C 
BRANCH   2  10
ATOM     10  C   UNL     1      -2.855  12.815  22.481  0.00  0.00    +0.000 C 
BRANCH  10  12
ATOM     11  C   UNL     1      -4.269  12.531  24.550  0.00  0.00    +0.000 C 
ATOM     12  C   UNL     1      -3.938  13.223  23.449  0.00  0.00    +0.000 C 
ENDBRANCH  10  12
ENDBRANCH   2  10
ENDBRANCH   1   6
BRANCH   1  13
ATOM     13  C   UNL     1       1.075   9.811  19.109  0.00  0.00    +0.000 A 
ATOM     14  C   UNL     1       1.700   9.666  17.848  0.00  0.00    +0.000 A 
ATOM     15  C   UNL     1       2.487   8.558  17.552  0.00  0.00    +0.000 A 
ATOM     16  C   UNL     1       2.669   7.566  18.512  0.00  0.00    +0.000 A 
ATOM     17  C   UNL     1       2.132   7.735  19.794  0.00  0.00    +0.000 A 
ATOM     18  C   UNL     1       1.323   8.835  20.083  0.00  0.00    +0.000 A 
BRANCH  16  19
ATOM     19  C   UNL     1       3.495   6.386  18.154  0.00  0.00    +0.000 C 
ATOM     20  O   UNL     1       4.534   6.597  17.528  0.00  0.00    +0.000 OA
ATOM     21  N   UNL     1       3.083   5.108  18.529  0.00  0.00    +0.000 N 
ATOM     22  C   UNL     1       4.051   4.019  18.442  0.00  0.00    +0.000 C 
ATOM     23  C   UNL     1       3.489   2.836  17.662  0.00  0.00    +0.000 C 
ATOM     24  C   UNL     1       2.153   2.383  18.245  0.00  0.00    +0.000 C 
ATOM     25  C   UNL     1       1.172   3.548  18.293  0.00  0.00    +0.000 C 
ATOM     26  C   UNL     1       1.757   4.742  19.038  0.00  0.00    +0.000 C 
ENDBRANCH  16  19
ENDBRANCH   1  13
BRANCH   1  27
ATOM     27  C   UNL     1      -1.246  10.862  18.712  0.00  0.00    +0.000 A 
ATOM     28  C   UNL     1      -1.535   9.755  17.886  0.00  0.00    +0.000 A 
ATOM     29  C   UNL     1      -2.832   9.504  17.440  0.00  0.00    +0.000 A 
ATOM     30  C   UNL     1      -3.850  10.398  17.750  0.00  0.00    +0.000 A 
ATOM     31  C   UNL     1      -3.568  11.572  18.447  0.00  0.00    +0.000 A 
ATOM     32  C   UNL     1      -2.263  11.820  18.887  0.00  0.00    +0.000 A 
BRANCH  31  33
ATOM     33  O   UNL     1      -4.657  12.371  18.667  0.00  0.00    +0.000 OA
ATOM     34  C   UNL     1      -5.380  12.151  19.870  0.00  0.00    +0.000 C 
ENDBRANCH  31  33
ENDBRANCH   1  27
TORSDOF 7
ENDMDL
MODEL 2
REMARK VINA RESULT:      -8.5      1.035      1.612
REMARK  Name = 
REMARK  10 active torsions:
REMARK  status: ('A' for Active; 'I' for Inactive)
REMARK    1  A    between atoms: C_2  and  C_3
REMARK    2  A    between atoms: C_3  and  N_4
REMARK    3  A    between atoms: C_6  and  C_7
REMARK    4  A    between atoms: N_8  and  C_9
REMARK    5  A    between atoms: C_9  and  C_10
REMARK    6  A    between atoms: C_9  and  C_24
REMARK    7  A    between atoms: C_13  and  C_14
REMARK    8  A    between atoms: C_28  and  O_29
REMARK    9  A    between atoms: O_29  and  C_30
REMARK   10  A    between atoms: C_33  and  C_34
REMARK                            x       y       z     vdW  Elec       q    Type
REMARK                         _______ _______ _______ _____ _____    ______ ____
ROOT
ATOM      1  C   UNL     1       0.244  10.857  19.355  0.00  0.00    +0.000 C 
ENDROOT
BRANCH   1   6
ATOM      2  N   UNL     1      -1.472  12.470  23.054  0.00  0.00    +0.000 NA
ATOM      3  C   UNL     1      -1.241  11.010  22.991  0.00  0.00    +0.000 C 
ATOM      4  C   UNL     1      -0.911  10.439  21.569  0.00  0.00    +0.000 C 
ATOM      5  C   UNL     1      -0.572   8.954  21.773  0.00  0.00    +0.000 C 
ATOM      6  N   UNL     1       0.156  11.186  20.831  0.00  0.00    +0.000 NA
ATOM      7  C   UNL     1       0.049  12.648  21.055  0.00  0.00    +0.000 C 
ATOM      8  C   UNL     1      -0.241  13.091  22.507  0.00  0.00    +0.000 C 
ATOM      9  C   UNL     1      -0.226  14.619  22.592  0.00  0.00    +0.000 C 
BRANCH   2  10
ATOM     10  C   UNL     1      -2.701  12.856  22.342  0.00  0.00    +0.000 C 
BRANCH  10  12
ATOM     11  C   UNL     1      -4.318  14.322  23.605  0.00  0.00    +0.000 C 
ATOM     12  C   UNL     1      -3.848  13.106  23.291  0.00  0.00    +0.000 C 
ENDBRANCH  10  12
ENDBRANCH   2  10
ENDBRANCH   1   6
BRANCH   1  13
ATOM     13  C   UNL     1       1.159   9.639  19.081  0.00  0.00    +0.000 A 
ATOM     14  C   UNL     1       1.773   9.436  17.824  0.00  0.00    +0.000 A 
ATOM     15  C   UNL     1       2.533   8.301  17.563  0.00  0.00    +0.000 A 
ATOM     16  C   UNL     1       2.701   7.340  18.557  0.00  0.00    +0.000 A 
ATOM     17  C   UNL     1       2.176   7.567  19.836  0.00  0.00    +0.000 A 
ATOM     18  C   UNL     1       1.392   8.694  20.089  0.00  0.00    +0.000 A 
BRANCH  16  19
ATOM     19  C   UNL     1       3.499   6.131  18.238  0.00  0.00    +0.000 C 
ATOM     20  O   UNL     1       4.551   6.300  17.621  0.00  0.00    +0.000 OA
ATOM     21  N   UNL     1       3.048   4.873  18.636  0.00  0.00    +0.000 N 
ATOM     22  C   UNL     1       3.987   3.757  18.586  0.00  0.00    +0.000 C 
ATOM     23  C   UNL     1       3.404   2.572  17.826  0.00  0.00    +0.000 C 
ATOM     24  C   UNL     1       2.049   2.168  18.401  0.00  0.00    +0.000 C 
ATOM     25  C   UNL     1       1.099   3.360  18.410  0.00  0.00    +0.000 C 
ATOM     26  C   UNL     1       1.707   4.555  19.135  0.00  0.00    +0.000 C 
ENDBRANCH  16  19
ENDBRANCH   1  13
BRANCH   1  27
ATOM     27  C   UNL     1      -1.133  10.735  18.642  0.00  0.00    +0.000 A 
ATOM     28  C   UNL     1      -2.261  11.444  19.109  0.00  0.00    +0.000 A 
ATOM     29  C   UNL     1      -3.428  11.528  18.350  0.00  0.00    +0.000 A 
ATOM     30  C   UNL     1      -3.515  10.840  17.146  0.00  0.00    +0.000 A 
ATOM     31  C   UNL     1      -2.469  10.019  16.726  0.00  0.00    +0.000 A 
ATOM     32  C   UNL     1      -1.302   9.937  17.495  0.00  0.00    +0.000 A 
BRANCH  31  33
ATOM     33  O   UNL     1      -2.693   9.387  15.534  0.00  0.00    +0.000 OA
ATOM     34  C   UNL     1      -3.380  10.126  14.535  0.00  0.00    +0.000 C 
ENDBRANCH  31  33
ENDBRANCH   1  27
TORSDOF 7
ENDMDL
MODEL 3
REMARK VINA RESULT:      -8.5      1.005      1.376
REMARK  Name = 
REMARK  10 active torsions:
REMARK  status: ('A' for Active; 'I' for Inactive)
REMARK    1  A    between atoms: C_2  and  C_3
REMARK    2  A    between atoms: C_3  and  N_4
REMARK    3  A    between atoms: C_6  and  C_7
REMARK    4  A    between atoms: N_8  and  C_9
REMARK    5  A    between atoms: C_9  and  C_10
REMARK    6  A    between atoms: C_9  and  C_24
REMARK    7  A    between atoms: C_13  and  C_14
REMARK    8  A    between atoms: C_28  and  O_29
REMARK    9  A    between atoms: O_29  and  C_30
REMARK   10  A    between atoms: C_33  and  C_34
REMARK                            x       y       z     vdW  Elec       q    Type
REMARK                         _______ _______ _______ _____ _____    ______ ____
ROOT
ATOM      1  C   UNL     1       0.480  10.952  19.014  0.00  0.00    +0.000 C 
ENDROOT
BRANCH   1   6
ATOM      2  N   UNL     1      -0.526  13.654  22.317  0.00  0.00    +0.000 NA
ATOM      3  C   UNL     1      -0.723  12.205  22.540  0.00  0.00    +0.000 C 
ATOM      4  C   UNL     1      -0.638  11.307  21.258  0.00  0.00    +0.000 C 
ATOM      5  C   UNL     1      -0.724   9.853  21.748  0.00  0.00    +0.000 C 
ATOM      6  N   UNL     1       0.560  11.564  20.398  0.00  0.00    +0.000 NA
ATOM      7  C   UNL     1       0.883  13.009  20.333  0.00  0.00    +0.000 C 
ATOM      8  C   UNL     1       0.802  13.781  21.670  0.00  0.00    +0.000 C 
ATOM      9  C   UNL     1       1.254  15.227  21.457  0.00  0.00    +0.000 C 
BRANCH   2  10
ATOM     10  C   UNL     1      -1.629  14.237  21.535  0.00  0.00    +0.000 C 
BRANCH  10  12
ATOM     11  C   UNL     1      -4.089  13.846  21.931  0.00  0.00    +0.000 C 
ATOM     12  C   UNL     1      -2.904  14.327  22.338  0.00  0.00    +0.000 C 
ENDBRANCH  10  12
ENDBRANCH   2  10
ENDBRANCH   1   6
BRANCH   1  13
ATOM     13  C   UNL     1       1.240   9.607  18.923  0.00  0.00    +0.000 A 
ATOM     14  C   UNL     1       1.343   8.734  20.031  0.00  0.00    +0.000 A 
ATOM     15  C   UNL     1       2.089   7.562  19.964  0.00  0.00    +0.000 A 
ATOM     16  C   UNL     1       2.752   7.235  18.784  0.00  0.00    +0.000 A 
ATOM     17  C   UNL     1       2.589   8.041  17.650  0.00  0.00    +0.000 A 
ATOM     18  C   UNL     1       1.860   9.228  17.726  0.00  0.00    +0.000 A 
BRANCH  16  19
ATOM     19  C   UNL     1       3.558   5.989  18.754  0.00  0.00    +0.000 C 
ATOM     20  O   UNL     1       4.736   6.092  18.411  0.00  0.00    +0.000 OA
ATOM     21  N   UNL     1       2.975   4.773  19.108  0.00  0.00    +0.000 N 
ATOM     22  C   UNL     1       3.855   3.638  19.368  0.00  0.00    +0.000 C 
ATOM     23  C   UNL     1       3.434   2.413  18.566  0.00  0.00    +0.000 C 
ATOM     24  C   UNL     1       1.964   2.079  18.808  0.00  0.00    +0.000 C 
ATOM     25  C   UNL     1       1.088   3.287  18.501  0.00  0.00    +0.000 C 
ATOM     26  C   UNL     1       1.541   4.519  19.275  0.00  0.00    +0.000 C 
ENDBRANCH  16  19
ENDBRANCH   1  13
BRANCH   1  27
ATOM     27  C   UNL     1      -0.963  10.857  18.438  0.00  0.00    +0.000 A 
ATOM     28  C   UNL     1      -1.331   9.814  17.562  0.00  0.00    +0.000 A 
ATOM     29  C   UNL     1      -2.666   9.585  17.230  0.00  0.00    +0.000 A 
ATOM     30  C   UNL     1      -3.649  10.442  17.707  0.00  0.00    +0.000 A 
ATOM     31  C   UNL     1      -3.301  11.563  18.461  0.00  0.00    +0.000 A 
ATOM     32  C   UNL     1      -1.959  11.789  18.787  0.00  0.00    +0.000 A 
BRANCH  31  33
ATOM     33  O   UNL     1      -4.364  12.332  18.850  0.00  0.00    +0.000 OA
ATOM     34  C   UNL     1      -5.599  11.661  19.059  0.00  0.00    +0.000 C 
ENDBRANCH  31  33
ENDBRANCH   1  27
TORSDOF 7
ENDMDL
MODEL 4
REMARK VINA RESULT:      -8.4      1.338      1.526
REMARK  Name = 
REMARK  10 active torsions:
REMARK  status: ('A' for Active; 'I' for Inactive)
REMARK    1  A    between atoms: C_2  and  C_3
REMARK    2  A    between atoms: C_3  and  N_4
REMARK    3  A    between atoms: C_6  and  C_7
REMARK    4  A    between atoms: N_8  and  C_9
REMARK    5  A    between atoms: C_9  and  C_10
REMARK    6  A    between atoms: C_9  and  C_24
REMARK    7  A    between atoms: C_13  and  C_14
REMARK    8  A    between atoms: C_28  and  O_29
REMARK    9  A    between atoms: O_29  and  C_30
REMARK   10  A    between atoms: C_33  and  C_34
REMARK                            x       y       z     vdW  Elec       q    Type
REMARK                         _______ _______ _______ _____ _____    ______ ____
ROOT
ATOM      1  C   UNL     1       0.379  11.245  19.073  0.00  0.00    +0.000 C 
ENDROOT
BRANCH   1   6
ATOM      2  N   UNL     1      -0.460  14.146  22.253  0.00  0.00    +0.000 NA
ATOM      3  C   UNL     1      -0.739  12.722  22.540  0.00  0.00    +0.000 C 
ATOM      4  C   UNL     1      -0.710  11.765  21.299  0.00  0.00    +0.000 C 
ATOM      5  C   UNL     1      -0.878  10.341  21.855  0.00  0.00    +0.000 C 
ATOM      6  N   UNL     1       0.499  11.912  20.429  0.00  0.00    +0.000 NA
ATOM      7  C   UNL     1       0.905  13.332  20.299  0.00  0.00    +0.000 C 
ATOM      8  C   UNL     1       0.872  14.166  21.600  0.00  0.00    +0.000 C 
ATOM      9  C   UNL     1       1.407  15.573  21.322  0.00  0.00    +0.000 C 
BRANCH   2  10
ATOM     10  C   UNL     1      -1.529  14.756  21.446  0.00  0.00    +0.000 C 
BRANCH  10  12
ATOM     11  C   UNL     1      -3.716  15.702  22.272  0.00  0.00    +0.000 C 
ATOM     12  C   UNL     1      -2.374  15.708  22.256  0.00  0.00    +0.000 C 
ENDBRANCH  10  12
ENDBRANCH   2  10
ENDBRANCH   1   6
BRANCH   1  13
ATOM     13  C   UNL     1       1.169   9.916  19.004  0.00  0.00    +0.000 A 
ATOM     14  C   UNL     1       1.884   9.534  17.845  0.00  0.00    +0.000 A 
ATOM     15  C   UNL     1       2.530   8.305  17.764  0.00  0.00    +0.000 A 
ATOM     16  C   UNL     1       2.479   7.427  18.844  0.00  0.00    +0.000 A 
ATOM     17  C   UNL     1       1.852   7.825  20.032  0.00  0.00    +0.000 A 
ATOM     18  C   UNL     1       1.183   9.048  20.103  0.00  0.00    +0.000 A 
BRANCH  16  19
ATOM     19  C   UNL     1       3.160   6.115  18.715  0.00  0.00    +0.000 C 
ATOM     20  O   UNL     1       4.006   6.007  17.827  0.00  0.00    +0.000 OA
ATOM     21  N   UNL     1       2.832   5.073  19.581  0.00  0.00    +0.000 N 
ATOM     22  C   UNL     1       3.722   3.917  19.634  0.00  0.00    +0.000 C 
ATOM     23  C   UNL     1       2.954   2.614  19.451  0.00  0.00    +0.000 C 
ATOM     24  C   UNL     1       1.804   2.511  20.450  0.00  0.00    +0.000 C 
ATOM     25  C   UNL     1       0.894   3.728  20.338  0.00  0.00    +0.000 C 
ATOM     26  C   UNL     1       1.676   5.028  20.481  0.00  0.00    +0.000 C 
ENDBRANCH  16  19
ENDBRANCH   1  13
BRANCH   1  27
ATOM     27  C   UNL     1      -1.082  11.093  18.561  0.00  0.00    +0.000 A 
ATOM     28  C   UNL     1      -1.456  10.013  17.734  0.00  0.00    +0.000 A 
ATOM     29  C   UNL     1      -2.796   9.738  17.464  0.00  0.00    +0.000 A 
ATOM     30  C   UNL     1      -3.783  10.583  17.955  0.00  0.00    +0.000 A 
ATOM     31  C   UNL     1      -3.437  11.736  18.659  0.00  0.00    +0.000 A 
ATOM     32  C   UNL     1      -2.090  12.008  18.923  0.00  0.00    +0.000 A 
BRANCH  31  33
ATOM     33  O   UNL     1      -4.504  12.488  19.068  0.00  0.00    +0.000 OA
ATOM     34  C   UNL     1      -5.795  11.923  18.884  0.00  0.00    +0.000 C 
ENDBRANCH  31  33
ENDBRANCH   1  27
TORSDOF 7
ENDMDL
MODEL 5
REMARK VINA RESULT:      -8.2      1.698      2.600
REMARK  Name = 
REMARK  10 active torsions:
REMARK  status: ('A' for Active; 'I' for Inactive)
REMARK    1  A    between atoms: C_2  and  C_3
REMARK    2  A    between atoms: C_3  and  N_4
REMARK    3  A    between atoms: C_6  and  C_7
REMARK    4  A    between atoms: N_8  and  C_9
REMARK    5  A    between atoms: C_9  and  C_10
REMARK    6  A    between atoms: C_9  and  C_24
REMARK    7  A    between atoms: C_13  and  C_14
REMARK    8  A    between atoms: C_28  and  O_29
REMARK    9  A    between atoms: O_29  and  C_30
REMARK   10  A    between atoms: C_33  and  C_34
REMARK                            x       y       z     vdW  Elec       q    Type
REMARK                         _______ _______ _______ _____ _____    ______ ____
ROOT
ATOM      1  C   UNL     1       0.326  11.053  19.132  0.00  0.00    +0.000 C 
ENDROOT
BRANCH   1   6
ATOM      2  N   UNL     1      -0.794  13.572  22.542  0.00  0.00    +0.000 NA
ATOM      3  C   UNL     1      -0.867  12.106  22.726  0.00  0.00    +0.000 C 
ATOM      4  C   UNL     1      -0.749  11.255  21.416  0.00  0.00    +0.000 C 
ATOM      5  C   UNL     1      -0.704   9.785  21.864  0.00  0.00    +0.000 C 
ATOM      6  N   UNL     1       0.399  11.630  20.531  0.00  0.00    +0.000 NA
ATOM      7  C   UNL     1       0.603  13.099  20.501  0.00  0.00    +0.000 C 
ATOM      8  C   UNL     1       0.501  13.824  21.863  0.00  0.00    +0.000 C 
ATOM      9  C   UNL     1       0.830  15.307  21.681  0.00  0.00    +0.000 C 
BRANCH   2  10
ATOM     10  C   UNL     1      -1.962  14.086  21.809  0.00  0.00    +0.000 C 
BRANCH  10  12
ATOM     11  C   UNL     1      -4.460  13.737  21.796  0.00  0.00    +0.000 C 
ATOM     12  C   UNL     1      -3.257  13.543  22.360  0.00  0.00    +0.000 C 
ENDBRANCH  10  12
ENDBRANCH   2  10
ENDBRANCH   1   6
BRANCH   1  13
ATOM     13  C   UNL     1       1.149   9.749  18.994  0.00  0.00    +0.000 A 
ATOM     14  C   UNL     1       1.777   9.390  17.780  0.00  0.00    +0.000 A 
ATOM     15  C   UNL     1       2.452   8.182  17.642  0.00  0.00    +0.000 A 
ATOM     16  C   UNL     1       2.516   7.302  18.720  0.00  0.00    +0.000 A 
ATOM     17  C   UNL     1       1.978   7.680  19.957  0.00  0.00    +0.000 A 
ATOM     18  C   UNL     1       1.279   8.881  20.086  0.00  0.00    +0.000 A 
BRANCH  16  19
ATOM     19  C   UNL     1       3.225   6.012  18.532  0.00  0.00    +0.000 C 
ATOM     20  O   UNL     1       2.785   5.036  19.140  0.00  0.00    +0.000 OA
ATOM     21  N   UNL     1       4.337   5.943  17.693  0.00  0.00    +0.000 N 
ATOM     22  C   UNL     1       4.814   4.624  17.289  0.00  0.00    +0.000 C 
ATOM     23  C   UNL     1       6.307   4.468  17.550  0.00  0.00    +0.000 C 
ATOM     24  C   UNL     1       7.097   5.600  16.898  0.00  0.00    +0.000 C 
ATOM     25  C   UNL     1       6.577   6.952  17.370  0.00  0.00    +0.000 C 
ATOM     26  C   UNL     1       5.076   7.084  17.144  0.00  0.00    +0.000 C 
ENDBRANCH  16  19
ENDBRANCH   1  13
BRANCH   1  27
ATOM     27  C   UNL     1      -1.119  10.904  18.575  0.00  0.00    +0.000 A 
ATOM     28  C   UNL     1      -2.187  11.656  19.108  0.00  0.00    +0.000 A 
ATOM     29  C   UNL     1      -3.426  11.706  18.471  0.00  0.00    +0.000 A 
ATOM     30  C   UNL     1      -3.643  10.944  17.330  0.00  0.00    +0.000 A 
ATOM     31  C   UNL     1      -2.651  10.084  16.858  0.00  0.00    +0.000 A 
ATOM     32  C   UNL     1      -1.411  10.036  17.506  0.00  0.00    +0.000 A 
BRANCH  31  33
ATOM     33  O   UNL     1      -3.002   9.379  15.740  0.00  0.00    +0.000 OA
ATOM     34  C   UNL     1      -3.190  10.124  14.545  0.00  0.00    +0.000 C 
ENDBRANCH  31  33
ENDBRANCH   1  27
TORSDOF 7
ENDMDL
MODEL 6
REMARK VINA RESULT:      -8.1      1.512      2.202
REMARK  Name = 
REMARK  10 active torsions:
REMARK  status: ('A' for Active; 'I' for Inactive)
REMARK    1  A    between atoms: C_2  and  C_3
REMARK    2  A    between atoms: C_3  and  N_4
REMARK    3  A    between atoms: C_6  and  C_7
REMARK    4  A    between atoms: N_8  and  C_9
REMARK    5  A    between atoms: C_9  and  C_10
REMARK    6  A    between atoms: C_9  and  C_24
REMARK    7  A    between atoms: C_13  and  C_14
REMARK    8  A    between atoms: C_28  and  O_29
REMARK    9  A    between atoms: O_29  and  C_30
REMARK   10  A    between atoms: C_33  and  C_34
REMARK                            x       y       z     vdW  Elec       q    Type
REMARK                         _______ _______ _______ _____ _____    ______ ____
ROOT
ATOM      1  C   UNL     1       0.385  11.179  19.073  0.00  0.00    +0.000 C 
ENDROOT
BRANCH   1   6
ATOM      2  N   UNL     1      -0.510  13.929  22.369  0.00  0.00    +0.000 NA
ATOM      3  C   UNL     1      -0.749  12.488  22.602  0.00  0.00    +0.000 C 
ATOM      4  C   UNL     1      -0.702  11.581  21.324  0.00  0.00    +0.000 C 
ATOM      5  C   UNL     1      -0.828  10.133  21.824  0.00  0.00    +0.000 C 
ATOM      6  N   UNL     1       0.496  11.795  20.453  0.00  0.00    +0.000 NA
ATOM      7  C   UNL     1       0.862  13.230  20.377  0.00  0.00    +0.000 C 
ATOM      8  C   UNL     1       0.816  14.011  21.710  0.00  0.00    +0.000 C 
ATOM      9  C   UNL     1       1.311  15.442  21.485  0.00  0.00    +0.000 C 
BRANCH   2  10
ATOM     10  C   UNL     1      -1.600  14.541  21.593  0.00  0.00    +0.000 C 
BRANCH  10  12
ATOM     11  C   UNL     1      -4.063  14.924  21.979  0.00  0.00    +0.000 C 
ATOM     12  C   UNL     1      -2.957  14.183  22.148  0.00  0.00    +0.000 C 
ENDBRANCH  10  12
ENDBRANCH   2  10
ENDBRANCH   1   6
BRANCH   1  13
ATOM     13  C   UNL     1       1.179   9.855  18.958  0.00  0.00    +0.000 A 
ATOM     14  C   UNL     1       1.846   9.488  17.766  0.00  0.00    +0.000 A 
ATOM     15  C   UNL     1       2.495   8.265  17.647  0.00  0.00    +0.000 A 
ATOM     16  C   UNL     1       2.495   7.377  18.720  0.00  0.00    +0.000 A 
ATOM     17  C   UNL     1       1.917   7.760  19.937  0.00  0.00    +0.000 A 
ATOM     18  C   UNL     1       1.245   8.978  20.048  0.00  0.00    +0.000 A 
BRANCH  16  19
ATOM     19  C   UNL     1       3.178   6.070  18.550  0.00  0.00    +0.000 C 
ATOM     20  O   UNL     1       2.717   5.111  19.170  0.00  0.00    +0.000 OA
ATOM     21  N   UNL     1       4.290   5.969  17.715  0.00  0.00    +0.000 N 
ATOM     22  C   UNL     1       4.741   4.635  17.329  0.00  0.00    +0.000 C 
ATOM     23  C   UNL     1       6.230   4.452  17.597  0.00  0.00    +0.000 C 
ATOM     24  C   UNL     1       7.045   5.559  16.932  0.00  0.00    +0.000 C 
ATOM     25  C   UNL     1       6.551   6.928  17.385  0.00  0.00    +0.000 C 
ATOM     26  C   UNL     1       5.053   7.087  17.153  0.00  0.00    +0.000 C 
ENDBRANCH  16  19
ENDBRANCH   1  13
BRANCH   1  27
ATOM     27  C   UNL     1      -1.074  11.042  18.548  0.00  0.00    +0.000 A 
ATOM     28  C   UNL     1      -1.446   9.979  17.699  0.00  0.00    +0.000 A 
ATOM     29  C   UNL     1      -2.785   9.714  17.414  0.00  0.00    +0.000 A 
ATOM     30  C   UNL     1      -3.772  10.555  17.914  0.00  0.00    +0.000 A 
ATOM     31  C   UNL     1      -3.426  11.693  18.641  0.00  0.00    +0.000 A 
ATOM     32  C   UNL     1      -2.080  11.955  18.918  0.00  0.00    +0.000 A 
BRANCH  31  33
ATOM     33  O   UNL     1      -4.493  12.443  19.055  0.00  0.00    +0.000 OA
ATOM     34  C   UNL     1      -5.786  11.959  18.718  0.00  0.00    +0.000 C 
ENDBRANCH  31  33
ENDBRANCH   1  27
TORSDOF 7
ENDMDL
MODEL 7
REMARK VINA RESULT:      -8.0      1.695      2.484
REMARK  Name = 
REMARK  10 active torsions:
REMARK  status: ('A' for Active; 'I' for Inactive)
REMARK    1  A    between atoms: C_2  and  C_3
REMARK    2  A    between atoms: C_3  and  N_4
REMARK    3  A    between atoms: C_6  and  C_7
REMARK    4  A    between atoms: N_8  and  C_9
REMARK    5  A    between atoms: C_9  and  C_10
REMARK    6  A    between atoms: C_9  and  C_24
REMARK    7  A    between atoms: C_13  and  C_14
REMARK    8  A    between atoms: C_28  and  O_29
REMARK    9  A    between atoms: O_29  and  C_30
REMARK   10  A    between atoms: C_33  and  C_34
REMARK                            x       y       z     vdW  Elec       q    Type
REMARK                         _______ _______ _______ _____ _____    ______ ____
ROOT
ATOM      1  C   UNL     1       0.384  11.120  19.034  0.00  0.00    +0.000 C 
ENDROOT
BRANCH   1   6
ATOM      2  N   UNL     1      -0.353  14.078  22.186  0.00  0.00    +0.000 NA
ATOM      3  C   UNL     1      -0.650  12.662  22.498  0.00  0.00    +0.000 C 
ATOM      4  C   UNL     1      -0.658  11.688  21.270  0.00  0.00    +0.000 C 
ATOM      5  C   UNL     1      -0.839  10.275  21.848  0.00  0.00    +0.000 C 
ATOM      6  N   UNL     1       0.538  11.804  20.377  0.00  0.00    +0.000 NA
ATOM      7  C   UNL     1       0.964  13.215  20.221  0.00  0.00    +0.000 C 
ATOM      8  C   UNL     1       0.967  14.067  21.511  0.00  0.00    +0.000 C 
ATOM      9  C   UNL     1       1.520  15.461  21.205  0.00  0.00    +0.000 C 
BRANCH   2  10
ATOM     10  C   UNL     1      -1.426  14.694  21.389  0.00  0.00    +0.000 C 
BRANCH  10  12
ATOM     11  C   UNL     1      -2.036  15.958  23.485  0.00  0.00    +0.000 C 
ATOM     12  C   UNL     1      -2.315  15.578  22.229  0.00  0.00    +0.000 C 
ENDBRANCH  10  12
ENDBRANCH   2  10
ENDBRANCH   1   6
BRANCH   1  13
ATOM     13  C   UNL     1       1.123   9.761  18.981  0.00  0.00    +0.000 A 
ATOM     14  C   UNL     1       1.181   8.901  20.102  0.00  0.00    +0.000 A 
ATOM     15  C   UNL     1       1.908   7.716  20.069  0.00  0.00    +0.000 A 
ATOM     16  C   UNL     1       2.597   7.362  18.912  0.00  0.00    +0.000 A 
ATOM     17  C   UNL     1       2.478   8.156  17.764  0.00  0.00    +0.000 A 
ATOM     18  C   UNL     1       1.768   9.357  17.805  0.00  0.00    +0.000 A 
BRANCH  16  19
ATOM     19  C   UNL     1       3.382   6.103  18.920  0.00  0.00    +0.000 C 
ATOM     20  O   UNL     1       3.058   5.244  19.741  0.00  0.00    +0.000 OA
ATOM     21  N   UNL     1       4.433   5.932  18.020  0.00  0.00    +0.000 N 
ATOM     22  C   UNL     1       4.975   4.588  17.841  0.00  0.00    +0.000 C 
ATOM     23  C   UNL     1       6.490   4.573  18.001  0.00  0.00    +0.000 C 
ATOM     24  C   UNL     1       7.148   5.595  17.077  0.00  0.00    +0.000 C 
ATOM     25  C   UNL     1       6.565   6.982  17.319  0.00  0.00    +0.000 C 
ATOM     26  C   UNL     1       5.046   6.980  17.198  0.00  0.00    +0.000 C 
ENDBRANCH  16  19
ENDBRANCH   1  13
BRANCH   1  27
ATOM     27  C   UNL     1      -1.085  11.015  18.533  0.00  0.00    +0.000 A 
ATOM     28  C   UNL     1      -1.498   9.954  17.699  0.00  0.00    +0.000 A 
ATOM     29  C   UNL     1      -2.847   9.721  17.438  0.00  0.00    +0.000 A 
ATOM     30  C   UNL     1      -3.805  10.590  17.945  0.00  0.00    +0.000 A 
ATOM     31  C   UNL     1      -3.419  11.726  18.656  0.00  0.00    +0.000 A 
ATOM     32  C   UNL     1      -2.062  11.956  18.910  0.00  0.00    +0.000 A 
BRANCH  31  33
ATOM     33  O   UNL     1      -4.460  12.506  19.080  0.00  0.00    +0.000 OA
ATOM     34  C   UNL     1      -5.770  12.011  18.842  0.00  0.00    +0.000 C 
ENDBRANCH  31  33
ENDBRANCH   1  27
TORSDOF 7
ENDMDL
MODEL 8
REMARK VINA RESULT:      -8.0      1.842      2.833
REMARK  Name = 
REMARK  10 active torsions:
REMARK  status: ('A' for Active; 'I' for Inactive)
REMARK    1  A    between atoms: C_2  and  C_3
REMARK    2  A    between atoms: C_3  and  N_4
REMARK    3  A    between atoms: C_6  and  C_7
REMARK    4  A    between atoms: N_8  and  C_9
REMARK    5  A    between atoms: C_9  and  C_10
REMARK    6  A    between atoms: C_9  and  C_24
REMARK    7  A    between atoms: C_13  and  C_14
REMARK    8  A    between atoms: C_28  and  O_29
REMARK    9  A    between atoms: O_29  and  C_30
REMARK   10  A    between atoms: C_33  and  C_34
REMARK                            x       y       z     vdW  Elec       q    Type
REMARK                         _______ _______ _______ _____ _____    ______ ____
ROOT
ATOM      1  C   UNL     1       0.411  10.952  19.075  0.00  0.00    +0.000 C 
ENDROOT
BRANCH   1   6
ATOM      2  N   UNL     1      -0.541  13.717  22.342  0.00  0.00    +0.000 NA
ATOM      3  C   UNL     1      -0.738  12.272  22.594  0.00  0.00    +0.000 C 
ATOM      4  C   UNL     1      -0.674  11.351  21.327  0.00  0.00    +0.000 C 
ATOM      5  C   UNL     1      -0.757   9.907  21.845  0.00  0.00    +0.000 C 
ATOM      6  N   UNL     1       0.513  11.588  20.446  0.00  0.00    +0.000 NA
ATOM      7  C   UNL     1       0.839  13.032  20.350  0.00  0.00    +0.000 C 
ATOM      8  C   UNL     1       0.778  13.828  21.674  0.00  0.00    +0.000 C 
ATOM      9  C   UNL     1       1.232  15.269  21.428  0.00  0.00    +0.000 C 
BRANCH   2  10
ATOM     10  C   UNL     1      -1.653  14.289  21.565  0.00  0.00    +0.000 C 
BRANCH  10  12
ATOM     11  C   UNL     1      -2.306  15.744  23.518  0.00  0.00    +0.000 C 
ATOM     12  C   UNL     1      -2.642  15.013  22.445  0.00  0.00    +0.000 C 
ENDBRANCH  10  12
ENDBRANCH   2  10
ENDBRANCH   1   6
BRANCH   1  13
ATOM     13  C   UNL     1       1.163   9.601  19.000  0.00  0.00    +0.000 A 
ATOM     14  C   UNL     1       1.274   8.747  20.121  0.00  0.00    +0.000 A 
ATOM     15  C   UNL     1       2.013   7.571  20.066  0.00  0.00    +0.000 A 
ATOM     16  C   UNL     1       2.661   7.218  18.885  0.00  0.00    +0.000 A 
ATOM     17  C   UNL     1       2.490   8.005  17.739  0.00  0.00    +0.000 A 
ATOM     18  C   UNL     1       1.767   9.198  17.802  0.00  0.00    +0.000 A 
BRANCH  16  19
ATOM     19  C   UNL     1       3.461   5.968  18.868  0.00  0.00    +0.000 C 
ATOM     20  O   UNL     1       3.139   5.086  19.664  0.00  0.00    +0.000 OA
ATOM     21  N   UNL     1       4.522   5.833  17.974  0.00  0.00    +0.000 N 
ATOM     22  C   UNL     1       5.081   4.500  17.766  0.00  0.00    +0.000 C 
ATOM     23  C   UNL     1       6.595   4.498  17.942  0.00  0.00    +0.000 C 
ATOM     24  C   UNL     1       7.250   5.551  17.051  0.00  0.00    +0.000 C 
ATOM     25  C   UNL     1       6.649   6.925  17.322  0.00  0.00    +0.000 C 
ATOM     26  C   UNL     1       5.131   6.909  17.187  0.00  0.00    +0.000 C 
ENDBRANCH  16  19
ENDBRANCH   1  13
BRANCH   1  27
ATOM     27  C   UNL     1      -1.039  10.854  18.520  0.00  0.00    +0.000 A 
ATOM     28  C   UNL     1      -2.077  11.651  19.048  0.00  0.00    +0.000 A 
ATOM     29  C   UNL     1      -3.314  11.743  18.411  0.00  0.00    +0.000 A 
ATOM     30  C   UNL     1      -3.561  10.981  17.276  0.00  0.00    +0.000 A 
ATOM     31  C   UNL     1      -2.604  10.080  16.811  0.00  0.00    +0.000 A 
ATOM     32  C   UNL     1      -1.366   9.989  17.458  0.00  0.00    +0.000 A 
BRANCH  31  33
ATOM     33  O   UNL     1      -2.983   9.380  15.698  0.00  0.00    +0.000 OA
ATOM     34  C   UNL     1      -3.525  10.132  14.622  0.00  0.00    +0.000 C 
ENDBRANCH  31  33
ENDBRANCH   1  27
TORSDOF 7
ENDMDL
MODEL 9
REMARK VINA RESULT:      -8.0      2.130      2.936
REMARK  Name = 
REMARK  10 active torsions:
REMARK  status: ('A' for Active; 'I' for Inactive)
REMARK    1  A    between atoms: C_2  and  C_3
REMARK    2  A    between atoms: C_3  and  N_4
REMARK    3  A    between atoms: C_6  and  C_7
REMARK    4  A    between atoms: N_8  and  C_9
REMARK    5  A    between atoms: C_9  and  C_10
REMARK    6  A    between atoms: C_9  and  C_24
REMARK    7  A    between atoms: C_13  and  C_14
REMARK    8  A    between atoms: C_28  and  O_29
REMARK    9  A    between atoms: O_29  and  C_30
REMARK   10  A    between atoms: C_33  and  C_34
REMARK                            x       y       z     vdW  Elec       q    Type
REMARK                         _______ _______ _______ _____ _____    ______ ____
ROOT
ATOM      1  C   UNL     1       0.943  10.793  18.349  0.00  0.00    +0.000 C 
ENDROOT
BRANCH   1   6
ATOM      2  N   UNL     1       1.065  14.621  20.484  0.00  0.00    +0.000 NA
ATOM      3  C   UNL     1       0.904  13.395  21.295  0.00  0.00    +0.000 C 
ATOM      4  C   UNL     1       0.570  12.092  20.490  0.00  0.00    +0.000 C 
ATOM      5  C   UNL     1       0.595  10.942  21.510  0.00  0.00    +0.000 C 
ATOM      6  N   UNL     1       1.457  11.846  19.311  0.00  0.00    +0.000 NA
ATOM      7  C   UNL     1       1.787  13.108  18.606  0.00  0.00    +0.000 C 
ATOM      8  C   UNL     1       2.137  14.314  19.507  0.00  0.00    +0.000 C 
ATOM      9  C   UNL     1       2.545  15.505  18.636  0.00  0.00    +0.000 C 
BRANCH   2  10
ATOM     10  C   UNL     1      -0.206  15.033  19.865  0.00  0.00    +0.000 C 
BRANCH  10  12
ATOM     11  C   UNL     1      -1.774  16.280  21.397  0.00  0.00    +0.000 C 
ATOM     12  C   UNL     1      -1.321  15.129  20.877  0.00  0.00    +0.000 C 
ENDBRANCH  10  12
ENDBRANCH   2  10
ENDBRANCH   1   6
BRANCH   1  13
ATOM     13  C   UNL     1       1.559   9.399  18.624  0.00  0.00    +0.000 A 
ATOM     14  C   UNL     1       1.320   8.705  19.833  0.00  0.00    +0.000 A 
ATOM     15  C   UNL     1       1.935   7.488  20.103  0.00  0.00    +0.000 A 
ATOM     16  C   UNL     1       2.805   6.933  19.168  0.00  0.00    +0.000 A 
ATOM     17  C   UNL     1       2.984   7.561  17.929  0.00  0.00    +0.000 A 
ATOM     18  C   UNL     1       2.385   8.795  17.669  0.00  0.00    +0.000 A 
BRANCH  16  19
ATOM     19  C   UNL     1       3.462   5.644  19.498  0.00  0.00    +0.000 C 
ATOM     20  O   UNL     1       4.676   5.669  19.700  0.00  0.00    +0.000 OA
ATOM     21  N   UNL     1       2.706   4.475  19.571  0.00  0.00    +0.000 N 
ATOM     22  C   UNL     1       3.311   3.301  20.193  0.00  0.00    +0.000 C 
ATOM     23  C   UNL     1       3.200   2.076  19.295  0.00  0.00    +0.000 C 
ATOM     24  C   UNL     1       1.752   1.833  18.877  0.00  0.00    +0.000 C 
ATOM     25  C   UNL     1       1.175   3.078  18.213  0.00  0.00    +0.000 C 
ATOM     26  C   UNL     1       1.327   4.307  19.100  0.00  0.00    +0.000 C 
ENDBRANCH  16  19
ENDBRANCH   1  13
BRANCH   1  27
ATOM     27  C   UNL     1      -0.607  10.742  18.225  0.00  0.00    +0.000 A 
ATOM     28  C   UNL     1      -1.433  11.506  19.077  0.00  0.00    +0.000 A 
ATOM     29  C   UNL     1      -2.796  11.650  18.825  0.00  0.00    +0.000 A 
ATOM     30  C   UNL     1      -3.374  10.970  17.760  0.00  0.00    +0.000 A 
ATOM     31  C   UNL     1      -2.610  10.098  16.984  0.00  0.00    +0.000 A 
ATOM     32  C   UNL     1      -1.243   9.955  17.245  0.00  0.00    +0.000 A 
BRANCH  31  33
ATOM     33  O   UNL     1      -3.306   9.479  15.982  0.00  0.00    +0.000 OA
ATOM     34  C   UNL     1      -3.305  10.116  14.713  0.00  0.00    +0.000 C 
ENDBRANCH  31  33
ENDBRANCH   1  27
TORSDOF 7
ENDMDL
