MODEL 1
REMARK VINA RESULT:      -9.0      0.000      0.000
REMARK  Name = 
REMARK  4 active torsions:
REMARK  status: ('A' for Active; 'I' for Inactive)
REMARK    1  A    between atoms: C_1  and  S_2
REMARK    2  A    between atoms: S_2  and  C_5
REMARK    3  A    between atoms: C_11  and  C_12
REMARK    4  A    between atoms: C_17  and  C_18
REMARK                            x       y       z     vdW  Elec       q    Type
REMARK                         _______ _______ _______ _____ _____    ______ ____
ROOT
ATOM      1  C   UNL     1       1.347   8.946  19.383  0.00  0.00    +0.000 A 
ATOM      2  C   UNL     1       1.594   8.911  18.015  0.00  0.00    +0.000 A 
ATOM      3  C   UNL     1       2.427   7.916  17.507  0.00  0.00    +0.000 A 
ATOM      4  C   UNL     1       2.937   6.959  18.384  0.00  0.00    +0.000 A 
ATOM      5  N   UNL     1       3.664   5.855  17.832  0.00  0.00    +0.000 N 
ATOM      6  N   UNL     1       4.387   6.037  16.690  0.00  0.00    +0.000 NA
ATOM      7  C   UNL     1       5.122   4.922  16.558  0.00  0.00    +0.000 A 
ATOM      8  C   UNL     1       4.737   3.956  17.518  0.00  0.00    +0.000 A 
ATOM      9  C   UNL     1       3.748   4.539  18.298  0.00  0.00    +0.000 A 
ATOM     10  N   UNL     1       2.704   6.998  19.725  0.00  0.00    +0.000 NA
ATOM     11  C   UNL     1       1.912   7.987  20.199  0.00  0.00    +0.000 A 
ENDROOT
BRANCH   9  12
ATOM     12  C   UNL     1       2.913   3.914  19.345  0.00  0.00    +0.000 A 
ATOM     13  C   UNL     1       3.510   3.297  20.457  0.00  0.00    +0.000 A 
ATOM     14  C   UNL     1       2.727   2.722  21.465  0.00  0.00    +0.000 A 
ATOM     15  C   UNL     1       1.344   2.772  21.378  0.00  0.00    +0.000 A 
ATOM     16  F   UNL     1       0.596   2.257  22.362  0.00  0.00    +0.000 F 
ATOM     17  C   UNL     1       0.726   3.342  20.278  0.00  0.00    +0.000 A 
ATOM     18  C   UNL     1       1.511   3.873  19.251  0.00  0.00    +0.000 A 
ENDBRANCH   9  12
BRANCH   1  20
ATOM     19  C   UNL     1      -0.924  10.419  18.805  0.00  0.00    +0.000 C 
ATOM     20  S   UNL     1       0.276  10.154  20.084  0.00  0.00    +0.000 S 
ATOM     21  O   UNL     1       1.042  11.374  20.248  0.00  0.00    +0.000 OA
ATOM     22  O   UNL     1      -0.390   9.537  21.214  0.00  0.00    +0.000 OA
ENDBRANCH   1  20
BRANCH   7  23
ATOM     23  C   UNL     1       6.178   4.750  15.495  0.00  0.00    +0.000 C 
ATOM     24  F   UNL     1       7.416   5.147  15.890  0.00  0.00    +0.000 F 
ATOM     25  F   UNL     1       6.289   3.453  15.109  0.00  0.00    +0.000 F 
ATOM     26  F   UNL     1       5.877   5.463  14.375  0.00  0.00    +0.000 F 
ENDBRANCH   7  23
TORSDOF 3
ENDMDL
MODEL 2
REMARK VINA RESULT:      -8.8      0.710      1.496
REMARK  Name = 
REMARK  4 active torsions:
REMARK  status: ('A' for Active; 'I' for Inactive)
REMARK    1  A    between atoms: C_1  and  S_2
REMARK    2  A    between atoms: S_2  and  C_5
REMARK    3  A    between atoms: C_11  and  C_12
REMARK    4  A    between atoms: C_17  and  C_18
REMARK                            x       y       z     vdW  Elec       q    Type
REMARK                         _______ _______ _______ _____ _____    ______ ____
ROOT
ATOM      1  C   UNL     1       1.387   8.953  19.284  0.00  0.00    +0.000 A 
ATOM      2  C   UNL     1       1.635   8.880  17.918  0.00  0.00    +0.000 A 
ATOM      3  C   UNL     1       2.463   7.867  17.436  0.00  0.00    +0.000 A 
ATOM      4  C   UNL     1       2.966   6.930  18.338  0.00  0.00    +0.000 A 
ATOM      5  N   UNL     1       3.686   5.808  17.817  0.00  0.00    +0.000 N 
ATOM      6  N   UNL     1       4.411   5.955  16.670  0.00  0.00    +0.000 NA
ATOM      7  C   UNL     1       5.138   4.832  16.568  0.00  0.00    +0.000 A 
ATOM      8  C   UNL     1       4.747   3.895  17.553  0.00  0.00    +0.000 A 
ATOM      9  C   UNL     1       3.761   4.504  18.317  0.00  0.00    +0.000 A 
ATOM     10  N   UNL     1       2.732   7.006  19.678  0.00  0.00    +0.000 NA
ATOM     11  C   UNL     1       1.947   8.012  20.126  0.00  0.00    +0.000 A 
ENDROOT
BRANCH   9  12
ATOM     12  C   UNL     1       2.922   3.912  19.379  0.00  0.00    +0.000 A 
ATOM     13  C   UNL     1       1.535   3.779  19.199  0.00  0.00    +0.000 A 
ATOM     14  C   UNL     1       0.733   3.200  20.190  0.00  0.00    +0.000 A 
ATOM     15  C   UNL     1       1.312   2.736  21.362  0.00  0.00    +0.000 A 
ATOM     16  F   UNL     1       0.552   2.146  22.291  0.00  0.00    +0.000 F 
ATOM     17  C   UNL     1       2.671   2.885  21.584  0.00  0.00    +0.000 A 
ATOM     18  C   UNL     1       3.460   3.507  20.613  0.00  0.00    +0.000 A 
ENDBRANCH   9  12
BRANCH   1  20
ATOM     19  C   UNL     1      -0.009   9.588  21.588  0.00  0.00    +0.000 C 
ATOM     20  S   UNL     1       0.324  10.186  19.952  0.00  0.00    +0.000 S 
ATOM     21  O   UNL     1      -0.912  10.152  19.195  0.00  0.00    +0.000 OA
ATOM     22  O   UNL     1       1.096  11.409  20.061  0.00  0.00    +0.000 OA
ENDBRANCH   1  20
BRANCH   7  23
ATOM     23  C   UNL     1       6.194   4.626  15.512  0.00  0.00    +0.000 C 
ATOM     24  F   UNL     1       6.120   5.517  14.488  0.00  0.00    +0.000 F 
ATOM     25  F   UNL     1       7.444   4.731  16.031  0.00  0.00    +0.000 F 
ATOM     26  F   UNL     1       6.108   3.385  14.958  0.00  0.00    +0.000 F 
ENDBRANCH   7  23
TORSDOF 3
ENDMDL
MODEL 3
REMARK VINA RESULT:      -8.7      0.745      1.266
REMARK  Name = 
REMARK  4 active torsions:
REMARK  status: ('A' for Active; 'I' for Inactive)
REMARK    1  A    between atoms: C_1  and  S_2
REMARK    2  A    between atoms: S_2  and  C_5
REMARK    3  A    between atoms: C_11  and  C_12
REMARK    4  A    between atoms: C_17  and  C_18
REMARK                            x       y       z     vdW  Elec       q    Type
REMARK                         _______ _______ _______ _____ _____    ______ ____
ROOT
ATOM      1  C   UNL     1       1.218   9.077  19.325  0.00  0.00    +0.000 A 
ATOM      2  C   UNL     1       1.484   9.035  17.961  0.00  0.00    +0.000 A 
ATOM      3  C   UNL     1       2.349   8.057  17.473  0.00  0.00    +0.000 A 
ATOM      4  C   UNL     1       2.871   7.121  18.366  0.00  0.00    +0.000 A 
ATOM      5  N   UNL     1       3.633   6.031  17.835  0.00  0.00    +0.000 N 
ATOM      6  N   UNL     1       4.366   6.221  16.700  0.00  0.00    +0.000 NA
ATOM      7  C   UNL     1       5.130   5.123  16.589  0.00  0.00    +0.000 A 
ATOM      8  C   UNL     1       4.757   4.158  17.554  0.00  0.00    +0.000 A 
ATOM      9  C   UNL     1       3.744   4.723  18.315  0.00  0.00    +0.000 A 
ATOM     10  N   UNL     1       2.620   7.168  19.704  0.00  0.00    +0.000 NA
ATOM     11  C   UNL     1       1.797   8.141  20.158  0.00  0.00    +0.000 A 
ENDROOT
BRANCH   9  12
ATOM     12  C   UNL     1       2.911   4.087  19.357  0.00  0.00    +0.000 A 
ATOM     13  C   UNL     1       1.546   3.850  19.130  0.00  0.00    +0.000 A 
ATOM     14  C   UNL     1       0.752   3.229  20.102  0.00  0.00    +0.000 A 
ATOM     15  C   UNL     1       1.320   2.826  21.302  0.00  0.00    +0.000 A 
ATOM     16  F   UNL     1       0.571   2.196  22.215  0.00  0.00    +0.000 F 
ATOM     17  C   UNL     1       2.655   3.077  21.570  0.00  0.00    +0.000 A 
ATOM     18  C   UNL     1       3.432   3.740  20.616  0.00  0.00    +0.000 A 
ENDBRANCH   9  12
BRANCH   1  20
ATOM     19  C   UNL     1       1.073  11.753  20.019  0.00  0.00    +0.000 C 
ATOM     20  S   UNL     1       0.108  10.265  20.000  0.00  0.00    +0.000 S 
ATOM     21  O   UNL     1      -0.161   9.880  21.372  0.00  0.00    +0.000 OA
ATOM     22  O   UNL     1      -0.973  10.434  19.049  0.00  0.00    +0.000 OA
ENDBRANCH   1  20
BRANCH   7  23
ATOM     23  C   UNL     1       6.204   4.968  15.542  0.00  0.00    +0.000 C 
ATOM     24  F   UNL     1       7.419   5.429  15.937  0.00  0.00    +0.000 F 
ATOM     25  F   UNL     1       6.375   3.667  15.193  0.00  0.00    +0.000 F 
ATOM     26  F   UNL     1       5.884   5.635  14.399  0.00  0.00    +0.000 F 
ENDBRANCH   7  23
TORSDOF 3
ENDMDL
MODEL 4
REMARK VINA RESULT:      -8.5      3.800      5.761
REMARK  Name = 
REMARK  4 active torsions:
REMARK  status: ('A' for Active; 'I' for Inactive)
REMARK    1  A    between atoms: C_1  and  S_2
REMARK    2  A    between atoms: S_2  and  C_5
REMARK    3  A    between atoms: C_11  and  C_12
REMARK    4  A    between atoms: C_17  and  C_18
REMARK                            x       y       z     vdW  Elec       q    Type
REMARK                         _______ _______ _______ _____ _____    ______ ____
ROOT
ATOM      1  C   UNL     1       2.587   4.077  18.888  0.00  0.00    +0.000 A 
ATOM      2  C   UNL     1       2.794   2.942  18.111  0.00  0.00    +0.000 A 
ATOM      3  C   UNL     1       3.620   3.034  16.992  0.00  0.00    +0.000 A 
ATOM      4  C   UNL     1       4.253   4.247  16.726  0.00  0.00    +0.000 A 
ATOM      5  N   UNL     1       5.217   4.290  15.667  0.00  0.00    +0.000 N 
ATOM      6  N   UNL     1       5.058   3.471  14.588  0.00  0.00    +0.000 NA
ATOM      7  C   UNL     1       5.959   3.897  13.689  0.00  0.00    +0.000 A 
ATOM      8  C   UNL     1       6.810   4.872  14.261  0.00  0.00    +0.000 A 
ATOM      9  C   UNL     1       6.369   5.076  15.561  0.00  0.00    +0.000 A 
ATOM     10  N   UNL     1       4.043   5.362  17.480  0.00  0.00    +0.000 NA
ATOM     11  C   UNL     1       3.219   5.256  18.547  0.00  0.00    +0.000 A 
ENDROOT
BRANCH   9  12
ATOM     12  C   UNL     1       6.993   5.882  16.630  0.00  0.00    +0.000 A 
ATOM     13  C   UNL     1       7.501   5.263  17.784  0.00  0.00    +0.000 A 
ATOM     14  C   UNL     1       8.114   6.015  18.793  0.00  0.00    +0.000 A 
ATOM     15  C   UNL     1       8.239   7.389  18.650  0.00  0.00    +0.000 A 
ATOM     16  F   UNL     1       8.861   8.103  19.596  0.00  0.00    +0.000 F 
ATOM     17  C   UNL     1       7.718   8.033  17.541  0.00  0.00    +0.000 A 
ATOM     18  C   UNL     1       7.064   7.284  16.558  0.00  0.00    +0.000 A 
ENDBRANCH   9  12
BRANCH   1  20
ATOM     19  C   UNL     1       2.567   3.076  21.468  0.00  0.00    +0.000 C 
ATOM     20  S   UNL     1       1.585   4.020  20.333  0.00  0.00    +0.000 S 
ATOM     21  O   UNL     1       0.398   3.252  20.011  0.00  0.00    +0.000 OA
ATOM     22  O   UNL     1       1.479   5.375  20.838  0.00  0.00    +0.000 OA
ENDBRANCH   1  20
BRANCH   7  23
ATOM     23  C   UNL     1       6.040   3.358  12.283  0.00  0.00    +0.000 C 
ATOM     24  F   UNL     1       6.078   2.002  12.222  0.00  0.00    +0.000 F 
ATOM     25  F   UNL     1       4.976   3.753  11.537  0.00  0.00    +0.000 F 
ATOM     26  F   UNL     1       7.151   3.811  11.640  0.00  0.00    +0.000 F 
ENDBRANCH   7  23
TORSDOF 3
ENDMDL
MODEL 5
REMARK VINA RESULT:      -8.2      4.127      5.854
REMARK  Name = 
REMARK  4 active torsions:
REMARK  status: ('A' for Active; 'I' for Inactive)
REMARK    1  A    between atoms: C_1  and  S_2
REMARK    2  A    between atoms: S_2  and  C_5
REMARK    3  A    between atoms: C_11  and  C_12
REMARK    4  A    between atoms: C_17  and  C_18
REMARK                            x       y       z     vdW  Elec       q    Type
REMARK                         _______ _______ _______ _____ _____    ______ ____
ROOT
ATOM      1  C   UNL     1       2.784   3.760  18.947  0.00  0.00    +0.000 A 
ATOM      2  C   UNL     1       3.006   2.658  18.129  0.00  0.00    +0.000 A 
ATOM      3  C   UNL     1       3.793   2.812  16.989  0.00  0.00    +0.000 A 
ATOM      4  C   UNL     1       4.377   4.055  16.743  0.00  0.00    +0.000 A 
ATOM      5  N   UNL     1       5.306   4.164  15.659  0.00  0.00    +0.000 N 
ATOM      6  N   UNL     1       5.142   3.373  14.559  0.00  0.00    +0.000 NA
ATOM      7  C   UNL     1       6.000   3.857  13.648  0.00  0.00    +0.000 A 
ATOM      8  C   UNL     1       6.835   4.843  14.225  0.00  0.00    +0.000 A 
ATOM      9  C   UNL     1       6.427   4.992  15.543  0.00  0.00    +0.000 A 
ATOM     10  N   UNL     1       4.152   5.138  17.538  0.00  0.00    +0.000 NA
ATOM     11  C   UNL     1       3.365   4.971  18.625  0.00  0.00    +0.000 A 
ENDROOT
BRANCH   9  12
ATOM     12  C   UNL     1       7.056   5.787  16.618  0.00  0.00    +0.000 A 
ATOM     13  C   UNL     1       7.188   7.179  16.489  0.00  0.00    +0.000 A 
ATOM     14  C   UNL     1       7.763   7.944  17.511  0.00  0.00    +0.000 A 
ATOM     15  C   UNL     1       8.196   7.327  18.676  0.00  0.00    +0.000 A 
ATOM     16  F   UNL     1       8.708   8.063  19.669  0.00  0.00    +0.000 F 
ATOM     17  C   UNL     1       8.111   5.952  18.819  0.00  0.00    +0.000 A 
ATOM     18  C   UNL     1       7.580   5.186  17.777  0.00  0.00    +0.000 A 
ENDBRANCH   9  12
BRANCH   1  20
ATOM     19  C   UNL     1       1.543   5.315  20.871  0.00  0.00    +0.000 C 
ATOM     20  S   UNL     1       1.829   3.625  20.418  0.00  0.00    +0.000 S 
ATOM     21  O   UNL     1       2.671   3.019  21.431  0.00  0.00    +0.000 OA
ATOM     22  O   UNL     1       0.558   3.029  20.054  0.00  0.00    +0.000 OA
ENDBRANCH   1  20
BRANCH   7  23
ATOM     23  C   UNL     1       6.057   3.365  12.224  0.00  0.00    +0.000 C 
ATOM     24  F   UNL     1       6.155   2.013  12.119  0.00  0.00    +0.000 F 
ATOM     25  F   UNL     1       4.950   3.730  11.527  0.00  0.00    +0.000 F 
ATOM     26  F   UNL     1       7.123   3.888  11.558  0.00  0.00    +0.000 F 
ENDBRANCH   7  23
TORSDOF 3
ENDMDL
MODEL 6
REMARK VINA RESULT:      -8.2      4.030      5.902
REMARK  Name = 
REMARK  4 active torsions:
REMARK  status: ('A' for Active; 'I' for Inactive)
REMARK    1  A    between atoms: C_1  and  S_2
REMARK    2  A    between atoms: S_2  and  C_5
REMARK    3  A    between atoms: C_11  and  C_12
REMARK    4  A    between atoms: C_17  and  C_18
REMARK                            x       y       z     vdW  Elec       q    Type
REMARK                         _______ _______ _______ _____ _____    ______ ____
ROOT
ATOM      1  C   UNL     1       3.139   3.722  19.429  0.00  0.00    +0.000 A 
ATOM      2  C   UNL     1       3.360   2.626  18.602  0.00  0.00    +0.000 A 
ATOM      3  C   UNL     1       4.045   2.814  17.403  0.00  0.00    +0.000 A 
ATOM      4  C   UNL     1       4.534   4.085  17.105  0.00  0.00    +0.000 A 
ATOM      5  N   UNL     1       5.367   4.236  15.950  0.00  0.00    +0.000 N 
ATOM      6  N   UNL     1       5.164   3.426  14.871  0.00  0.00    +0.000 NA
ATOM      7  C   UNL     1       5.918   3.949  13.892  0.00  0.00    +0.000 A 
ATOM      8  C   UNL     1       6.737   4.988  14.396  0.00  0.00    +0.000 A 
ATOM      9  C   UNL     1       6.425   5.126  15.742  0.00  0.00    +0.000 A 
ATOM     10  N   UNL     1       4.310   5.162  17.908  0.00  0.00    +0.000 NA
ATOM     11  C   UNL     1       3.621   4.961  19.055  0.00  0.00    +0.000 A 
ENDROOT
BRANCH   9  12
ATOM     12  C   UNL     1       7.090   5.967  16.759  0.00  0.00    +0.000 A 
ATOM     13  C   UNL     1       7.250   7.346  16.548  0.00  0.00    +0.000 A 
ATOM     14  C   UNL     1       7.858   8.155  17.515  0.00  0.00    +0.000 A 
ATOM     15  C   UNL     1       8.297   7.596  18.706  0.00  0.00    +0.000 A 
ATOM     16  F   UNL     1       8.842   8.377  19.647  0.00  0.00    +0.000 F 
ATOM     17  C   UNL     1       8.185   6.234  18.929  0.00  0.00    +0.000 A 
ATOM     18  C   UNL     1       7.621   5.422  17.941  0.00  0.00    +0.000 A 
ENDBRANCH   9  12
BRANCH   1  20
ATOM     19  C   UNL     1       0.721   2.916  20.507  0.00  0.00    +0.000 C 
ATOM     20  S   UNL     1       2.311   3.547  20.972  0.00  0.00    +0.000 S 
ATOM     21  O   UNL     1       2.131   4.875  21.523  0.00  0.00    +0.000 OA
ATOM     22  O   UNL     1       3.009   2.520  21.721  0.00  0.00    +0.000 OA
ENDBRANCH   1  20
BRANCH   7  23
ATOM     23  C   UNL     1       5.891   3.446  12.471  0.00  0.00    +0.000 C 
ATOM     24  F   UNL     1       6.830   4.019  11.673  0.00  0.00    +0.000 F 
ATOM     25  F   UNL     1       6.097   2.105  12.414  0.00  0.00    +0.000 F 
ATOM     26  F   UNL     1       4.685   3.677  11.885  0.00  0.00    +0.000 F 
ENDBRANCH   7  23
TORSDOF 3
ENDMDL
MODEL 7
REMARK VINA RESULT:      -7.8      2.088      5.358
REMARK  Name = 
REMARK  4 active torsions:
REMARK  status: ('A' for Active; 'I' for Inactive)
REMARK    1  A    between atoms: C_1  and  S_2
REMARK    2  A    between atoms: S_2  and  C_5
REMARK    3  A    between atoms: C_11  and  C_12
REMARK    4  A    between atoms: C_17  and  C_18
REMARK                            x       y       z     vdW  Elec       q    Type
REMARK                         _______ _______ _______ _____ _____    ______ ____
ROOT
ATOM      1  C   UNL     1       1.532   9.669  19.204  0.00  0.00    +0.000 A 
ATOM      2  C   UNL     1       1.199   9.070  20.414  0.00  0.00    +0.000 A 
ATOM      3  C   UNL     1       1.511   7.726  20.608  0.00  0.00    +0.000 A 
ATOM      4  C   UNL     1       2.197   7.047  19.602  0.00  0.00    +0.000 A 
ATOM      5  N   UNL     1       2.648   5.715  19.871  0.00  0.00    +0.000 N 
ATOM      6  N   UNL     1       1.924   4.923  20.714  0.00  0.00    +0.000 NA
ATOM      7  C   UNL     1       2.453   3.696  20.584  0.00  0.00    +0.000 A 
ATOM      8  C   UNL     1       3.625   3.741  19.793  0.00  0.00    +0.000 A 
ATOM      9  C   UNL     1       3.785   5.059  19.388  0.00  0.00    +0.000 A 
ATOM     10  N   UNL     1       2.515   7.629  18.413  0.00  0.00    +0.000 NA
ATOM     11  C   UNL     1       2.180   8.928  18.236  0.00  0.00    +0.000 A 
ENDROOT
BRANCH   9  12
ATOM     12  C   UNL     1       4.921   5.670  18.668  0.00  0.00    +0.000 A 
ATOM     13  C   UNL     1       4.733   6.246  17.400  0.00  0.00    +0.000 A 
ATOM     14  C   UNL     1       5.799   6.846  16.718  0.00  0.00    +0.000 A 
ATOM     15  C   UNL     1       7.055   6.890  17.304  0.00  0.00    +0.000 A 
ATOM     16  F   UNL     1       8.064   7.500  16.670  0.00  0.00    +0.000 F 
ATOM     17  C   UNL     1       7.280   6.301  18.536  0.00  0.00    +0.000 A 
ATOM     18  C   UNL     1       6.226   5.660  19.192  0.00  0.00    +0.000 A 
ENDBRANCH   9  12
BRANCH   1  20
ATOM     19  C   UNL     1       1.244  12.080  20.534  0.00  0.00    +0.000 C 
ATOM     20  S   UNL     1       1.198  11.372  18.909  0.00  0.00    +0.000 S 
ATOM     21  O   UNL     1      -0.159  11.469  18.408  0.00  0.00    +0.000 OA
ATOM     22  O   UNL     1       2.311  11.904  18.147  0.00  0.00    +0.000 OA
ENDBRANCH   1  20
BRANCH   7  23
ATOM     23  C   UNL     1       1.865   2.471  21.238  0.00  0.00    +0.000 C 
ATOM     24  F   UNL     1       0.779   2.735  22.010  0.00  0.00    +0.000 F 
ATOM     25  F   UNL     1       1.475   1.555  20.315  0.00  0.00    +0.000 F 
ATOM     26  F   UNL     1       2.774   1.850  22.039  0.00  0.00    +0.000 F 
ENDBRANCH   7  23
TORSDOF 3
ENDMDL
MODEL 8
REMARK VINA RESULT:      -7.5      1.991      5.261
REMARK  Name = 
REMARK  4 active torsions:
REMARK  status: ('A' for Active; 'I' for Inactive)
REMARK    1  A    between atoms: C_1  and  S_2
REMARK    2  A    between atoms: S_2  and  C_5
REMARK    3  A    between atoms: C_11  and  C_12
REMARK    4  A    between atoms: C_17  and  C_18
REMARK                            x       y       z     vdW  Elec       q    Type
REMARK                         _______ _______ _______ _____ _____    ______ ____
ROOT
ATOM      1  C   UNL     1       1.543   9.680  19.352  0.00  0.00    +0.000 A 
ATOM      2  C   UNL     1       1.211   9.048  20.546  0.00  0.00    +0.000 A 
ATOM      3  C   UNL     1       1.512   7.696  20.698  0.00  0.00    +0.000 A 
ATOM      4  C   UNL     1       2.187   7.041  19.668  0.00  0.00    +0.000 A 
ATOM      5  N   UNL     1       2.627   5.697  19.894  0.00  0.00    +0.000 N 
ATOM      6  N   UNL     1       1.901   4.887  20.718  0.00  0.00    +0.000 NA
ATOM      7  C   UNL     1       2.418   3.660  20.548  0.00  0.00    +0.000 A 
ATOM      8  C   UNL     1       3.586   3.718  19.752  0.00  0.00    +0.000 A 
ATOM      9  C   UNL     1       3.756   5.046  19.386  0.00  0.00    +0.000 A 
ATOM     10  N   UNL     1       2.503   7.655  18.495  0.00  0.00    +0.000 NA
ATOM     11  C   UNL     1       2.179   8.962  18.359  0.00  0.00    +0.000 A 
ENDROOT
BRANCH   9  12
ATOM     12  C   UNL     1       4.893   5.668  18.677  0.00  0.00    +0.000 A 
ATOM     13  C   UNL     1       4.709   6.258  17.416  0.00  0.00    +0.000 A 
ATOM     14  C   UNL     1       5.776   6.869  16.745  0.00  0.00    +0.000 A 
ATOM     15  C   UNL     1       7.030   6.910  17.336  0.00  0.00    +0.000 A 
ATOM     16  F   UNL     1       8.039   7.529  16.714  0.00  0.00    +0.000 F 
ATOM     17  C   UNL     1       7.251   6.307  18.563  0.00  0.00    +0.000 A 
ATOM     18  C   UNL     1       6.195   5.656  19.207  0.00  0.00    +0.000 A 
ENDBRANCH   9  12
BRANCH   1  20
ATOM     19  C   UNL     1      -0.439  11.409  18.492  0.00  0.00    +0.000 C 
ATOM     20  S   UNL     1       1.223  11.393  19.110  0.00  0.00    +0.000 S 
ATOM     21  O   UNL     1       2.104  11.857  18.056  0.00  0.00    +0.000 OA
ATOM     22  O   UNL     1       1.230  12.022  20.416  0.00  0.00    +0.000 OA
ENDBRANCH   1  20
BRANCH   7  23
ATOM     23  C   UNL     1       1.823   2.421  21.168  0.00  0.00    +0.000 C 
ATOM     24  F   UNL     1       2.665   1.782  22.022  0.00  0.00    +0.000 F 
ATOM     25  F   UNL     1       0.698   2.709  21.872  0.00  0.00    +0.000 F 
ATOM     26  F   UNL     1       1.464   1.513  20.220  0.00  0.00    +0.000 F 
ENDBRANCH   7  23
TORSDOF 3
ENDMDL
MODEL 9
REMARK VINA RESULT:      -7.5      2.009      5.235
REMARK  Name = 
REMARK  4 active torsions:
REMARK  status: ('A' for Active; 'I' for Inactive)
REMARK    1  A    between atoms: C_1  and  S_2
REMARK    2  A    between atoms: S_2  and  C_5
REMARK    3  A    between atoms: C_11  and  C_12
REMARK    4  A    between atoms: C_17  and  C_18
REMARK                            x       y       z     vdW  Elec       q    Type
REMARK                         _______ _______ _______ _____ _____    ______ ____
ROOT
ATOM      1  C   UNL     1       1.452   9.699  19.375  0.00  0.00    +0.000 A 
ATOM      2  C   UNL     1       1.154   9.074  20.581  0.00  0.00    +0.000 A 
ATOM      3  C   UNL     1       1.468   7.725  20.737  0.00  0.00    +0.000 A 
ATOM      4  C   UNL     1       2.122   7.067  19.696  0.00  0.00    +0.000 A 
ATOM      5  N   UNL     1       2.578   5.728  19.922  0.00  0.00    +0.000 N 
ATOM      6  N   UNL     1       1.877   4.920  20.769  0.00  0.00    +0.000 NA
ATOM      7  C   UNL     1       2.399   3.695  20.597  0.00  0.00    +0.000 A 
ATOM      8  C   UNL     1       3.547   3.755  19.771  0.00  0.00    +0.000 A 
ATOM      9  C   UNL     1       3.698   5.081  19.391  0.00  0.00    +0.000 A 
ATOM     10  N   UNL     1       2.405   7.674  18.510  0.00  0.00    +0.000 NA
ATOM     11  C   UNL     1       2.069   8.977  18.372  0.00  0.00    +0.000 A 
ENDROOT
BRANCH   9  12
ATOM     12  C   UNL     1       4.813   5.706  18.650  0.00  0.00    +0.000 A 
ATOM     13  C   UNL     1       6.108   5.724  19.195  0.00  0.00    +0.000 A 
ATOM     14  C   UNL     1       7.176   6.294  18.491  0.00  0.00    +0.000 A 
ATOM     15  C   UNL     1       6.963   6.835  17.232  0.00  0.00    +0.000 A 
ATOM     16  F   UNL     1       7.991   7.343  16.543  0.00  0.00    +0.000 F 
ATOM     17  C   UNL     1       5.692   6.863  16.683  0.00  0.00    +0.000 A 
ATOM     18  C   UNL     1       4.620   6.337  17.409  0.00  0.00    +0.000 A 
ENDBRANCH   9  12
BRANCH   1  20
ATOM     19  C   UNL     1       2.398  11.916  18.017  0.00  0.00    +0.000 C 
ATOM     20  S   UNL     1       1.113  11.408  19.127  0.00  0.00    +0.000 S 
ATOM     21  O   UNL     1       1.314  12.081  20.395  0.00  0.00    +0.000 OA
ATOM     22  O   UNL     1      -0.155  11.499  18.430  0.00  0.00    +0.000 OA
ENDBRANCH   1  20
BRANCH   7  23
ATOM     23  C   UNL     1       1.828   2.457  21.241  0.00  0.00    +0.000 C 
ATOM     24  F   UNL     1       0.737   2.700  22.013  0.00  0.00    +0.000 F 
ATOM     25  F   UNL     1       1.453   1.541  20.312  0.00  0.00    +0.000 F 
ATOM     26  F   UNL     1       2.745   1.844  22.039  0.00  0.00    +0.000 F 
ENDBRANCH   7  23
TORSDOF 3
ENDMDL
