MODEL 1
REMARK VINA RESULT:      -6.7      0.000      0.000
REMARK  Name = 
REMARK  13 active torsions:
REMARK  status: ('A' for Active; 'I' for Inactive)
REMARK    1  A    between atoms: C_1  and  O_2
REMARK    2  A    between atoms: O_2  and  C_3
REMARK    3  A    between atoms: C_3  and  C_5
REMARK    4  A    between atoms: C_5  and  C_6
REMARK    5  A    between atoms: C_5  and  C_16
REMARK    6  A    between atoms: C_6  and  N_7
REMARK    7  A    between atoms: C_8  and  C_10
REMARK    8  A    between atoms: C_10  and  N_11
REMARK    9  A    between atoms: C_10  and  C_12
REMARK   10  A    between atoms: C_12  and  C_13
REMARK   11  A    between atoms: C_13  and  O_15
REMARK   12  A    between atoms: C_16  and  O_18
REMARK   13  A    between atoms: O_18  and  C_19
REMARK                            x       y       z     vdW  Elec       q    Type
REMARK                         _______ _______ _______ _____ _____    ______ ____
ROOT
ATOM      1  C   UNL     1       5.017   4.097  16.410  0.00  0.00    +0.000 C 
ENDROOT
BRANCH   1   2
ATOM      2  N   UNL     1       4.558   3.225  17.497  0.00  0.00    +0.000 N 
ATOM      3  C   UNL     1       3.260   2.780  17.630  0.00  0.00    +0.000 C 
ATOM      4  O   UNL     1       2.370   3.067  16.830  0.00  0.00    +0.000 OA
ATOM      5  H   UNL     1       5.269   2.691  18.002  0.00  0.00    +0.000 HD
BRANCH   3   6
ATOM      6  C   UNL     1       3.011   1.864  18.854  0.00  0.00    +0.000 C 
BRANCH   6   7
ATOM      7  N   UNL     1       1.550   1.632  18.967  0.00  0.00    +0.000 NA
ATOM      8  H   UNL     1       1.106   1.806  18.062  0.00  0.00    +0.000 HD
ATOM      9  H   UNL     1       1.146   2.323  19.602  0.00  0.00    +0.000 HD
ENDBRANCH   6   7
BRANCH   6  10
ATOM     10  C   UNL     1       3.548   2.452  20.161  0.00  0.00    +0.000 C 
BRANCH  10  11
ATOM     11  C   UNL     1       2.488   3.149  20.971  0.00  0.00    +0.000 C 
ATOM     12  O   UNL     1       2.038   4.249  20.691  0.00  0.00    +0.000 OA
BRANCH  11  13
ATOM     13  O   UNL     1       2.094   2.462  22.066  0.00  0.00    +0.000 OA
ATOM     14  H   UNL     1       2.340   1.510  22.029  0.00  0.00    +0.000 HD
ENDBRANCH  11  13
ENDBRANCH  10  11
ENDBRANCH   6  10
ENDBRANCH   3   6
ENDBRANCH   1   2
BRANCH   1  15
ATOM     15  C   UNL     1       5.028   5.587  16.784  0.00  0.00    +0.000 C 
BRANCH  15  16
ATOM     16  C   UNL     1       6.452   6.070  16.829  0.00  0.00    +0.000 C 
ATOM     17  O   UNL     1       7.441   5.344  16.755  0.00  0.00    +0.000 OA
BRANCH  16  19
ATOM     18  C   UNL     1       7.688   7.910  17.558  0.00  0.00    +0.000 C 
ATOM     19  O   UNL     1       6.513   7.429  16.900  0.00  0.00    +0.000 OA
ENDBRANCH  16  19
ENDBRANCH  15  16
BRANCH  15  20
ATOM     20  C   UNL     1       4.367   5.810  18.130  0.00  0.00    +0.000 C 
ATOM     21  O   UNL     1       4.934   5.629  19.195  0.00  0.00    +0.000 OA
BRANCH  20  22
ATOM     22  O   UNL     1       3.085   6.286  18.007  0.00  0.00    +0.000 OA
BRANCH  22  23
ATOM     23  C   UNL     1       2.856   7.597  18.564  0.00  0.00    +0.000 C 
ATOM     24  C   UNL     1       1.981   8.455  17.654  0.00  0.00    +0.000 C 
ATOM     25  C   UNL     1       1.355   9.489  18.576  0.00  0.00    +0.000 C 
ATOM     26  C   UNL     1       1.275   8.843  19.955  0.00  0.00    +0.000 C 
ATOM     27  C   UNL     1       2.068   7.537  19.877  0.00  0.00    +0.000 C 
ENDBRANCH  22  23
ENDBRANCH  20  22
ENDBRANCH  15  20
ENDBRANCH   1  15
TORSDOF 12
ENDMDL
MODEL 2
REMARK VINA RESULT:      -6.6      2.126      4.738
REMARK  Name = 
REMARK  13 active torsions:
REMARK  status: ('A' for Active; 'I' for Inactive)
REMARK    1  A    between atoms: C_1  and  O_2
REMARK    2  A    between atoms: O_2  and  C_3
REMARK    3  A    between atoms: C_3  and  C_5
REMARK    4  A    between atoms: C_5  and  C_6
REMARK    5  A    between atoms: C_5  and  C_16
REMARK    6  A    between atoms: C_6  and  N_7
REMARK    7  A    between atoms: C_8  and  C_10
REMARK    8  A    between atoms: C_10  and  N_11
REMARK    9  A    between atoms: C_10  and  C_12
REMARK   10  A    between atoms: C_12  and  C_13
REMARK   11  A    between atoms: C_13  and  O_15
REMARK   12  A    between atoms: C_16  and  O_18
REMARK   13  A    between atoms: O_18  and  C_19
REMARK                            x       y       z     vdW  Elec       q    Type
REMARK                         _______ _______ _______ _____ _____    ______ ____
ROOT
ATOM      1  C   UNL     1       4.135   3.478  16.977  0.00  0.00    +0.000 C 
ENDROOT
BRANCH   1   2
ATOM      2  N   UNL     1       2.935   3.257  17.793  0.00  0.00    +0.000 N 
ATOM      3  C   UNL     1       2.803   2.231  18.705  0.00  0.00    +0.000 C 
ATOM      4  O   UNL     1       3.697   1.414  18.926  0.00  0.00    +0.000 OA
ATOM      5  H   UNL     1       2.296   4.046  17.911  0.00  0.00    +0.000 HD
BRANCH   3   6
ATOM      6  C   UNL     1       1.448   2.201  19.455  0.00  0.00    +0.000 C 
BRANCH   6   7
ATOM      7  N   UNL     1       0.378   1.928  18.464  0.00  0.00    +0.000 NA
ATOM      8  H   UNL     1      -0.395   2.583  18.608  0.00  0.00    +0.000 HD
ATOM      9  H   UNL     1      -0.017   1.002  18.639  0.00  0.00    +0.000 HD
ENDBRANCH   6   7
BRANCH   6  10
ATOM     10  C   UNL     1       1.148   3.503  20.201  0.00  0.00    +0.000 C 
BRANCH  10  11
ATOM     11  C   UNL     1       2.102   3.763  21.336  0.00  0.00    +0.000 C 
ATOM     12  O   UNL     1       2.418   2.919  22.160  0.00  0.00    +0.000 OA
BRANCH  11  13
ATOM     13  O   UNL     1       2.560   5.034  21.388  0.00  0.00    +0.000 OA
ATOM     14  H   UNL     1       2.728   5.343  22.306  0.00  0.00    +0.000 HD
ENDBRANCH  11  13
ENDBRANCH  10  11
ENDBRANCH   6  10
ENDBRANCH   3   6
ENDBRANCH   1   2
BRANCH   1  15
ATOM     15  C   UNL     1       5.271   4.178  17.737  0.00  0.00    +0.000 C 
BRANCH  15  16
ATOM     16  C   UNL     1       4.704   5.348  18.495  0.00  0.00    +0.000 C 
ATOM     17  O   UNL     1       4.953   5.609  19.670  0.00  0.00    +0.000 OA
BRANCH  16  19
ATOM     18  C   UNL     1       3.060   7.002  18.425  0.00  0.00    +0.000 C 
ATOM     19  O   UNL     1       3.921   6.125  17.695  0.00  0.00    +0.000 OA
ENDBRANCH  16  19
ENDBRANCH  15  16
BRANCH  15  20
ATOM     20  C   UNL     1       6.344   4.659  16.780  0.00  0.00    +0.000 C 
ATOM     21  O   UNL     1       7.519   4.769  17.090  0.00  0.00    +0.000 OA
BRANCH  20  22
ATOM     22  O   UNL     1       5.849   4.901  15.523  0.00  0.00    +0.000 OA
BRANCH  22  23
ATOM     23  C   UNL     1       6.465   4.146  14.459  0.00  0.00    +0.000 C 
ATOM     24  C   UNL     1       5.433   3.636  13.455  0.00  0.00    +0.000 C 
ATOM     25  C   UNL     1       6.215   3.419  12.169  0.00  0.00    +0.000 C 
ATOM     26  C   UNL     1       7.383   4.400  12.206  0.00  0.00    +0.000 C 
ATOM     27  C   UNL     1       7.407   5.006  13.610  0.00  0.00    +0.000 C 
ENDBRANCH  22  23
ENDBRANCH  20  22
ENDBRANCH  15  20
ENDBRANCH   1  15
TORSDOF 12
ENDMDL
MODEL 3
REMARK VINA RESULT:      -6.6      1.482      1.835
REMARK  Name = 
REMARK  13 active torsions:
REMARK  status: ('A' for Active; 'I' for Inactive)
REMARK    1  A    between atoms: C_1  and  O_2
REMARK    2  A    between atoms: O_2  and  C_3
REMARK    3  A    between atoms: C_3  and  C_5
REMARK    4  A    between atoms: C_5  and  C_6
REMARK    5  A    between atoms: C_5  and  C_16
REMARK    6  A    between atoms: C_6  and  N_7
REMARK    7  A    between atoms: C_8  and  C_10
REMARK    8  A    between atoms: C_10  and  N_11
REMARK    9  A    between atoms: C_10  and  C_12
REMARK   10  A    between atoms: C_12  and  C_13
REMARK   11  A    between atoms: C_13  and  O_15
REMARK   12  A    between atoms: C_16  and  O_18
REMARK   13  A    between atoms: O_18  and  C_19
REMARK                            x       y       z     vdW  Elec       q    Type
REMARK                         _______ _______ _______ _____ _____    ______ ____
ROOT
ATOM      1  C   UNL     1       5.128   3.710  16.357  0.00  0.00    +0.000 C 
ENDROOT
BRANCH   1   2
ATOM      2  N   UNL     1       4.911   3.423  17.779  0.00  0.00    +0.000 N 
ATOM      3  C   UNL     1       3.814   2.746  18.268  0.00  0.00    +0.000 C 
ATOM      4  O   UNL     1       2.922   2.306  17.544  0.00  0.00    +0.000 OA
ATOM      5  H   UNL     1       5.727   3.459  18.395  0.00  0.00    +0.000 HD
BRANCH   3   6
ATOM      6  C   UNL     1       3.803   2.555  19.806  0.00  0.00    +0.000 C 
BRANCH   6   7
ATOM      7  N   UNL     1       4.929   1.659  20.167  0.00  0.00    +0.000 NA
ATOM      8  H   UNL     1       4.621   0.996  20.884  0.00  0.00    +0.000 HD
ATOM      9  H   UNL     1       5.670   2.207  20.609  0.00  0.00    +0.000 HD
ENDBRANCH   6   7
BRANCH   6  10
ATOM     10  C   UNL     1       2.487   1.974  20.327  0.00  0.00    +0.000 C 
BRANCH  10  11
ATOM     11  C   UNL     1       1.724   2.936  21.198  0.00  0.00    +0.000 C 
ATOM     12  O   UNL     1       2.033   3.194  22.351  0.00  0.00    +0.000 OA
BRANCH  11  13
ATOM     13  O   UNL     1       0.636   3.471  20.602  0.00  0.00    +0.000 OA
ATOM     14  H   UNL     1       0.689   3.451  19.619  0.00  0.00    +0.000 HD
ENDBRANCH  11  13
ENDBRANCH  10  11
ENDBRANCH   6  10
ENDBRANCH   3   6
ENDBRANCH   1   2
BRANCH   1  15
ATOM     15  C   UNL     1       6.008   4.944  16.109  0.00  0.00    +0.000 C 
BRANCH  15  16
ATOM     16  C   UNL     1       7.123   4.961  17.120  0.00  0.00    +0.000 C 
ATOM     17  O   UNL     1       8.103   4.219  17.095  0.00  0.00    +0.000 OA
BRANCH  16  19
ATOM     18  C   UNL     1       7.687   5.745  19.243  0.00  0.00    +0.000 C 
ATOM     19  O   UNL     1       6.944   5.949  18.040  0.00  0.00    +0.000 OA
ENDBRANCH  16  19
ENDBRANCH  15  16
BRANCH  15  20
ATOM     20  C   UNL     1       5.194   6.219  16.222  0.00  0.00    +0.000 C 
ATOM     21  O   UNL     1       5.553   7.288  15.758  0.00  0.00    +0.000 OA
BRANCH  20  22
ATOM     22  O   UNL     1       3.994   6.013  16.856  0.00  0.00    +0.000 OA
BRANCH  22  23
ATOM     23  C   UNL     1       3.695   6.934  17.927  0.00  0.00    +0.000 C 
ATOM     24  C   UNL     1       2.628   7.947  17.522  0.00  0.00    +0.000 C 
ATOM     25  C   UNL     1       2.013   8.411  18.833  0.00  0.00    +0.000 C 
ATOM     26  C   UNL     1       2.172   7.254  19.814  0.00  0.00    +0.000 C 
ATOM     27  C   UNL     1       3.085   6.227  19.142  0.00  0.00    +0.000 C 
ENDBRANCH  22  23
ENDBRANCH  20  22
ENDBRANCH  15  20
ENDBRANCH   1  15
TORSDOF 12
ENDMDL
MODEL 4
REMARK VINA RESULT:      -6.5      2.650      4.965
REMARK  Name = 
REMARK  13 active torsions:
REMARK  status: ('A' for Active; 'I' for Inactive)
REMARK    1  A    between atoms: C_1  and  O_2
REMARK    2  A    between atoms: O_2  and  C_3
REMARK    3  A    between atoms: C_3  and  C_5
REMARK    4  A    between atoms: C_5  and  C_6
REMARK    5  A    between atoms: C_5  and  C_16
REMARK    6  A    between atoms: C_6  and  N_7
REMARK    7  A    between atoms: C_8  and  C_10
REMARK    8  A    between atoms: C_10  and  N_11
REMARK    9  A    between atoms: C_10  and  C_12
REMARK   10  A    between atoms: C_12  and  C_13
REMARK   11  A    between atoms: C_13  and  O_15
REMARK   12  A    between atoms: C_16  and  O_18
REMARK   13  A    between atoms: O_18  and  C_19
REMARK                            x       y       z     vdW  Elec       q    Type
REMARK                         _______ _______ _______ _____ _____    ______ ____
ROOT
ATOM      1  C   UNL     1       5.277   6.618  16.912  0.00  0.00    +0.000 C 
ENDROOT
BRANCH   1   2
ATOM      2  N   UNL     1       4.106   6.147  17.661  0.00  0.00    +0.000 N 
ATOM      3  C   UNL     1       3.541   4.900  17.501  0.00  0.00    +0.000 C 
ATOM      4  O   UNL     1       3.987   4.059  16.720  0.00  0.00    +0.000 OA
ATOM      5  H   UNL     1       3.879   6.634  18.531  0.00  0.00    +0.000 HD
BRANCH   3   6
ATOM      6  C   UNL     1       2.314   4.623  18.405  0.00  0.00    +0.000 C 
BRANCH   6   7
ATOM      7  N   UNL     1       2.348   5.584  19.536  0.00  0.00    +0.000 NA
ATOM      8  H   UNL     1       1.675   5.293  20.250  0.00  0.00    +0.000 HD
ATOM      9  H   UNL     1       2.022   6.497  19.214  0.00  0.00    +0.000 HD
ENDBRANCH   6   7
BRANCH   6  10
ATOM     10  C   UNL     1       2.276   3.190  18.940  0.00  0.00    +0.000 C 
BRANCH  10  11
ATOM     11  C   UNL     1       0.884   2.725  19.275  0.00  0.00    +0.000 C 
ATOM     12  O   UNL     1       0.175   2.100  18.502  0.00  0.00    +0.000 OA
BRANCH  11  13
ATOM     13  O   UNL     1       0.466   3.089  20.508  0.00  0.00    +0.000 OA
ATOM     14  H   UNL     1      -0.335   3.659  20.488  0.00  0.00    +0.000 HD
ENDBRANCH  11  13
ENDBRANCH  10  11
ENDBRANCH   6  10
ENDBRANCH   3   6
ENDBRANCH   1   2
BRANCH   1  15
ATOM     15  C   UNL     1       6.603   6.033  17.421  0.00  0.00    +0.000 C 
BRANCH  15  16
ATOM     16  C   UNL     1       7.532   7.163  17.774  0.00  0.00    +0.000 C 
ATOM     17  O   UNL     1       7.559   8.253  17.205  0.00  0.00    +0.000 OA
BRANCH  16  19
ATOM     18  C   UNL     1       7.737   5.835  19.681  0.00  0.00    +0.000 C 
ATOM     19  O   UNL     1       8.304   6.852  18.852  0.00  0.00    +0.000 OA
ENDBRANCH  16  19
ENDBRANCH  15  16
BRANCH  15  20
ATOM     20  C   UNL     1       7.244   5.152  16.367  0.00  0.00    +0.000 C 
ATOM     21  O   UNL     1       7.981   4.217  16.631  0.00  0.00    +0.000 OA
BRANCH  20  22
ATOM     22  O   UNL     1       6.858   5.499  15.096  0.00  0.00    +0.000 OA
BRANCH  22  23
ATOM     23  C   UNL     1       7.000   4.462  14.102  0.00  0.00    +0.000 C 
ATOM     24  C   UNL     1       5.646   3.909  13.663  0.00  0.00    +0.000 C 
ATOM     25  C   UNL     1       5.894   3.325  12.281  0.00  0.00    +0.000 C 
ATOM     26  C   UNL     1       7.051   4.117  11.681  0.00  0.00    +0.000 C 
ATOM     27  C   UNL     1       7.619   4.989  12.802  0.00  0.00    +0.000 C 
ENDBRANCH  22  23
ENDBRANCH  20  22
ENDBRANCH  15  20
ENDBRANCH   1  15
TORSDOF 12
ENDMDL
MODEL 5
REMARK VINA RESULT:      -6.4      3.134      5.708
REMARK  Name = 
REMARK  13 active torsions:
REMARK  status: ('A' for Active; 'I' for Inactive)
REMARK    1  A    between atoms: C_1  and  O_2
REMARK    2  A    between atoms: O_2  and  C_3
REMARK    3  A    between atoms: C_3  and  C_5
REMARK    4  A    between atoms: C_5  and  C_6
REMARK    5  A    between atoms: C_5  and  C_16
REMARK    6  A    between atoms: C_6  and  N_7
REMARK    7  A    between atoms: C_8  and  C_10
REMARK    8  A    between atoms: C_10  and  N_11
REMARK    9  A    between atoms: C_10  and  C_12
REMARK   10  A    between atoms: C_12  and  C_13
REMARK   11  A    between atoms: C_13  and  O_15
REMARK   12  A    between atoms: C_16  and  O_18
REMARK   13  A    between atoms: O_18  and  C_19
REMARK                            x       y       z     vdW  Elec       q    Type
REMARK                         _______ _______ _______ _____ _____    ______ ____
ROOT
ATOM      1  C   UNL     1       5.527   6.458  16.034  0.00  0.00    +0.000 C 
ENDROOT
BRANCH   1   2
ATOM      2  N   UNL     1       5.591   5.398  15.022  0.00  0.00    +0.000 N 
ATOM      3  C   UNL     1       6.743   5.040  14.355  0.00  0.00    +0.000 C 
ATOM      4  O   UNL     1       7.832   5.574  14.567  0.00  0.00    +0.000 OA
ATOM      5  H   UNL     1       4.839   4.706  15.019  0.00  0.00    +0.000 HD
BRANCH   3   6
ATOM      6  C   UNL     1       6.570   3.888  13.334  0.00  0.00    +0.000 C 
BRANCH   6   7
ATOM      7  N   UNL     1       7.215   4.298  12.062  0.00  0.00    +0.000 NA
ATOM      8  H   UNL     1       7.094   3.559  11.364  0.00  0.00    +0.000 HD
ATOM      9  H   UNL     1       8.224   4.374  12.202  0.00  0.00    +0.000 HD
ENDBRANCH   6   7
BRANCH   6  10
ATOM     10  C   UNL     1       5.105   3.526  13.083  0.00  0.00    +0.000 C 
BRANCH  10  11
ATOM     11  C   UNL     1       4.877   2.901  11.732  0.00  0.00    +0.000 C 
ATOM     12  O   UNL     1       4.070   3.323  10.920  0.00  0.00    +0.000 OA
BRANCH  11  13
ATOM     13  O   UNL     1       5.627   1.799  11.505  0.00  0.00    +0.000 OA
ATOM     14  H   UNL     1       6.235   1.590  12.249  0.00  0.00    +0.000 HD
ENDBRANCH  11  13
ENDBRANCH  10  11
ENDBRANCH   6  10
ENDBRANCH   3   6
ENDBRANCH   1   2
BRANCH   1  15
ATOM     15  C   UNL     1       5.154   5.946  17.433  0.00  0.00    +0.000 C 
BRANCH  15  16
ATOM     16  C   UNL     1       6.414   5.707  18.219  0.00  0.00    +0.000 C 
ATOM     17  O   UNL     1       6.483   5.037  19.248  0.00  0.00    +0.000 OA
BRANCH  16  19
ATOM     18  C   UNL     1       8.096   7.314  18.388  0.00  0.00    +0.000 C 
ATOM     19  O   UNL     1       7.493   6.276  17.612  0.00  0.00    +0.000 OA
ENDBRANCH  16  19
ENDBRANCH  15  16
BRANCH  15  20
ATOM     20  C   UNL     1       4.354   4.661  17.342  0.00  0.00    +0.000 C 
ATOM     21  O   UNL     1       4.835   3.594  17.002  0.00  0.00    +0.000 OA
BRANCH  20  22
ATOM     22  O   UNL     1       3.050   4.833  17.735  0.00  0.00    +0.000 OA
BRANCH  22  23
ATOM     23  C   UNL     1       2.603   3.960  18.794  0.00  0.00    +0.000 C 
ATOM     24  C   UNL     1       1.928   4.738  19.921  0.00  0.00    +0.000 C 
ATOM     25  C   UNL     1       1.026   3.724  20.607  0.00  0.00    +0.000 C 
ATOM     26  C   UNL     1       0.647   2.698  19.545  0.00  0.00    +0.000 C 
ATOM     27  C   UNL     1       1.518   2.987  18.321  0.00  0.00    +0.000 C 
ENDBRANCH  22  23
ENDBRANCH  20  22
ENDBRANCH  15  20
ENDBRANCH   1  15
TORSDOF 12
ENDMDL
MODEL 6
REMARK VINA RESULT:      -6.4      2.868      5.803
REMARK  Name = 
REMARK  13 active torsions:
REMARK  status: ('A' for Active; 'I' for Inactive)
REMARK    1  A    between atoms: C_1  and  O_2
REMARK    2  A    between atoms: O_2  and  C_3
REMARK    3  A    between atoms: C_3  and  C_5
REMARK    4  A    between atoms: C_5  and  C_6
REMARK    5  A    between atoms: C_5  and  C_16
REMARK    6  A    between atoms: C_6  and  N_7
REMARK    7  A    between atoms: C_8  and  C_10
REMARK    8  A    between atoms: C_10  and  N_11
REMARK    9  A    between atoms: C_10  and  C_12
REMARK   10  A    between atoms: C_12  and  C_13
REMARK   11  A    between atoms: C_13  and  O_15
REMARK   12  A    between atoms: C_16  and  O_18
REMARK   13  A    between atoms: O_18  and  C_19
REMARK                            x       y       z     vdW  Elec       q    Type
REMARK                         _______ _______ _______ _____ _____    ______ ____
ROOT
ATOM      1  C   UNL     1       4.960   4.422  17.468  0.00  0.00    +0.000 C 
ENDROOT
BRANCH   1   2
ATOM      2  N   UNL     1       4.442   5.696  17.981  0.00  0.00    +0.000 N 
ATOM      3  C   UNL     1       3.102   5.968  18.153  0.00  0.00    +0.000 C 
ATOM      4  O   UNL     1       2.216   5.151  17.903  0.00  0.00    +0.000 OA
ATOM      5  H   UNL     1       5.091   6.289  18.504  0.00  0.00    +0.000 HD
BRANCH   3   6
ATOM      6  C   UNL     1       2.794   7.379  18.715  0.00  0.00    +0.000 C 
BRANCH   6   7
ATOM      7  N   UNL     1       2.199   7.217  20.065  0.00  0.00    +0.000 NA
ATOM      8  H   UNL     1       1.242   6.867  19.976  0.00  0.00    +0.000 HD
ATOM      9  H   UNL     1       2.110   8.134  20.508  0.00  0.00    +0.000 HD
ENDBRANCH   6   7
BRANCH   6  10
ATOM     10  C   UNL     1       1.848   8.185  17.822  0.00  0.00    +0.000 C 
BRANCH  10  11
ATOM     11  C   UNL     1       1.638   9.594  18.309  0.00  0.00    +0.000 C 
ATOM     12  O   UNL     1       1.107   9.869  19.374  0.00  0.00    +0.000 OA
BRANCH  11  13
ATOM     13  O   UNL     1       2.062  10.542  17.444  0.00  0.00    +0.000 OA
ATOM     14  H   UNL     1       1.336  11.131  17.136  0.00  0.00    +0.000 HD
ENDBRANCH  11  13
ENDBRANCH  10  11
ENDBRANCH   6  10
ENDBRANCH   3   6
ENDBRANCH   1   2
BRANCH   1  15
ATOM     15  C   UNL     1       6.353   4.540  16.833  0.00  0.00    +0.000 C 
BRANCH  15  16
ATOM     16  C   UNL     1       7.394   4.431  17.914  0.00  0.00    +0.000 C 
ATOM     17  O   UNL     1       8.556   4.072  17.735  0.00  0.00    +0.000 OA
BRANCH  16  19
ATOM     18  C   UNL     1       7.765   5.765  19.792  0.00  0.00    +0.000 C 
ATOM     19  O   UNL     1       6.905   4.844  19.117  0.00  0.00    +0.000 OA
ENDBRANCH  16  19
ENDBRANCH  15  16
BRANCH  15  20
ATOM     20  C   UNL     1       6.505   5.861  16.105  0.00  0.00    +0.000 C 
ATOM     21  O   UNL     1       6.999   6.854  16.612  0.00  0.00    +0.000 OA
BRANCH  20  22
ATOM     22  O   UNL     1       6.072   5.790  14.804  0.00  0.00    +0.000 OA
BRANCH  22  23
ATOM     23  C   UNL     1       6.497   4.619  14.074  0.00  0.00    +0.000 C 
ATOM     24  C   UNL     1       5.325   3.925  13.386  0.00  0.00    +0.000 C 
ATOM     25  C   UNL     1       5.952   3.146  12.240  0.00  0.00    +0.000 C 
ATOM     26  C   UNL     1       7.218   3.901  11.850  0.00  0.00    +0.000 C 
ATOM     27  C   UNL     1       7.443   4.970  12.921  0.00  0.00    +0.000 C 
ENDBRANCH  22  23
ENDBRANCH  20  22
ENDBRANCH  15  20
ENDBRANCH   1  15
TORSDOF 12
ENDMDL
MODEL 7
REMARK VINA RESULT:      -6.4      2.577      4.722
REMARK  Name = 
REMARK  13 active torsions:
REMARK  status: ('A' for Active; 'I' for Inactive)
REMARK    1  A    between atoms: C_1  and  O_2
REMARK    2  A    between atoms: O_2  and  C_3
REMARK    3  A    between atoms: C_3  and  C_5
REMARK    4  A    between atoms: C_5  and  C_6
REMARK    5  A    between atoms: C_5  and  C_16
REMARK    6  A    between atoms: C_6  and  N_7
REMARK    7  A    between atoms: C_8  and  C_10
REMARK    8  A    between atoms: C_10  and  N_11
REMARK    9  A    between atoms: C_10  and  C_12
REMARK   10  A    between atoms: C_12  and  C_13
REMARK   11  A    between atoms: C_13  and  O_15
REMARK   12  A    between atoms: C_16  and  O_18
REMARK   13  A    between atoms: O_18  and  C_19
REMARK                            x       y       z     vdW  Elec       q    Type
REMARK                         _______ _______ _______ _____ _____    ______ ____
ROOT
ATOM      1  C   UNL     1       6.976   4.217  17.560  0.00  0.00    +0.000 C 
ENDROOT
BRANCH   1   2
ATOM      2  N   UNL     1       5.946   4.292  18.603  0.00  0.00    +0.000 N 
ATOM      3  C   UNL     1       4.713   3.681  18.512  0.00  0.00    +0.000 C 
ATOM      4  O   UNL     1       4.374   3.000  17.544  0.00  0.00    +0.000 OA
ATOM      5  H   UNL     1       6.249   4.550  19.545  0.00  0.00    +0.000 HD
BRANCH   3   6
ATOM      6  C   UNL     1       3.792   3.894  19.739  0.00  0.00    +0.000 C 
BRANCH   6   7
ATOM      7  N   UNL     1       3.478   2.564  20.316  0.00  0.00    +0.000 NA
ATOM      8  H   UNL     1       4.316   2.179  20.761  0.00  0.00    +0.000 HD
ATOM      9  H   UNL     1       3.251   1.912  19.562  0.00  0.00    +0.000 HD
ENDBRANCH   6   7
BRANCH   6  10
ATOM     10  C   UNL     1       2.496   4.631  19.394  0.00  0.00    +0.000 C 
BRANCH  10  11
ATOM     11  C   UNL     1       1.323   3.704  19.213  0.00  0.00    +0.000 C 
ATOM     12  O   UNL     1       0.523   3.446  20.098  0.00  0.00    +0.000 OA
BRANCH  11  13
ATOM     13  O   UNL     1       1.247   3.150  17.982  0.00  0.00    +0.000 OA
ATOM     14  H   UNL     1       1.818   2.354  17.885  0.00  0.00    +0.000 HD
ENDBRANCH  11  13
ENDBRANCH  10  11
ENDBRANCH   6  10
ENDBRANCH   3   6
ENDBRANCH   1   2
BRANCH   1  15
ATOM     15  C   UNL     1       7.171   5.536  16.798  0.00  0.00    +0.000 C 
BRANCH  15  16
ATOM     16  C   UNL     1       7.509   6.624  17.782  0.00  0.00    +0.000 C 
ATOM     17  O   UNL     1       7.898   6.433  18.933  0.00  0.00    +0.000 OA
BRANCH  16  19
ATOM     18  C   UNL     1       8.140   8.867  17.897  0.00  0.00    +0.000 C 
ATOM     19  O   UNL     1       7.389   7.858  17.218  0.00  0.00    +0.000 OA
ENDBRANCH  16  19
ENDBRANCH  15  16
BRANCH  15  20
ATOM     20  C   UNL     1       5.916   5.908  16.033  0.00  0.00    +0.000 C 
ATOM     21  O   UNL     1       4.848   6.149  16.570  0.00  0.00    +0.000 OA
BRANCH  20  22
ATOM     22  O   UNL     1       6.139   5.992  14.681  0.00  0.00    +0.000 OA
BRANCH  22  23
ATOM     23  C   UNL     1       6.546   4.762  14.044  0.00  0.00    +0.000 C 
ATOM     24  C   UNL     1       5.355   4.002  13.466  0.00  0.00    +0.000 C 
ATOM     25  C   UNL     1       5.945   3.126  12.373  0.00  0.00    +0.000 C 
ATOM     26  C   UNL     1       7.189   3.848  11.868  0.00  0.00    +0.000 C 
ATOM     27  C   UNL     1       7.445   5.012  12.828  0.00  0.00    +0.000 C 
ENDBRANCH  22  23
ENDBRANCH  20  22
ENDBRANCH  15  20
ENDBRANCH   1  15
TORSDOF 12
ENDMDL
MODEL 8
REMARK VINA RESULT:      -6.3      3.023      5.698
REMARK  Name = 
REMARK  13 active torsions:
REMARK  status: ('A' for Active; 'I' for Inactive)
REMARK    1  A    between atoms: C_1  and  O_2
REMARK    2  A    between atoms: O_2  and  C_3
REMARK    3  A    between atoms: C_3  and  C_5
REMARK    4  A    between atoms: C_5  and  C_6
REMARK    5  A    between atoms: C_5  and  C_16
REMARK    6  A    between atoms: C_6  and  N_7
REMARK    7  A    between atoms: C_8  and  C_10
REMARK    8  A    between atoms: C_10  and  N_11
REMARK    9  A    between atoms: C_10  and  C_12
REMARK   10  A    between atoms: C_12  and  C_13
REMARK   11  A    between atoms: C_13  and  O_15
REMARK   12  A    between atoms: C_16  and  O_18
REMARK   13  A    between atoms: O_18  and  C_19
REMARK                            x       y       z     vdW  Elec       q    Type
REMARK                         _______ _______ _______ _____ _____    ______ ____
ROOT
ATOM      1  C   UNL     1       6.479   4.611  16.985  0.00  0.00    +0.000 C 
ENDROOT
BRANCH   1   2
ATOM      2  N   UNL     1       6.292   4.061  15.638  0.00  0.00    +0.000 N 
ATOM      3  C   UNL     1       6.962   4.514  14.522  0.00  0.00    +0.000 C 
ATOM      4  O   UNL     1       7.797   5.418  14.564  0.00  0.00    +0.000 OA
ATOM      5  H   UNL     1       5.880   3.128  15.565  0.00  0.00    +0.000 HD
BRANCH   3   6
ATOM      6  C   UNL     1       6.605   3.776  13.207  0.00  0.00    +0.000 C 
BRANCH   6   7
ATOM      7  N   UNL     1       7.338   4.433  12.097  0.00  0.00    +0.000 NA
ATOM      8  H   UNL     1       8.163   4.911  12.468  0.00  0.00    +0.000 HD
ATOM      9  H   UNL     1       6.757   5.172  11.697  0.00  0.00    +0.000 HD
ENDBRANCH   6   7
BRANCH   6  10
ATOM     10  C   UNL     1       5.104   3.774  12.911  0.00  0.00    +0.000 C 
BRANCH  10  11
ATOM     11  C   UNL     1       4.742   2.939  11.711  0.00  0.00    +0.000 C 
ATOM     12  O   UNL     1       3.768   3.153  11.008  0.00  0.00    +0.000 OA
BRANCH  11  13
ATOM     13  O   UNL     1       5.580   1.900  11.495  0.00  0.00    +0.000 OA
ATOM     14  H   UNL     1       6.189   2.051  10.737  0.00  0.00    +0.000 HD
ENDBRANCH  11  13
ENDBRANCH  10  11
ENDBRANCH   6  10
ENDBRANCH   3   6
ENDBRANCH   1   2
BRANCH   1  15
ATOM     15  C   UNL     1       5.208   5.246  17.569  0.00  0.00    +0.000 C 
BRANCH  15  16
ATOM     16  C   UNL     1       5.139   6.686  17.139  0.00  0.00    +0.000 C 
ATOM     17  O   UNL     1       4.159   7.414  17.282  0.00  0.00    +0.000 OA
BRANCH  16  19
ATOM     18  C   UNL     1       7.125   7.836  17.559  0.00  0.00    +0.000 C 
ATOM     19  O   UNL     1       6.327   7.107  16.623  0.00  0.00    +0.000 OA
ENDBRANCH  16  19
ENDBRANCH  15  16
BRANCH  15  20
ATOM     20  C   UNL     1       5.210   5.162  19.083  0.00  0.00    +0.000 C 
ATOM     21  O   UNL     1       6.220   4.997  19.746  0.00  0.00    +0.000 OA
BRANCH  20  22
ATOM     22  O   UNL     1       3.957   5.345  19.614  0.00  0.00    +0.000 OA
BRANCH  22  23
ATOM     23  C   UNL     1       3.189   4.140  19.818  0.00  0.00    +0.000 C 
ATOM     24  C   UNL     1       2.491   4.136  21.175  0.00  0.00    +0.000 C 
ATOM     25  C   UNL     1       1.318   3.183  21.007  0.00  0.00    +0.000 C 
ATOM     26  C   UNL     1       0.939   3.225  19.531  0.00  0.00    +0.000 C 
ATOM     27  C   UNL     1       2.038   4.012  18.814  0.00  0.00    +0.000 C 
ENDBRANCH  22  23
ENDBRANCH  20  22
ENDBRANCH  15  20
ENDBRANCH   1  15
TORSDOF 12
ENDMDL
MODEL 9
REMARK VINA RESULT:      -6.3      2.416      4.856
REMARK  Name = 
REMARK  13 active torsions:
REMARK  status: ('A' for Active; 'I' for Inactive)
REMARK    1  A    between atoms: C_1  and  O_2
REMARK    2  A    between atoms: O_2  and  C_3
REMARK    3  A    between atoms: C_3  and  C_5
REMARK    4  A    between atoms: C_5  and  C_6
REMARK    5  A    between atoms: C_5  and  C_16
REMARK    6  A    between atoms: C_6  and  N_7
REMARK    7  A    between atoms: C_8  and  C_10
REMARK    8  A    between atoms: C_10  and  N_11
REMARK    9  A    between atoms: C_10  and  C_12
REMARK   10  A    between atoms: C_12  and  C_13
REMARK   11  A    between atoms: C_13  and  O_15
REMARK   12  A    between atoms: C_16  and  O_18
REMARK   13  A    between atoms: O_18  and  C_19
REMARK                            x       y       z     vdW  Elec       q    Type
REMARK                         _______ _______ _______ _____ _____    ______ ____
ROOT
ATOM      1  C   UNL     1       5.118   6.261  17.415  0.00  0.00    +0.000 C 
ENDROOT
BRANCH   1   2
ATOM      2  N   UNL     1       4.028   5.279  17.403  0.00  0.00    +0.000 N 
ATOM      3  C   UNL     1       3.173   5.065  18.464  0.00  0.00    +0.000 C 
ATOM      4  O   UNL     1       3.242   5.700  19.516  0.00  0.00    +0.000 OA
ATOM      5  H   UNL     1       3.700   4.952  16.491  0.00  0.00    +0.000 HD
BRANCH   3   6
ATOM      6  C   UNL     1       2.094   3.981  18.219  0.00  0.00    +0.000 C 
BRANCH   6   7
ATOM      7  N   UNL     1       1.387   3.737  19.501  0.00  0.00    +0.000 NA
ATOM      8  H   UNL     1       2.034   3.882  20.280  0.00  0.00    +0.000 HD
ATOM      9  H   UNL     1       1.116   2.753  19.556  0.00  0.00    +0.000 HD
ENDBRANCH   6   7
BRANCH   6  10
ATOM     10  C   UNL     1       2.674   2.669  17.686  0.00  0.00    +0.000 C 
BRANCH  10  11
ATOM     11  C   UNL     1       3.570   1.976  18.678  0.00  0.00    +0.000 C 
ATOM     12  O   UNL     1       3.971   2.499  19.706  0.00  0.00    +0.000 OA
BRANCH  11  13
ATOM     13  O   UNL     1       3.923   0.723  18.315  0.00  0.00    +0.000 OA
ATOM     14  H   UNL     1       4.713   0.393  18.800  0.00  0.00    +0.000 HD
ENDBRANCH  11  13
ENDBRANCH  10  11
ENDBRANCH   6  10
ENDBRANCH   3   6
ENDBRANCH   1   2
BRANCH   1  15
ATOM     15  C   UNL     1       6.483   5.655  17.773  0.00  0.00    +0.000 C 
BRANCH  15  16
ATOM     16  C   UNL     1       7.428   6.765  18.146  0.00  0.00    +0.000 C 
ATOM     17  O   UNL     1       8.225   6.723  19.081  0.00  0.00    +0.000 OA
BRANCH  16  19
ATOM     18  C   UNL     1       7.972   8.998  17.748  0.00  0.00    +0.000 C 
ATOM     19  O   UNL     1       7.335   7.809  17.276  0.00  0.00    +0.000 OA
ENDBRANCH  16  19
ENDBRANCH  15  16
BRANCH  15  20
ATOM     20  C   UNL     1       7.049   4.870  16.606  0.00  0.00    +0.000 C 
ATOM     21  O   UNL     1       8.055   4.185  16.682  0.00  0.00    +0.000 OA
BRANCH  20  22
ATOM     22  O   UNL     1       6.271   4.981  15.480  0.00  0.00    +0.000 OA
BRANCH  22  23
ATOM     23  C   UNL     1       6.690   4.178  14.357  0.00  0.00    +0.000 C 
ATOM     24  C   UNL     1       5.498   3.637  13.571  0.00  0.00    +0.000 C 
ATOM     25  C   UNL     1       6.043   3.362  12.178  0.00  0.00    +0.000 C 
ATOM     26  C   UNL     1       7.199   4.334  11.969  0.00  0.00    +0.000 C 
ATOM     27  C   UNL     1       7.469   4.996  13.321  0.00  0.00    +0.000 C 
ENDBRANCH  22  23
ENDBRANCH  20  22
ENDBRANCH  15  20
ENDBRANCH   1  15
TORSDOF 12
ENDMDL
