MODEL 1
REMARK VINA RESULT:      -7.1      0.000      0.000
REMARK  Name = 
REMARK  4 active torsions:
REMARK  status: ('A' for Active; 'I' for Inactive)
REMARK    1  A    between atoms: C_2  and  C_4
REMARK    2  A    between atoms: C_4  and  S_5
REMARK    3  A    between atoms: S_5  and  C_6
REMARK    4  A    between atoms: C_6  and  C_7
REMARK                            x       y       z     vdW  Elec       q    Type
REMARK                         _______ _______ _______ _____ _____    ______ ____
ROOT
ATOM      1  C   UNL     1       5.957   5.739  16.831  0.00  0.00    +0.000 C 
ATOM      2  O   UNL     1       6.249   6.870  17.226  0.00  0.00    +0.000 OA
ATOM      3  N   UNL     1       4.668   5.241  16.974  0.00  0.00    +0.000 N 
ATOM      4  C   UNL     1       4.184   3.943  16.516  0.00  0.00    +0.000 C 
ATOM      5  C   UNL     1       3.977   3.031  17.725  0.00  0.00    +0.000 C 
ATOM      6  C   UNL     1       3.180   3.716  18.815  0.00  0.00    +0.000 A 
ATOM      7  C   UNL     1       2.593   2.936  19.822  0.00  0.00    +0.000 A 
ATOM      8  C   UNL     1       1.877   3.544  20.853  0.00  0.00    +0.000 A 
ATOM      9 CL   UNL     1       1.155   2.574  22.076  0.00  0.00    +0.000 Cl
ATOM     10  C   UNL     1       1.738   4.926  20.897  0.00  0.00    +0.000 A 
ATOM     11  C   UNL     1       2.327   5.712  19.906  0.00  0.00    +0.000 A 
ATOM     12 CL   UNL     1       2.096   7.423  20.008  0.00  0.00    +0.000 Cl
ATOM     13  C   UNL     1       3.071   5.127  18.864  0.00  0.00    +0.000 A 
ATOM     14  C   UNL     1       3.708   5.990  17.786  0.00  0.00    +0.000 C 
ENDROOT
BRANCH   1  15
ATOM     15  C   UNL     1       6.996   4.839  16.166  0.00  0.00    +0.000 C 
BRANCH  15  16
ATOM     16  S   UNL     1       7.158   5.144  14.371  0.00  0.00    +0.000 S 
BRANCH  16  17
ATOM     17  C   UNL     1       6.060   3.826  13.732  0.00  0.00    +0.000 C 
BRANCH  17  19
ATOM     18  N   UNL     1       5.942   2.275  11.844  0.00  0.00    +0.000 N 
ATOM     19  C   UNL     1       6.487   3.428  12.329  0.00  0.00    +0.000 C 
ATOM     20  O   UNL     1       7.232   4.117  11.630  0.00  0.00    +0.000 OA
ATOM     21  H   UNL     1       6.253   1.946  10.939  0.00  0.00    +0.000 HD
ATOM     22  H   UNL     1       5.421   1.644  12.441  0.00  0.00    +0.000 HD
ENDBRANCH  17  19
ENDBRANCH  16  17
ENDBRANCH  15  16
ENDBRANCH   1  15
TORSDOF 4
ENDMDL
MODEL 2
REMARK VINA RESULT:      -7.0      4.493      6.465
REMARK  Name = 
REMARK  4 active torsions:
REMARK  status: ('A' for Active; 'I' for Inactive)
REMARK    1  A    between atoms: C_2  and  C_4
REMARK    2  A    between atoms: C_4  and  S_5
REMARK    3  A    between atoms: S_5  and  C_6
REMARK    4  A    between atoms: C_6  and  C_7
REMARK                            x       y       z     vdW  Elec       q    Type
REMARK                         _______ _______ _______ _____ _____    ______ ____
ROOT
ATOM      1  C   UNL     1       1.974   2.824  18.208  0.00  0.00    +0.000 C 
ATOM      2  O   UNL     1       2.407   1.719  17.872  0.00  0.00    +0.000 OA
ATOM      3  N   UNL     1       2.352   3.977  17.531  0.00  0.00    +0.000 N 
ATOM      4  C   UNL     1       1.883   5.333  17.800  0.00  0.00    +0.000 C 
ATOM      5  C   UNL     1       3.007   6.129  18.463  0.00  0.00    +0.000 C 
ATOM      6  C   UNL     1       4.313   5.989  17.709  0.00  0.00    +0.000 A 
ATOM      7  C   UNL     1       5.341   6.913  17.951  0.00  0.00    +0.000 A 
ATOM      8  C   UNL     1       6.563   6.791  17.291  0.00  0.00    +0.000 A 
ATOM      9 CL   UNL     1       7.811   7.937  17.591  0.00  0.00    +0.000 Cl
ATOM     10  C   UNL     1       6.780   5.756  16.390  0.00  0.00    +0.000 A 
ATOM     11  C   UNL     1       5.767   4.825  16.150  0.00  0.00    +0.000 A 
ATOM     12 CL   UNL     1       6.095   3.576  15.000  0.00  0.00    +0.000 Cl
ATOM     13  C   UNL     1       4.530   4.913  16.815  0.00  0.00    +0.000 A 
ATOM     14  C   UNL     1       3.432   3.897  16.547  0.00  0.00    +0.000 C 
ENDROOT
BRANCH   1  15
ATOM     15  C   UNL     1       1.004   2.972  19.377  0.00  0.00    +0.000 C 
BRANCH  15  16
ATOM     16  S   UNL     1       1.753   2.521  20.984  0.00  0.00    +0.000 S 
BRANCH  16  17
ATOM     17  C   UNL     1       3.342   3.417  20.847  0.00  0.00    +0.000 C 
BRANCH  17  19
ATOM     18  N   UNL     1       5.098   2.549  19.381  0.00  0.00    +0.000 N 
ATOM     19  C   UNL     1       4.473   2.435  20.589  0.00  0.00    +0.000 C 
ATOM     20  O   UNL     1       4.857   1.616  21.425  0.00  0.00    +0.000 OA
ATOM     21  H   UNL     1       5.812   1.870  19.150  0.00  0.00    +0.000 HD
ATOM     22  H   UNL     1       4.725   3.136  18.646  0.00  0.00    +0.000 HD
ENDBRANCH  17  19
ENDBRANCH  16  17
ENDBRANCH  15  16
ENDBRANCH   1  15
TORSDOF 4
ENDMDL
MODEL 3
REMARK VINA RESULT:      -6.9      4.898      6.530
REMARK  Name = 
REMARK  4 active torsions:
REMARK  status: ('A' for Active; 'I' for Inactive)
REMARK    1  A    between atoms: C_2  and  C_4
REMARK    2  A    between atoms: C_4  and  S_5
REMARK    3  A    between atoms: S_5  and  C_6
REMARK    4  A    between atoms: C_6  and  C_7
REMARK                            x       y       z     vdW  Elec       q    Type
REMARK                         _______ _______ _______ _____ _____    ______ ____
ROOT
ATOM      1  C   UNL     1       1.928   5.435  19.657  0.00  0.00    +0.000 C 
ATOM      2  O   UNL     1       1.413   4.928  20.656  0.00  0.00    +0.000 OA
ATOM      3  N   UNL     1       2.267   6.782  19.631  0.00  0.00    +0.000 N 
ATOM      4  C   UNL     1       2.915   7.493  18.534  0.00  0.00    +0.000 C 
ATOM      5  C   UNL     1       1.893   8.401  17.853  0.00  0.00    +0.000 C 
ATOM      6  C   UNL     1       1.128   9.237  18.857  0.00  0.00    +0.000 A 
ATOM      7  C   UNL     1       0.423  10.364  18.409  0.00  0.00    +0.000 A 
ATOM      8  C   UNL     1      -0.311  11.136  19.309  0.00  0.00    +0.000 A 
ATOM      9 CL   UNL     1      -1.163  12.520  18.746  0.00  0.00    +0.000 Cl
ATOM     10  C   UNL     1      -0.356  10.800  20.656  0.00  0.00    +0.000 A 
ATOM     11  C   UNL     1       0.334   9.674  21.111  0.00  0.00    +0.000 A 
ATOM     12 CL   UNL     1       0.254   9.326  22.803  0.00  0.00    +0.000 Cl
ATOM     13  C   UNL     1       1.068   8.866  20.222  0.00  0.00    +0.000 A 
ATOM     14  C   UNL     1       1.818   7.644  20.725  0.00  0.00    +0.000 C 
ENDROOT
BRANCH   1  15
ATOM     15  C   UNL     1       2.217   4.606  18.407  0.00  0.00    +0.000 C 
BRANCH  15  16
ATOM     16  S   UNL     1       1.557   2.904  18.515  0.00  0.00    +0.000 S 
BRANCH  16  17
ATOM     17  C   UNL     1       3.127   1.963  18.533  0.00  0.00    +0.000 C 
BRANCH  17  19
ATOM     18  N   UNL     1       5.210   2.952  19.350  0.00  0.00    +0.000 N 
ATOM     19  C   UNL     1       3.997   2.425  19.689  0.00  0.00    +0.000 C 
ATOM     20  O   UNL     1       3.630   2.390  20.864  0.00  0.00    +0.000 OA
ATOM     21  H   UNL     1       5.841   3.210  20.097  0.00  0.00    +0.000 HD
ATOM     22  H   UNL     1       5.570   2.885  18.406  0.00  0.00    +0.000 HD
ENDBRANCH  17  19
ENDBRANCH  16  17
ENDBRANCH  15  16
ENDBRANCH   1  15
TORSDOF 4
ENDMDL
MODEL 4
REMARK VINA RESULT:      -6.9      2.551      3.555
REMARK  Name = 
REMARK  4 active torsions:
REMARK  status: ('A' for Active; 'I' for Inactive)
REMARK    1  A    between atoms: C_2  and  C_4
REMARK    2  A    between atoms: C_4  and  S_5
REMARK    3  A    between atoms: S_5  and  C_6
REMARK    4  A    between atoms: C_6  and  C_7
REMARK                            x       y       z     vdW  Elec       q    Type
REMARK                         _______ _______ _______ _____ _____    ______ ____
ROOT
ATOM      1  C   UNL     1       4.835   6.264  17.796  0.00  0.00    +0.000 C 
ATOM      2  O   UNL     1       5.398   7.194  17.214  0.00  0.00    +0.000 OA
ATOM      3  N   UNL     1       3.477   6.319  18.088  0.00  0.00    +0.000 N 
ATOM      4  C   UNL     1       2.686   5.276  18.732  0.00  0.00    +0.000 C 
ATOM      5  C   UNL     1       2.351   5.711  20.158  0.00  0.00    +0.000 C 
ATOM      6  C   UNL     1       1.795   7.120  20.198  0.00  0.00    +0.000 A 
ATOM      7  C   UNL     1       1.107   7.548  21.343  0.00  0.00    +0.000 A 
ATOM      8  C   UNL     1       0.610   8.849  21.417  0.00  0.00    +0.000 A 
ATOM      9 CL   UNL     1      -0.239   9.357  22.824  0.00  0.00    +0.000 Cl
ATOM     10  C   UNL     1       0.789   9.735  20.362  0.00  0.00    +0.000 A 
ATOM     11  C   UNL     1       1.481   9.322  19.222  0.00  0.00    +0.000 A 
ATOM     12 CL   UNL     1       1.650  10.467  17.938  0.00  0.00    +0.000 Cl
ATOM     13  C   UNL     1       2.011   8.021  19.128  0.00  0.00    +0.000 A 
ATOM     14  C   UNL     1       2.761   7.578  17.882  0.00  0.00    +0.000 C 
ENDROOT
BRANCH   1  15
ATOM     15  C   UNL     1       5.603   5.015  18.221  0.00  0.00    +0.000 C 
BRANCH  15  16
ATOM     16  S   UNL     1       7.008   4.633  17.115  0.00  0.00    +0.000 S 
BRANCH  16  17
ATOM     17  C   UNL     1       6.102   3.923  15.694  0.00  0.00    +0.000 C 
BRANCH  17  19
ATOM     18  N   UNL     1       6.389   3.647  13.280  0.00  0.00    +0.000 N 
ATOM     19  C   UNL     1       6.762   4.346  14.392  0.00  0.00    +0.000 C 
ATOM     20  O   UNL     1       7.543   5.294  14.310  0.00  0.00    +0.000 OA
ATOM     21  H   UNL     1       6.856   3.859  12.408  0.00  0.00    +0.000 HD
ATOM     22  H   UNL     1       5.839   2.801  13.347  0.00  0.00    +0.000 HD
ENDBRANCH  17  19
ENDBRANCH  16  17
ENDBRANCH  15  16
ENDBRANCH   1  15
TORSDOF 4
ENDMDL
MODEL 5
REMARK VINA RESULT:      -6.8      4.879      6.672
REMARK  Name = 
REMARK  4 active torsions:
REMARK  status: ('A' for Active; 'I' for Inactive)
REMARK    1  A    between atoms: C_2  and  C_4
REMARK    2  A    between atoms: C_4  and  S_5
REMARK    3  A    between atoms: S_5  and  C_6
REMARK    4  A    between atoms: C_6  and  C_7
REMARK                            x       y       z     vdW  Elec       q    Type
REMARK                         _______ _______ _______ _____ _____    ______ ____
ROOT
ATOM      1  C   UNL     1       2.087   5.896  19.444  0.00  0.00    +0.000 C 
ATOM      2  O   UNL     1       1.764   5.285  20.466  0.00  0.00    +0.000 OA
ATOM      3  N   UNL     1       2.252   7.276  19.457  0.00  0.00    +0.000 N 
ATOM      4  C   UNL     1       2.668   8.109  18.334  0.00  0.00    +0.000 C 
ATOM      5  C   UNL     1       1.466   8.906  17.829  0.00  0.00    +0.000 C 
ATOM      6  C   UNL     1       0.734   9.594  18.962  0.00  0.00    +0.000 A 
ATOM      7  C   UNL     1      -0.154  10.638  18.664  0.00  0.00    +0.000 A 
ATOM      8  C   UNL     1      -0.862  11.270  19.686  0.00  0.00    +0.000 A 
ATOM      9 CL   UNL     1      -1.940  12.556  19.306  0.00  0.00    +0.000 Cl
ATOM     10  C   UNL     1      -0.699  10.875  21.008  0.00  0.00    +0.000 A 
ATOM     11  C   UNL     1       0.174   9.830  21.314  0.00  0.00    +0.000 A 
ATOM     12 CL   UNL     1       0.347   9.403  22.981  0.00  0.00    +0.000 Cl
ATOM     13  C   UNL     1       0.887   9.161  20.301  0.00  0.00    +0.000 A 
ATOM     14  C   UNL     1       1.838   8.026  20.643  0.00  0.00    +0.000 C 
ENDROOT
BRANCH   1  15
ATOM     15  C   UNL     1       2.319   5.164  18.124  0.00  0.00    +0.000 C 
BRANCH  15  16
ATOM     16  S   UNL     1       3.574   3.841  18.256  0.00  0.00    +0.000 S 
BRANCH  16  17
ATOM     17  C   UNL     1       2.547   2.393  17.813  0.00  0.00    +0.000 C 
BRANCH  17  19
ATOM     18  N   UNL     1       1.765   2.242  20.127  0.00  0.00    +0.000 N 
ATOM     19  C   UNL     1       1.410   2.238  18.809  0.00  0.00    +0.000 C 
ATOM     20  O   UNL     1       0.226   2.170  18.474  0.00  0.00    +0.000 OA
ATOM     21  H   UNL     1       1.041   2.077  20.814  0.00  0.00    +0.000 HD
ATOM     22  H   UNL     1       2.734   2.185  20.413  0.00  0.00    +0.000 HD
ENDBRANCH  17  19
ENDBRANCH  16  17
ENDBRANCH  15  16
ENDBRANCH   1  15
TORSDOF 4
ENDMDL
MODEL 6
REMARK VINA RESULT:      -6.7      3.247      4.332
REMARK  Name = 
REMARK  4 active torsions:
REMARK  status: ('A' for Active; 'I' for Inactive)
REMARK    1  A    between atoms: C_2  and  C_4
REMARK    2  A    between atoms: C_4  and  S_5
REMARK    3  A    between atoms: S_5  and  C_6
REMARK    4  A    between atoms: C_6  and  C_7
REMARK                            x       y       z     vdW  Elec       q    Type
REMARK                         _______ _______ _______ _____ _____    ______ ____
ROOT
ATOM      1  C   UNL     1       4.297   6.405  17.800  0.00  0.00    +0.000 C 
ATOM      2  O   UNL     1       4.849   7.296  17.150  0.00  0.00    +0.000 OA
ATOM      3  N   UNL     1       2.976   6.532  18.213  0.00  0.00    +0.000 N 
ATOM      4  C   UNL     1       2.198   5.541  18.948  0.00  0.00    +0.000 C 
ATOM      5  C   UNL     1       2.017   6.015  20.389  0.00  0.00    +0.000 C 
ATOM      6  C   UNL     1       1.538   7.450  20.452  0.00  0.00    +0.000 A 
ATOM      7  C   UNL     1       0.980   7.931  21.646  0.00  0.00    +0.000 A 
ATOM      8  C   UNL     1       0.556   9.256  21.738  0.00  0.00    +0.000 A 
ATOM      9 CL   UNL     1      -0.134   9.828  23.206  0.00  0.00    +0.000 Cl
ATOM     10  C   UNL     1       0.681  10.116  20.654  0.00  0.00    +0.000 A 
ATOM     11  C   UNL     1       1.244   9.651  19.464  0.00  0.00    +0.000 A 
ATOM     12 CL   UNL     1       1.349  10.766  18.147  0.00  0.00    +0.000 Cl
ATOM     13  C   UNL     1       1.698   8.323  19.348  0.00  0.00    +0.000 A 
ATOM     14  C   UNL     1       2.307   7.824  18.049  0.00  0.00    +0.000 C 
ENDROOT
BRANCH   1  15
ATOM     15  C   UNL     1       5.039   5.124  18.178  0.00  0.00    +0.000 C 
BRANCH  15  16
ATOM     16  S   UNL     1       4.831   3.792  16.943  0.00  0.00    +0.000 S 
BRANCH  16  17
ATOM     17  C   UNL     1       6.036   4.346  15.682  0.00  0.00    +0.000 C 
BRANCH  17  19
ATOM     18  N   UNL     1       7.523   6.215  16.214  0.00  0.00    +0.000 N 
ATOM     19  C   UNL     1       7.289   4.878  16.357  0.00  0.00    +0.000 C 
ATOM     20  O   UNL     1       8.032   4.177  17.045  0.00  0.00    +0.000 OA
ATOM     21  H   UNL     1       8.381   6.590  16.596  0.00  0.00    +0.000 HD
ATOM     22  H   UNL     1       6.988   6.778  15.565  0.00  0.00    +0.000 HD
ENDBRANCH  17  19
ENDBRANCH  16  17
ENDBRANCH  15  16
ENDBRANCH   1  15
TORSDOF 4
ENDMDL
MODEL 7
REMARK VINA RESULT:      -6.7      3.844      5.606
REMARK  Name = 
REMARK  4 active torsions:
REMARK  status: ('A' for Active; 'I' for Inactive)
REMARK    1  A    between atoms: C_2  and  C_4
REMARK    2  A    between atoms: C_4  and  S_5
REMARK    3  A    between atoms: S_5  and  C_6
REMARK    4  A    between atoms: C_6  and  C_7
REMARK                            x       y       z     vdW  Elec       q    Type
REMARK                         _______ _______ _______ _____ _____    ______ ____
ROOT
ATOM      1  C   UNL     1       2.353   5.443  19.375  0.00  0.00    +0.000 C 
ATOM      2  O   UNL     1       1.842   4.860  20.334  0.00  0.00    +0.000 OA
ATOM      3  N   UNL     1       2.544   6.820  19.393  0.00  0.00    +0.000 N 
ATOM      4  C   UNL     1       3.171   7.622  18.348  0.00  0.00    +0.000 C 
ATOM      5  C   UNL     1       2.094   8.431  17.625  0.00  0.00    +0.000 C 
ATOM      6  C   UNL     1       1.188   9.155  18.598  0.00  0.00    +0.000 A 
ATOM      7  C   UNL     1       0.390  10.209  18.130  0.00  0.00    +0.000 A 
ATOM      8  C   UNL     1      -0.473  10.875  18.999  0.00  0.00    +0.000 A 
ATOM      9 CL   UNL     1      -1.439  12.172  18.412  0.00  0.00    +0.000 Cl
ATOM     10  C   UNL     1      -0.556  10.504  20.335  0.00  0.00    +0.000 A 
ATOM     11  C   UNL     1       0.226   9.449  20.809  0.00  0.00    +0.000 A 
ATOM     12 CL   UNL     1       0.091   9.054  22.487  0.00  0.00    +0.000 Cl
ATOM     13  C   UNL     1       1.093   8.747  19.951  0.00  0.00    +0.000 A 
ATOM     14  C   UNL     1       1.943   7.601  20.475  0.00  0.00    +0.000 C 
ENDROOT
BRANCH   1  15
ATOM     15  C   UNL     1       2.800   4.681  18.130  0.00  0.00    +0.000 C 
BRANCH  15  16
ATOM     16  S   UNL     1       4.445   3.905  18.324  0.00  0.00    +0.000 S 
BRANCH  16  17
ATOM     17  C   UNL     1       5.220   4.422  16.749  0.00  0.00    +0.000 C 
BRANCH  17  19
ATOM     18  N   UNL     1       7.204   4.289  18.175  0.00  0.00    +0.000 N 
ATOM     19  C   UNL     1       6.729   4.499  16.912  0.00  0.00    +0.000 C 
ATOM     20  O   UNL     1       7.500   4.680  15.969  0.00  0.00    +0.000 OA
ATOM     21  H   UNL     1       8.197   4.395  18.332  0.00  0.00    +0.000 HD
ATOM     22  H   UNL     1       6.584   4.250  18.973  0.00  0.00    +0.000 HD
ENDBRANCH  17  19
ENDBRANCH  16  17
ENDBRANCH  15  16
ENDBRANCH   1  15
TORSDOF 4
ENDMDL
MODEL 8
REMARK VINA RESULT:      -6.7      2.477      3.611
REMARK  Name = 
REMARK  4 active torsions:
REMARK  status: ('A' for Active; 'I' for Inactive)
REMARK    1  A    between atoms: C_2  and  C_4
REMARK    2  A    between atoms: C_4  and  S_5
REMARK    3  A    between atoms: S_5  and  C_6
REMARK    4  A    between atoms: C_6  and  C_7
REMARK                            x       y       z     vdW  Elec       q    Type
REMARK                         _______ _______ _______ _____ _____    ______ ____
ROOT
ATOM      1  C   UNL     1       5.642   6.357  16.754  0.00  0.00    +0.000 C 
ATOM      2  O   UNL     1       5.856   7.487  17.198  0.00  0.00    +0.000 OA
ATOM      3  N   UNL     1       4.404   5.746  16.916  0.00  0.00    +0.000 N 
ATOM      4  C   UNL     1       4.010   4.436  16.406  0.00  0.00    +0.000 C 
ATOM      5  C   UNL     1       3.927   3.450  17.571  0.00  0.00    +0.000 C 
ATOM      6  C   UNL     1       3.121   4.011  18.724  0.00  0.00    +0.000 A 
ATOM      7  C   UNL     1       2.639   3.135  19.708  0.00  0.00    +0.000 A 
ATOM      8  C   UNL     1       1.918   3.628  20.794  0.00  0.00    +0.000 A 
ATOM      9 CL   UNL     1       1.326   2.540  21.988  0.00  0.00    +0.000 Cl
ATOM     10  C   UNL     1       1.668   4.989  20.917  0.00  0.00    +0.000 A 
ATOM     11  C   UNL     1       2.151   5.871  19.949  0.00  0.00    +0.000 A 
ATOM     12 CL   UNL     1       1.786   7.549  20.151  0.00  0.00    +0.000 Cl
ATOM     13  C   UNL     1       2.899   5.404  18.852  0.00  0.00    +0.000 A 
ATOM     14  C   UNL     1       3.420   6.370  17.800  0.00  0.00    +0.000 C 
ENDROOT
BRANCH   1  15
ATOM     15  C   UNL     1       6.724   5.581  16.006  0.00  0.00    +0.000 C 
BRANCH  15  16
ATOM     16  S   UNL     1       7.686   4.472  17.096  0.00  0.00    +0.000 S 
BRANCH  16  17
ATOM     17  C   UNL     1       6.903   4.861  18.704  0.00  0.00    +0.000 C 
BRANCH  17  19
ATOM     18  N   UNL     1       8.332   6.808  19.092  0.00  0.00    +0.000 N 
ATOM     19  C   UNL     1       7.878   5.620  19.587  0.00  0.00    +0.000 C 
ATOM     20  O   UNL     1       8.209   5.236  20.710  0.00  0.00    +0.000 OA
ATOM     21  H   UNL     1       9.032   7.308  19.624  0.00  0.00    +0.000 HD
ATOM     22  H   UNL     1       8.160   7.081  18.132  0.00  0.00    +0.000 HD
ENDBRANCH  17  19
ENDBRANCH  16  17
ENDBRANCH  15  16
ENDBRANCH   1  15
TORSDOF 4
ENDMDL
MODEL 9
REMARK VINA RESULT:      -6.7      3.755      4.827
REMARK  Name = 
REMARK  4 active torsions:
REMARK  status: ('A' for Active; 'I' for Inactive)
REMARK    1  A    between atoms: C_2  and  C_4
REMARK    2  A    between atoms: C_4  and  S_5
REMARK    3  A    between atoms: S_5  and  C_6
REMARK    4  A    between atoms: C_6  and  C_7
REMARK                            x       y       z     vdW  Elec       q    Type
REMARK                         _______ _______ _______ _____ _____    ______ ____
ROOT
ATOM      1  C   UNL     1       4.308   6.394  17.654  0.00  0.00    +0.000 C 
ATOM      2  O   UNL     1       4.867   7.311  17.047  0.00  0.00    +0.000 OA
ATOM      3  N   UNL     1       2.992   6.517  18.084  0.00  0.00    +0.000 N 
ATOM      4  C   UNL     1       2.206   5.498  18.772  0.00  0.00    +0.000 C 
ATOM      5  C   UNL     1       2.043   5.897  20.237  0.00  0.00    +0.000 C 
ATOM      6  C   UNL     1       1.583   7.333  20.380  0.00  0.00    +0.000 A 
ATOM      7  C   UNL     1       1.041   7.756  21.602  0.00  0.00    +0.000 A 
ATOM      8  C   UNL     1       0.635   9.080  21.768  0.00  0.00    +0.000 A 
ATOM      9 CL   UNL     1      -0.036   9.582  23.270  0.00  0.00    +0.000 Cl
ATOM     10  C   UNL     1       0.763   9.994  20.730  0.00  0.00    +0.000 A 
ATOM     11  C   UNL     1       1.311   9.586  19.513  0.00  0.00    +0.000 A 
ATOM     12 CL   UNL     1       1.420  10.768  18.256  0.00  0.00    +0.000 Cl
ATOM     13  C   UNL     1       1.746   8.261  19.323  0.00  0.00    +0.000 A 
ATOM     14  C   UNL     1       2.339   7.823  17.994  0.00  0.00    +0.000 C 
ENDROOT
BRANCH   1  15
ATOM     15  C   UNL     1       5.036   5.086  17.957  0.00  0.00    +0.000 C 
BRANCH  15  16
ATOM     16  S   UNL     1       6.335   4.694  16.732  0.00  0.00    +0.000 S 
BRANCH  16  17
ATOM     17  C   UNL     1       7.780   4.555  17.845  0.00  0.00    +0.000 C 
BRANCH  17  19
ATOM     18  N   UNL     1       7.971   5.524  20.084  0.00  0.00    +0.000 N 
ATOM     19  C   UNL     1       7.863   5.776  18.746  0.00  0.00    +0.000 C 
ATOM     20  O   UNL     1       7.891   6.930  18.316  0.00  0.00    +0.000 OA
ATOM     21  H   UNL     1       7.963   6.313  20.717  0.00  0.00    +0.000 HD
ATOM     22  H   UNL     1       7.837   4.594  20.459  0.00  0.00    +0.000 HD
ENDBRANCH  17  19
ENDBRANCH  16  17
ENDBRANCH  15  16
ENDBRANCH   1  15
TORSDOF 4
ENDMDL
