MODEL 1
REMARK VINA RESULT:      -8.0      0.000      0.000
REMARK  Name = 
REMARK  3 active torsions:
REMARK  status: ('A' for Active; 'I' for Inactive)
REMARK    1  A    between atoms: C_2  and  C_23
REMARK    2  A    between atoms: N_3  and  C_4
REMARK    3  A    between atoms: C_7  and  N_8
REMARK                            x       y       z     vdW  Elec       q    Type
REMARK                         _______ _______ _______ _____ _____    ______ ____
ROOT
ATOM      1  C   UNL     1       2.734   7.451  18.195  0.00  0.00    +0.000 A 
ATOM      2  C   UNL     1       2.225   8.643  17.662  0.00  0.00    +0.000 A 
ATOM      3  C   UNL     1       1.439   9.512  18.432  0.00  0.00    +0.000 A 
ATOM      4  C   UNL     1       1.145   9.204  19.756  0.00  0.00    +0.000 A 
ATOM      5  C   UNL     1       1.651   8.021  20.306  0.00  0.00    +0.000 A 
ATOM      6  C   UNL     1       2.427   7.144  19.524  0.00  0.00    +0.000 A 
ENDROOT
BRANCH   4   7
ATOM      7  N   UNL     1       0.273  10.039  20.492  0.00  0.00    +0.000 N 
ATOM      8  S   UNL     1      -0.526  11.286  19.752  0.00  0.00    +0.000 S 
ATOM      9  O   UNL     1       0.394  12.385  19.540  0.00  0.00    +0.000 OA
ATOM     10  O   UNL     1      -1.393  10.777  18.711  0.00  0.00    +0.000 OA
ATOM     11  C   UNL     1      -1.554  11.746  21.094  0.00  0.00    +0.000 A 
ATOM     12  C   UNL     1      -2.606  12.645  21.014  0.00  0.00    +0.000 A 
ATOM     13  C   UNL     1      -3.250  12.998  22.202  0.00  0.00    +0.000 A 
ATOM     14  C   UNL     1      -2.811  12.482  23.434  0.00  0.00    +0.000 A 
ATOM     15  C   UNL     1      -1.797  11.517  23.484  0.00  0.00    +0.000 A 
ATOM     16  C   UNL     1      -1.225  11.122  22.284  0.00  0.00    +0.000 A 
ATOM     17  S   UNL     1      -0.146   9.750  22.067  0.00  0.00    +0.000 S 
ATOM     18  O   UNL     1      -0.978   8.569  22.133  0.00  0.00    +0.000 OA
ATOM     19  O   UNL     1       0.990   9.946  22.939  0.00  0.00    +0.000 OA
ENDBRANCH   4   7
BRANCH   1  22
ATOM     20  O   UNL     1       5.570   7.658  17.474  0.00  0.00    +0.000 OA
ATOM     21  C   UNL     1       4.860   6.725  17.109  0.00  0.00    +0.000 C 
ATOM     22  N   UNL     1       3.521   6.549  17.445  0.00  0.00    +0.000 N 
ATOM     23  H   UNL     1       3.114   5.657  17.168  0.00  0.00    +0.000 HD
BRANCH  21  24
ATOM     24  C   UNL     1       5.491   5.665  16.264  0.00  0.00    +0.000 A 
ATOM     25  C   UNL     1       4.948   4.390  16.306  0.00  0.00    +0.000 A 
ATOM     26  C   UNL     1       5.587   3.440  15.550  0.00  0.00    +0.000 A 
ATOM     27  N   UNL     1       6.679   3.706  14.814  0.00  0.00    +0.000 NA
ATOM     28  C   UNL     1       7.121   4.976  14.842  0.00  0.00    +0.000 A 
ATOM     29  N   UNL     1       6.577   5.999  15.526  0.00  0.00    +0.000 NA
ENDBRANCH  21  24
ENDBRANCH   1  22
TORSDOF 3
ENDMDL
MODEL 2
REMARK VINA RESULT:      -8.0      1.398      2.695
REMARK  Name = 
REMARK  3 active torsions:
REMARK  status: ('A' for Active; 'I' for Inactive)
REMARK    1  A    between atoms: C_2  and  C_23
REMARK    2  A    between atoms: N_3  and  C_4
REMARK    3  A    between atoms: C_7  and  N_8
REMARK                            x       y       z     vdW  Elec       q    Type
REMARK                         _______ _______ _______ _____ _____    ______ ____
ROOT
ATOM      1  C   UNL     1       2.827   8.025  18.337  0.00  0.00    +0.000 A 
ATOM      2  C   UNL     1       2.273   7.780  19.601  0.00  0.00    +0.000 A 
ATOM      3  C   UNL     1       1.210   8.548  20.096  0.00  0.00    +0.000 A 
ATOM      4  C   UNL     1       0.678   9.583  19.333  0.00  0.00    +0.000 A 
ATOM      5  C   UNL     1       1.215   9.837  18.066  0.00  0.00    +0.000 A 
ATOM      6  C   UNL     1       2.293   9.073  17.580  0.00  0.00    +0.000 A 
ENDROOT
BRANCH   4   7
ATOM      7  N   UNL     1      -0.328  10.411  19.882  0.00  0.00    +0.000 N 
ATOM      8  S   UNL     1      -0.313  10.807  21.489  0.00  0.00    +0.000 S 
ATOM      9  O   UNL     1      -0.780   9.676  22.265  0.00  0.00    +0.000 OA
ATOM     10  O   UNL     1       0.896  11.534  21.814  0.00  0.00    +0.000 OA
ATOM     11  C   UNL     1      -1.621  11.972  21.466  0.00  0.00    +0.000 A 
ATOM     12  C   UNL     1      -1.959  12.803  22.521  0.00  0.00    +0.000 A 
ATOM     13  C   UNL     1      -3.106  13.589  22.387  0.00  0.00    +0.000 A 
ATOM     14  C   UNL     1      -3.902  13.499  21.231  0.00  0.00    +0.000 A 
ATOM     15  C   UNL     1      -3.500  12.711  20.146  0.00  0.00    +0.000 A 
ATOM     16  C   UNL     1      -2.316  12.001  20.270  0.00  0.00    +0.000 A 
ATOM     17  S   UNL     1      -1.476  11.173  18.965  0.00  0.00    +0.000 S 
ATOM     18  O   UNL     1      -0.847  12.207  18.171  0.00  0.00    +0.000 OA
ATOM     19  O   UNL     1      -2.393  10.211  18.396  0.00  0.00    +0.000 OA
ENDBRANCH   4   7
BRANCH   1  22
ATOM     20  O   UNL     1       2.939   5.159  17.727  0.00  0.00    +0.000 OA
ATOM     21  C   UNL     1       3.902   5.905  17.577  0.00  0.00    +0.000 C 
ATOM     22  N   UNL     1       3.904   7.277  17.812  0.00  0.00    +0.000 N 
ATOM     23  H   UNL     1       4.744   7.771  17.514  0.00  0.00    +0.000 HD
BRANCH  21  24
ATOM     24  C   UNL     1       5.170   5.305  17.060  0.00  0.00    +0.000 A 
ATOM     25  C   UNL     1       6.210   5.109  17.956  0.00  0.00    +0.000 A 
ATOM     26  C   UNL     1       7.369   4.599  17.428  0.00  0.00    +0.000 A 
ATOM     27  N   UNL     1       7.511   4.309  16.124  0.00  0.00    +0.000 NA
ATOM     28  C   UNL     1       6.439   4.535  15.343  0.00  0.00    +0.000 A 
ATOM     29  N   UNL     1       5.247   5.014  15.739  0.00  0.00    +0.000 NA
ENDBRANCH  21  24
ENDBRANCH   1  22
TORSDOF 3
ENDMDL
MODEL 3
REMARK VINA RESULT:      -7.7      7.792      9.347
REMARK  Name = 
REMARK  3 active torsions:
REMARK  status: ('A' for Active; 'I' for Inactive)
REMARK    1  A    between atoms: C_2  and  C_23
REMARK    2  A    between atoms: N_3  and  C_4
REMARK    3  A    between atoms: C_7  and  N_8
REMARK                            x       y       z     vdW  Elec       q    Type
REMARK                         _______ _______ _______ _____ _____    ______ ____
ROOT
ATOM      1  C   UNL     1       8.177   9.558  17.868  0.00  0.00    +0.000 A 
ATOM      2  C   UNL     1       7.904  10.838  17.366  0.00  0.00    +0.000 A 
ATOM      3  C   UNL     1       8.466  11.985  17.942  0.00  0.00    +0.000 A 
ATOM      4  C   UNL     1       9.317  11.875  19.037  0.00  0.00    +0.000 A 
ATOM      5  C   UNL     1       9.607  10.605  19.547  0.00  0.00    +0.000 A 
ATOM      6  C   UNL     1       9.027   9.456  18.975  0.00  0.00    +0.000 A 
ENDROOT
BRANCH   4   7
ATOM      7  N   UNL     1       9.801  13.045  19.667  0.00  0.00    +0.000 N 
ATOM      8  S   UNL     1       9.062  13.641  21.023  0.00  0.00    +0.000 S 
ATOM      9  O   UNL     1       7.838  14.317  20.644  0.00  0.00    +0.000 OA
ATOM     10  O   UNL     1       9.120  12.668  22.093  0.00  0.00    +0.000 OA
ATOM     11  C   UNL     1      10.227  14.892  21.406  0.00  0.00    +0.000 A 
ATOM     12  C   UNL     1      10.240  15.630  22.579  0.00  0.00    +0.000 A 
ATOM     13  C   UNL     1      11.161  16.676  22.677  0.00  0.00    +0.000 A 
ATOM     14  C   UNL     1      12.011  16.983  21.601  0.00  0.00    +0.000 A 
ATOM     15  C   UNL     1      12.035  16.177  20.456  0.00  0.00    +0.000 A 
ATOM     16  C   UNL     1      11.168  15.096  20.412  0.00  0.00    +0.000 A 
ATOM     17  S   UNL     1      11.205  13.802  19.222  0.00  0.00    +0.000 S 
ATOM     18  O   UNL     1      12.332  12.965  19.573  0.00  0.00    +0.000 OA
ATOM     19  O   UNL     1      11.065  14.405  17.916  0.00  0.00    +0.000 OA
ENDBRANCH   4   7
BRANCH   1  22
ATOM     20  O   UNL     1       8.239   6.830  18.943  0.00  0.00    +0.000 OA
ATOM     21  C   UNL     1       7.716   7.106  17.867  0.00  0.00    +0.000 C 
ATOM     22  N   UNL     1       7.621   8.382  17.319  0.00  0.00    +0.000 N 
ATOM     23  H   UNL     1       7.043   8.457  16.483  0.00  0.00    +0.000 HD
BRANCH  21  24
ATOM     24  C   UNL     1       7.093   5.989  17.093  0.00  0.00    +0.000 A 
ATOM     25  C   UNL     1       6.110   5.234  17.715  0.00  0.00    +0.000 A 
ATOM     26  C   UNL     1       5.600   4.192  16.983  0.00  0.00    +0.000 A 
ATOM     27  N   UNL     1       6.020   3.898  15.741  0.00  0.00    +0.000 NA
ATOM     28  C   UNL     1       6.976   4.695  15.231  0.00  0.00    +0.000 A 
ATOM     29  N   UNL     1       7.544   5.753  15.837  0.00  0.00    +0.000 NA
ENDBRANCH  21  24
ENDBRANCH   1  22
TORSDOF 3
ENDMDL
MODEL 4
REMARK VINA RESULT:      -7.6      3.838      5.092
REMARK  Name = 
REMARK  3 active torsions:
REMARK  status: ('A' for Active; 'I' for Inactive)
REMARK    1  A    between atoms: C_2  and  C_23
REMARK    2  A    between atoms: N_3  and  C_4
REMARK    3  A    between atoms: C_7  and  N_8
REMARK                            x       y       z     vdW  Elec       q    Type
REMARK                         _______ _______ _______ _____ _____    ______ ____
ROOT
ATOM      1  C   UNL     1       1.426   8.494  20.234  0.00  0.00    +0.000 A 
ATOM      2  C   UNL     1       1.164   9.412  21.260  0.00  0.00    +0.000 A 
ATOM      3  C   UNL     1       0.985  10.776  20.993  0.00  0.00    +0.000 A 
ATOM      4  C   UNL     1       1.065  11.252  19.689  0.00  0.00    +0.000 A 
ATOM      5  C   UNL     1       1.319  10.349  18.651  0.00  0.00    +0.000 A 
ATOM      6  C   UNL     1       1.514   8.981  18.925  0.00  0.00    +0.000 A 
ENDROOT
BRANCH   4   7
ATOM      7  N   UNL     1       0.978  12.642  19.445  0.00  0.00    +0.000 N 
ATOM      8  S   UNL     1       2.347  13.563  19.309  0.00  0.00    +0.000 S 
ATOM      9  O   UNL     1       2.898  13.800  20.628  0.00  0.00    +0.000 OA
ATOM     10  O   UNL     1       3.150  13.104  18.195  0.00  0.00    +0.000 OA
ATOM     11  C   UNL     1       1.586  15.059  18.808  0.00  0.00    +0.000 A 
ATOM     12  C   UNL     1       2.263  16.179  18.352  0.00  0.00    +0.000 A 
ATOM     13  C   UNL     1       1.518  17.335  18.110  0.00  0.00    +0.000 A 
ATOM     14  C   UNL     1       0.135  17.359  18.361  0.00  0.00    +0.000 A 
ATOM     15  C   UNL     1      -0.542  16.195  18.747  0.00  0.00    +0.000 A 
ATOM     16  C   UNL     1       0.206  15.038  18.905  0.00  0.00    +0.000 A 
ATOM     17  S   UNL     1      -0.446  13.418  19.113  0.00  0.00    +0.000 S 
ATOM     18  O   UNL     1      -0.924  13.007  17.811  0.00  0.00    +0.000 OA
ATOM     19  O   UNL     1      -1.298  13.436  20.280  0.00  0.00    +0.000 OA
ENDBRANCH   4   7
BRANCH   1  22
ATOM     20  O   UNL     1       3.144   6.617  18.775  0.00  0.00    +0.000 OA
ATOM     21  C   UNL     1       2.430   6.269  19.711  0.00  0.00    +0.000 C 
ATOM     22  N   UNL     1       1.621   7.114  20.467  0.00  0.00    +0.000 N 
ATOM     23  H   UNL     1       1.194   6.691  21.289  0.00  0.00    +0.000 HD
BRANCH  21  24
ATOM     24  C   UNL     1       2.455   4.827  20.105  0.00  0.00    +0.000 A 
ATOM     25  C   UNL     1       1.351   4.314  20.770  0.00  0.00    +0.000 A 
ATOM     26  C   UNL     1       1.438   2.999  21.151  0.00  0.00    +0.000 A 
ATOM     27  N   UNL     1       2.521   2.240  20.912  0.00  0.00    +0.000 NA
ATOM     28  C   UNL     1       3.534   2.836  20.258  0.00  0.00    +0.000 A 
ATOM     29  N   UNL     1       3.566   4.107  19.818  0.00  0.00    +0.000 NA
ENDBRANCH  21  24
ENDBRANCH   1  22
TORSDOF 3
ENDMDL
MODEL 5
REMARK VINA RESULT:      -7.6      1.069      1.462
REMARK  Name = 
REMARK  3 active torsions:
REMARK  status: ('A' for Active; 'I' for Inactive)
REMARK    1  A    between atoms: C_2  and  C_23
REMARK    2  A    between atoms: N_3  and  C_4
REMARK    3  A    between atoms: C_7  and  N_8
REMARK                            x       y       z     vdW  Elec       q    Type
REMARK                         _______ _______ _______ _____ _____    ______ ____
ROOT
ATOM      1  C   UNL     1       2.893   7.711  18.389  0.00  0.00    +0.000 A 
ATOM      2  C   UNL     1       2.460   7.380  19.680  0.00  0.00    +0.000 A 
ATOM      3  C   UNL     1       1.503   8.153  20.351  0.00  0.00    +0.000 A 
ATOM      4  C   UNL     1       0.957   9.278  19.742  0.00  0.00    +0.000 A 
ATOM      5  C   UNL     1       1.373   9.619  18.450  0.00  0.00    +0.000 A 
ATOM      6  C   UNL     1       2.347   8.849  17.786  0.00  0.00    +0.000 A 
ENDROOT
BRANCH   4   7
ATOM      7  N   UNL     1       0.065  10.102  20.466  0.00  0.00    +0.000 N 
ATOM      8  S   UNL     1      -0.823  11.267  19.695  0.00  0.00    +0.000 S 
ATOM      9  O   UNL     1       0.029  12.401  19.398  0.00  0.00    +0.000 OA
ATOM     10  O   UNL     1      -1.694  10.662  18.709  0.00  0.00    +0.000 OA
ATOM     11  C   UNL     1      -1.832  11.740  21.047  0.00  0.00    +0.000 A 
ATOM     12  C   UNL     1      -2.933  12.576  20.959  0.00  0.00    +0.000 A 
ATOM     13  C   UNL     1      -3.557  12.955  22.150  0.00  0.00    +0.000 A 
ATOM     14  C   UNL     1      -3.052  12.525  23.390  0.00  0.00    +0.000 A 
ATOM     15  C   UNL     1      -1.987  11.618  23.452  0.00  0.00    +0.000 A 
ATOM     16  C   UNL     1      -1.433  11.193  22.254  0.00  0.00    +0.000 A 
ATOM     17  S   UNL     1      -0.288   9.871  22.067  0.00  0.00    +0.000 S 
ATOM     18  O   UNL     1      -1.053   8.652  22.218  0.00  0.00    +0.000 OA
ATOM     19  O   UNL     1       0.862  10.169  22.889  0.00  0.00    +0.000 OA
ENDBRANCH   4   7
BRANCH   1  22
ATOM     20  O   UNL     1       2.904   4.841  17.789  0.00  0.00    +0.000 OA
ATOM     21  C   UNL     1       3.823   5.587  17.466  0.00  0.00    +0.000 C 
ATOM     22  N   UNL     1       3.863   6.961  17.687  0.00  0.00    +0.000 N 
ATOM     23  H   UNL     1       4.636   7.453  17.242  0.00  0.00    +0.000 HD
BRANCH  21  24
ATOM     24  C   UNL     1       4.982   4.985  16.738  0.00  0.00    +0.000 A 
ATOM     25  C   UNL     1       6.212   4.962  17.378  0.00  0.00    +0.000 A 
ATOM     26  C   UNL     1       7.255   4.443  16.654  0.00  0.00    +0.000 A 
ATOM     27  N   UNL     1       7.117   3.987  15.398  0.00  0.00    +0.000 NA
ATOM     28  C   UNL     1       5.880   4.053  14.873  0.00  0.00    +0.000 A 
ATOM     29  N   UNL     1       4.776   4.522  15.481  0.00  0.00    +0.000 NA
ENDBRANCH  21  24
ENDBRANCH   1  22
TORSDOF 3
ENDMDL
MODEL 6
REMARK VINA RESULT:      -7.6      1.432      1.801
REMARK  Name = 
REMARK  3 active torsions:
REMARK  status: ('A' for Active; 'I' for Inactive)
REMARK    1  A    between atoms: C_2  and  C_23
REMARK    2  A    between atoms: N_3  and  C_4
REMARK    3  A    between atoms: C_7  and  N_8
REMARK                            x       y       z     vdW  Elec       q    Type
REMARK                         _______ _______ _______ _____ _____    ______ ____
ROOT
ATOM      1  C   UNL     1       2.788   8.161  18.253  0.00  0.00    +0.000 A 
ATOM      2  C   UNL     1       2.233   7.931  19.519  0.00  0.00    +0.000 A 
ATOM      3  C   UNL     1       1.196   8.730  20.020  0.00  0.00    +0.000 A 
ATOM      4  C   UNL     1       0.691   9.780  19.260  0.00  0.00    +0.000 A 
ATOM      5  C   UNL     1       1.229  10.020  17.991  0.00  0.00    +0.000 A 
ATOM      6  C   UNL     1       2.282   9.224  17.499  0.00  0.00    +0.000 A 
ENDROOT
BRANCH   4   7
ATOM      7  N   UNL     1      -0.288  10.637  19.814  0.00  0.00    +0.000 N 
ATOM      8  S   UNL     1      -1.508  11.245  18.875  0.00  0.00    +0.000 S 
ATOM      9  O   UNL     1      -0.990  12.320  18.054  0.00  0.00    +0.000 OA
ATOM     10  O   UNL     1      -2.311  10.167  18.338  0.00  0.00    +0.000 OA
ATOM     11  C   UNL     1      -2.446  11.996  20.150  0.00  0.00    +0.000 A 
ATOM     12  C   UNL     1      -3.718  12.522  19.992  0.00  0.00    +0.000 A 
ATOM     13  C   UNL     1      -4.281  13.197  21.077  0.00  0.00    +0.000 A 
ATOM     14  C   UNL     1      -3.555  13.363  22.270  0.00  0.00    +0.000 A 
ATOM     15  C   UNL     1      -2.303  12.757  22.435  0.00  0.00    +0.000 A 
ATOM     16  C   UNL     1      -1.798  12.024  21.372  0.00  0.00    +0.000 A 
ATOM     17  S   UNL     1      -0.398  10.961  21.434  0.00  0.00    +0.000 S 
ATOM     18  O   UNL     1      -0.827   9.770  22.133  0.00  0.00    +0.000 OA
ATOM     19  O   UNL     1       0.731  11.751  21.872  0.00  0.00    +0.000 OA
ENDBRANCH   4   7
BRANCH   1  22
ATOM     20  O   UNL     1       2.917   5.251  17.908  0.00  0.00    +0.000 OA
ATOM     21  C   UNL     1       3.850   5.994  17.617  0.00  0.00    +0.000 C 
ATOM     22  N   UNL     1       3.840   7.382  17.722  0.00  0.00    +0.000 N 
ATOM     23  H   UNL     1       4.646   7.857  17.318  0.00  0.00    +0.000 HD
BRANCH  21  24
ATOM     24  C   UNL     1       5.090   5.366  17.067  0.00  0.00    +0.000 A 
ATOM     25  C   UNL     1       6.094   5.017  17.958  0.00  0.00    +0.000 A 
ATOM     26  C   UNL     1       7.231   4.486  17.403  0.00  0.00    +0.000 A 
ATOM     27  N   UNL     1       7.386   4.315  16.079  0.00  0.00    +0.000 NA
ATOM     28  C   UNL     1       6.350   4.685  15.305  0.00  0.00    +0.000 A 
ATOM     29  N   UNL     1       5.180   5.199  15.725  0.00  0.00    +0.000 NA
ENDBRANCH  21  24
ENDBRANCH   1  22
TORSDOF 3
ENDMDL
MODEL 7
REMARK VINA RESULT:      -7.6      3.176      3.982
REMARK  Name = 
REMARK  3 active torsions:
REMARK  status: ('A' for Active; 'I' for Inactive)
REMARK    1  A    between atoms: C_2  and  C_23
REMARK    2  A    between atoms: N_3  and  C_4
REMARK    3  A    between atoms: C_7  and  N_8
REMARK                            x       y       z     vdW  Elec       q    Type
REMARK                         _______ _______ _______ _____ _____    ______ ____
ROOT
ATOM      1  C   UNL     1       1.797   7.803  19.371  0.00  0.00    +0.000 A 
ATOM      2  C   UNL     1       1.413   8.417  20.571  0.00  0.00    +0.000 A 
ATOM      3  C   UNL     1       1.055   9.771  20.618  0.00  0.00    +0.000 A 
ATOM      4  C   UNL     1       1.073  10.542  19.461  0.00  0.00    +0.000 A 
ATOM      5  C   UNL     1       1.447   9.944  18.252  0.00  0.00    +0.000 A 
ATOM      6  C   UNL     1       1.822   8.587  18.212  0.00  0.00    +0.000 A 
ENDROOT
BRANCH   4   7
ATOM      7  N   UNL     1       0.803  11.928  19.539  0.00  0.00    +0.000 N 
ATOM      8  S   UNL     1       2.038  13.026  19.639  0.00  0.00    +0.000 S 
ATOM      9  O   UNL     1       2.572  13.025  20.986  0.00  0.00    +0.000 OA
ATOM     10  O   UNL     1       2.878  12.942  18.463  0.00  0.00    +0.000 OA
ATOM     11  C   UNL     1       1.081  14.485  19.480  0.00  0.00    +0.000 A 
ATOM     12  C   UNL     1       1.601  15.757  19.303  0.00  0.00    +0.000 A 
ATOM     13  C   UNL     1       0.708  16.831  19.319  0.00  0.00    +0.000 A 
ATOM     14  C   UNL     1      -0.663  16.617  19.546  0.00  0.00    +0.000 A 
ATOM     15  C   UNL     1      -1.177  15.318  19.646  0.00  0.00    +0.000 A 
ATOM     16  C   UNL     1      -0.283  14.263  19.548  0.00  0.00    +0.000 A 
ATOM     17  S   UNL     1      -0.715  12.568  19.370  0.00  0.00    +0.000 S 
ATOM     18  O   UNL     1      -1.154  12.405  18.001  0.00  0.00    +0.000 OA
ATOM     19  O   UNL     1      -1.546  12.208  20.497  0.00  0.00    +0.000 OA
ENDBRANCH   4   7
BRANCH   1  22
ATOM     20  O   UNL     1       4.077   6.619  17.956  0.00  0.00    +0.000 OA
ATOM     21  C   UNL     1       3.254   5.943  18.567  0.00  0.00    +0.000 C 
ATOM     22  N   UNL     1       2.174   6.444  19.288  0.00  0.00    +0.000 N 
ATOM     23  H   UNL     1       1.663   5.760  19.844  0.00  0.00    +0.000 HD
BRANCH  21  24
ATOM     24  C   UNL     1       3.444   4.460  18.576  0.00  0.00    +0.000 A 
ATOM     25  C   UNL     1       2.743   3.708  17.647  0.00  0.00    +0.000 A 
ATOM     26  C   UNL     1       2.913   2.349  17.723  0.00  0.00    +0.000 A 
ATOM     27  N   UNL     1       3.700   1.762  18.641  0.00  0.00    +0.000 NA
ATOM     28  C   UNL     1       4.337   2.585  19.493  0.00  0.00    +0.000 A 
ATOM     29  N   UNL     1       4.267   3.928  19.512  0.00  0.00    +0.000 NA
ENDBRANCH  21  24
ENDBRANCH   1  22
TORSDOF 3
ENDMDL
MODEL 8
REMARK VINA RESULT:      -7.5      3.038      3.677
REMARK  Name = 
REMARK  3 active torsions:
REMARK  status: ('A' for Active; 'I' for Inactive)
REMARK    1  A    between atoms: C_2  and  C_23
REMARK    2  A    between atoms: N_3  and  C_4
REMARK    3  A    between atoms: C_7  and  N_8
REMARK                            x       y       z     vdW  Elec       q    Type
REMARK                         _______ _______ _______ _____ _____    ______ ____
ROOT
ATOM      1  C   UNL     1       1.858   7.737  19.228  0.00  0.00    +0.000 A 
ATOM      2  C   UNL     1       1.928   8.590  18.119  0.00  0.00    +0.000 A 
ATOM      3  C   UNL     1       1.620   9.954  18.224  0.00  0.00    +0.000 A 
ATOM      4  C   UNL     1       1.235  10.493  19.447  0.00  0.00    +0.000 A 
ATOM      5  C   UNL     1       1.167   9.657  20.567  0.00  0.00    +0.000 A 
ATOM      6  C   UNL     1       1.461   8.284  20.453  0.00  0.00    +0.000 A 
ENDROOT
BRANCH   4   7
ATOM      7  N   UNL     1       0.836  11.848  19.520  0.00  0.00    +0.000 N 
ATOM      8  S   UNL     1      -0.768  12.259  19.478  0.00  0.00    +0.000 S 
ATOM      9  O   UNL     1      -1.253  12.159  18.117  0.00  0.00    +0.000 OA
ATOM     10  O   UNL     1      -1.464  11.672  20.603  0.00  0.00    +0.000 OA
ATOM     11  C   UNL     1      -0.590  13.968  19.822  0.00  0.00    +0.000 A 
ATOM     12  C   UNL     1      -1.636  14.831  20.104  0.00  0.00    +0.000 A 
ATOM     13  C   UNL     1      -1.339  16.190  20.233  0.00  0.00    +0.000 A 
ATOM     14  C   UNL     1      -0.026  16.656  20.043  0.00  0.00    +0.000 A 
ATOM     15  C   UNL     1       1.028  15.757  19.836  0.00  0.00    +0.000 A 
ATOM     16  C   UNL     1       0.722  14.406  19.790  0.00  0.00    +0.000 A 
ATOM     17  S   UNL     1       1.889  13.090  19.815  0.00  0.00    +0.000 S 
ATOM     18  O   UNL     1       2.365  13.001  21.178  0.00  0.00    +0.000 OA
ATOM     19  O   UNL     1       2.782  13.277  18.694  0.00  0.00    +0.000 OA
ENDBRANCH   4   7
BRANCH   1  22
ATOM     20  O   UNL     1       4.254   6.429  18.155  0.00  0.00    +0.000 OA
ATOM     21  C   UNL     1       3.299   5.798  18.600  0.00  0.00    +0.000 C 
ATOM     22  N   UNL     1       2.151   6.357  19.156  0.00  0.00    +0.000 N 
ATOM     23  H   UNL     1       1.513   5.697  19.596  0.00  0.00    +0.000 HD
BRANCH  21  24
ATOM     24  C   UNL     1       3.385   4.306  18.584  0.00  0.00    +0.000 A 
ATOM     25  C   UNL     1       2.559   3.615  17.710  0.00  0.00    +0.000 A 
ATOM     26  C   UNL     1       2.640   2.247  17.763  0.00  0.00    +0.000 A 
ATOM     27  N   UNL     1       3.457   1.596  18.608  0.00  0.00    +0.000 NA
ATOM     28  C   UNL     1       4.218   2.362  19.411  0.00  0.00    +0.000 A 
ATOM     29  N   UNL     1       4.243   3.707  19.445  0.00  0.00    +0.000 NA
ENDBRANCH  21  24
ENDBRANCH   1  22
TORSDOF 3
ENDMDL
MODEL 9
REMARK VINA RESULT:      -7.5      3.248      4.892
REMARK  Name = 
REMARK  3 active torsions:
REMARK  status: ('A' for Active; 'I' for Inactive)
REMARK    1  A    between atoms: C_2  and  C_23
REMARK    2  A    between atoms: N_3  and  C_4
REMARK    3  A    between atoms: C_7  and  N_8
REMARK                            x       y       z     vdW  Elec       q    Type
REMARK                         _______ _______ _______ _____ _____    ______ ____
ROOT
ATOM      1  C   UNL     1       0.134   9.256  21.460  0.00  0.00    +0.000 A 
ATOM      2  C   UNL     1      -0.335  10.104  20.448  0.00  0.00    +0.000 A 
ATOM      3  C   UNL     1      -1.034  11.282  20.746  0.00  0.00    +0.000 A 
ATOM      4  C   UNL     1      -1.278  11.636  22.069  0.00  0.00    +0.000 A 
ATOM      5  C   UNL     1      -0.811  10.805  23.092  0.00  0.00    +0.000 A 
ATOM      6  C   UNL     1      -0.124   9.614  22.788  0.00  0.00    +0.000 A 
ENDROOT
BRANCH   4   7
ATOM      7  N   UNL     1      -2.066  12.776  22.354  0.00  0.00    +0.000 N 
ATOM      8  S   UNL     1      -3.650  12.615  22.810  0.00  0.00    +0.000 S 
ATOM      9  O   UNL     1      -4.456  12.314  21.644  0.00  0.00    +0.000 OA
ATOM     10  O   UNL     1      -3.741  11.861  24.042  0.00  0.00    +0.000 OA
ATOM     11  C   UNL     1      -3.959  14.292  23.212  0.00  0.00    +0.000 A 
ATOM     12  C   UNL     1      -5.098  14.757  23.849  0.00  0.00    +0.000 A 
ATOM     13  C   UNL     1      -5.247  16.139  23.986  0.00  0.00    +0.000 A 
ATOM     14  C   UNL     1      -4.285  17.017  23.458  0.00  0.00    +0.000 A 
ATOM     15  C   UNL     1      -3.104  16.525  22.888  0.00  0.00    +0.000 A 
ATOM     16  C   UNL     1      -2.941  15.150  22.833  0.00  0.00    +0.000 A 
ATOM     17  S   UNL     1      -1.451  14.311  22.422  0.00  0.00    +0.000 S 
ATOM     18  O   UNL     1      -0.589  14.431  23.578  0.00  0.00    +0.000 OA
ATOM     19  O   UNL     1      -1.048  14.756  21.107  0.00  0.00    +0.000 OA
ENDBRANCH   4   7
BRANCH   1  22
ATOM     20  O   UNL     1       1.939   8.644  19.231  0.00  0.00    +0.000 OA
ATOM     21  C   UNL     1       1.651   7.820  20.095  0.00  0.00    +0.000 C 
ATOM     22  N   UNL     1       0.832   8.056  21.195  0.00  0.00    +0.000 N 
ATOM     23  H   UNL     1       0.799   7.308  21.885  0.00  0.00    +0.000 HD
BRANCH  21  24
ATOM     24  C   UNL     1       2.258   6.458  19.983  0.00  0.00    +0.000 A 
ATOM     25  C   UNL     1       1.690   5.429  20.720  0.00  0.00    +0.000 A 
ATOM     26  C   UNL     1       2.307   4.209  20.622  0.00  0.00    +0.000 A 
ATOM     27  N   UNL     1       3.403   4.003  19.871  0.00  0.00    +0.000 NA
ATOM     28  C   UNL     1       3.870   5.068  19.195  0.00  0.00    +0.000 A 
ATOM     29  N   UNL     1       3.348   6.307  19.193  0.00  0.00    +0.000 NA
ENDBRANCH  21  24
ENDBRANCH   1  22
TORSDOF 3
ENDMDL
