MODEL 1
REMARK VINA RESULT:      -8.3      0.000      0.000
REMARK  Name = 
REMARK  4 active torsions:
REMARK  status: ('A' for Active; 'I' for Inactive)
REMARK    1  A    between atoms: C_2  and  C_3
REMARK    2  A    between atoms: C_3  and  C_4
REMARK    3  A    between atoms: N_10  and  N_11
REMARK    4  A    between atoms: C_16  and  C_17
REMARK                            x       y       z     vdW  Elec       q    Type
REMARK                         _______ _______ _______ _____ _____    ______ ____
ROOT
ATOM      1  N   UNL     1       8.349   7.491  18.619  0.00  0.00    +0.000 N 
ATOM      2  C   UNL     1       7.604   6.414  18.108  0.00  0.00    +0.000 A 
ATOM      3  N   UNL     1       7.083   5.548  19.006  0.00  0.00    +0.000 NA
ATOM      4  N   UNL     1       6.432   4.439  18.587  0.00  0.00    +0.000 NA
ATOM      5  C   UNL     1       6.339   4.227  17.265  0.00  0.00    +0.000 A 
ATOM      6  C   UNL     1       6.857   5.127  16.349  0.00  0.00    +0.000 A 
ATOM      7  N   UNL     1       7.492   6.249  16.770  0.00  0.00    +0.000 NA
ATOM      8  H   UNL     1       8.138   7.588  19.615  0.00  0.00    +0.000 HD
ENDROOT
BRANCH   6   9
ATOM      9  C   UNL     1       6.833   4.869  14.891  0.00  0.00    +0.000 A 
ATOM     10  C   UNL     1       5.959   3.928  14.311  0.00  0.00    +0.000 A 
ATOM     11  C   UNL     1       6.033   3.599  12.953  0.00  0.00    +0.000 A 
ATOM     12  C   UNL     1       6.972   4.221  12.137  0.00  0.00    +0.000 A 
ATOM     13  C   UNL     1       7.813   5.192  12.670  0.00  0.00    +0.000 A 
ATOM     14  C   UNL     1       7.740   5.514  14.031  0.00  0.00    +0.000 A 
ENDBRANCH   6   9
BRANCH   1  17
ATOM     15  O   UNL     1       9.135   9.847  19.664  0.00  0.00    +0.000 OA
ATOM     16  C   UNL     1       8.724   9.830  18.505  0.00  0.00    +0.000 C 
ATOM     17  N   UNL     1       8.197   8.695  17.907  0.00  0.00    +0.000 N 
ATOM     18  H   UNL     1       8.125   8.598  16.896  0.00  0.00    +0.000 HD
BRANCH  16  19
ATOM     19  C   UNL     1       8.711  11.063  17.620  0.00  0.00    +0.000 C 
BRANCH  19  20
ATOM     20  C   UNL     1       9.758  12.084  17.986  0.00  0.00    +0.000 A 
ATOM     21  C   UNL     1      11.120  11.806  17.799  0.00  0.00    +0.000 A 
ATOM     22  C   UNL     1      12.090  12.755  18.128  0.00  0.00    +0.000 A 
ATOM     23  C   UNL     1      11.711  13.994  18.641  0.00  0.00    +0.000 A 
ATOM     24  C   UNL     1      10.361  14.289  18.815  0.00  0.00    +0.000 A 
ATOM     25  C   UNL     1       9.388  13.342  18.486  0.00  0.00    +0.000 A 
ENDBRANCH  19  20
ENDBRANCH  16  19
ENDBRANCH   1  17
TORSDOF 4
ENDMDL
MODEL 2
REMARK VINA RESULT:      -8.3      7.694      9.583
REMARK  Name = 
REMARK  4 active torsions:
REMARK  status: ('A' for Active; 'I' for Inactive)
REMARK    1  A    between atoms: C_2  and  C_3
REMARK    2  A    between atoms: C_3  and  C_4
REMARK    3  A    between atoms: N_10  and  N_11
REMARK    4  A    between atoms: C_16  and  C_17
REMARK                            x       y       z     vdW  Elec       q    Type
REMARK                         _______ _______ _______ _____ _____    ______ ____
ROOT
ATOM      1  N   UNL     1       1.705   7.824  21.273  0.00  0.00    +0.000 N 
ATOM      2  C   UNL     1       0.995   9.031  21.156  0.00  0.00    +0.000 A 
ATOM      3  N   UNL     1       1.031   9.869  22.216  0.00  0.00    +0.000 NA
ATOM      4  N   UNL     1       0.299  11.007  22.212  0.00  0.00    +0.000 NA
ATOM      5  C   UNL     1      -0.465  11.258  21.138  0.00  0.00    +0.000 A 
ATOM      6  C   UNL     1      -0.484  10.407  20.047  0.00  0.00    +0.000 A 
ATOM      7  N   UNL     1       0.267   9.277  20.042  0.00  0.00    +0.000 NA
ATOM      8  H   UNL     1       2.363   7.909  22.052  0.00  0.00    +0.000 HD
ENDROOT
BRANCH   6   9
ATOM      9  C   UNL     1      -1.380  10.629  18.889  0.00  0.00    +0.000 A 
ATOM     10  C   UNL     1      -2.483  11.504  18.952  0.00  0.00    +0.000 A 
ATOM     11  C   UNL     1      -3.397  11.609  17.898  0.00  0.00    +0.000 A 
ATOM     12  C   UNL     1      -3.215  10.855  16.744  0.00  0.00    +0.000 A 
ATOM     13  C   UNL     1      -2.107  10.022  16.631  0.00  0.00    +0.000 A 
ATOM     14  C   UNL     1      -1.198   9.915  17.691  0.00  0.00    +0.000 A 
ENDBRANCH   6   9
BRANCH   1  17
ATOM     15  O   UNL     1       2.037   5.203  20.741  0.00  0.00    +0.000 OA
ATOM     16  C   UNL     1       2.348   6.019  19.875  0.00  0.00    +0.000 C 
ATOM     17  N   UNL     1       2.319   7.390  20.083  0.00  0.00    +0.000 N 
ATOM     18  H   UNL     1       2.296   8.055  19.313  0.00  0.00    +0.000 HD
BRANCH  16  19
ATOM     19  C   UNL     1       2.840   5.609  18.499  0.00  0.00    +0.000 C 
BRANCH  19  20
ATOM     20  C   UNL     1       4.317   5.831  18.292  0.00  0.00    +0.000 A 
ATOM     21  C   UNL     1       4.774   6.658  17.255  0.00  0.00    +0.000 A 
ATOM     22  C   UNL     1       6.142   6.872  17.069  0.00  0.00    +0.000 A 
ATOM     23  C   UNL     1       7.066   6.269  17.919  0.00  0.00    +0.000 A 
ATOM     24  C   UNL     1       6.625   5.460  18.964  0.00  0.00    +0.000 A 
ATOM     25  C   UNL     1       5.257   5.245  19.153  0.00  0.00    +0.000 A 
ENDBRANCH  19  20
ENDBRANCH  16  19
ENDBRANCH   1  17
TORSDOF 4
ENDMDL
MODEL 3
REMARK VINA RESULT:      -8.3      5.434      8.530
REMARK  Name = 
REMARK  4 active torsions:
REMARK  status: ('A' for Active; 'I' for Inactive)
REMARK    1  A    between atoms: C_2  and  C_3
REMARK    2  A    between atoms: C_3  and  C_4
REMARK    3  A    between atoms: N_10  and  N_11
REMARK    4  A    between atoms: C_16  and  C_17
REMARK                            x       y       z     vdW  Elec       q    Type
REMARK                         _______ _______ _______ _____ _____    ______ ____
ROOT
ATOM      1  N   UNL     1       7.741   4.622  15.700  0.00  0.00    +0.000 N 
ATOM      2  C   UNL     1       6.923   4.850  16.820  0.00  0.00    +0.000 A 
ATOM      3  N   UNL     1       7.465   5.547  17.844  0.00  0.00    +0.000 NA
ATOM      4  N   UNL     1       6.769   5.728  18.990  0.00  0.00    +0.000 NA
ATOM      5  C   UNL     1       5.546   5.183  19.076  0.00  0.00    +0.000 A 
ATOM      6  C   UNL     1       4.988   4.487  18.017  0.00  0.00    +0.000 A 
ATOM      7  N   UNL     1       5.677   4.324  16.860  0.00  0.00    +0.000 NA
ATOM      8  H   UNL     1       8.533   5.268  15.741  0.00  0.00    +0.000 HD
ENDROOT
BRANCH   6   9
ATOM      9  C   UNL     1       3.673   3.814  18.123  0.00  0.00    +0.000 A 
ATOM     10  C   UNL     1       2.467   4.535  18.215  0.00  0.00    +0.000 A 
ATOM     11  C   UNL     1       1.244   3.893  18.445  0.00  0.00    +0.000 A 
ATOM     12  C   UNL     1       1.198   2.509  18.567  0.00  0.00    +0.000 A 
ATOM     13  C   UNL     1       2.365   1.766  18.428  0.00  0.00    +0.000 A 
ATOM     14  C   UNL     1       3.587   2.412  18.204  0.00  0.00    +0.000 A 
ENDBRANCH   6   9
BRANCH   1  17
ATOM     15  O   UNL     1       8.792   5.884  13.564  0.00  0.00    +0.000 OA
ATOM     16  C   UNL     1       7.746   5.255  13.414  0.00  0.00    +0.000 C 
ATOM     17  N   UNL     1       7.065   4.660  14.466  0.00  0.00    +0.000 N 
ATOM     18  H   UNL     1       6.381   3.921  14.321  0.00  0.00    +0.000 HD
BRANCH  16  19
ATOM     19  C   UNL     1       7.065   5.102  12.067  0.00  0.00    +0.000 C 
BRANCH  19  20
ATOM     20  C   UNL     1       6.661   3.684  11.749  0.00  0.00    +0.000 A 
ATOM     21  C   UNL     1       5.311   3.306  11.776  0.00  0.00    +0.000 A 
ATOM     22  C   UNL     1       4.935   1.995  11.472  0.00  0.00    +0.000 A 
ATOM     23  C   UNL     1       5.902   1.051  11.132  0.00  0.00    +0.000 A 
ATOM     24  C   UNL     1       7.244   1.419  11.085  0.00  0.00    +0.000 A 
ATOM     25  C   UNL     1       7.623   2.729  11.388  0.00  0.00    +0.000 A 
ENDBRANCH  19  20
ENDBRANCH  16  19
ENDBRANCH   1  17
TORSDOF 4
ENDMDL
MODEL 4
REMARK VINA RESULT:      -8.3      8.046     10.801
REMARK  Name = 
REMARK  4 active torsions:
REMARK  status: ('A' for Active; 'I' for Inactive)
REMARK    1  A    between atoms: C_2  and  C_3
REMARK    2  A    between atoms: C_3  and  C_4
REMARK    3  A    between atoms: N_10  and  N_11
REMARK    4  A    between atoms: C_16  and  C_17
REMARK                            x       y       z     vdW  Elec       q    Type
REMARK                         _______ _______ _______ _____ _____    ______ ____
ROOT
ATOM      1  N   UNL     1       1.567   8.188  21.419  0.00  0.00    +0.000 N 
ATOM      2  C   UNL     1       0.826   9.362  21.198  0.00  0.00    +0.000 A 
ATOM      3  N   UNL     1       0.820  10.280  22.191  0.00  0.00    +0.000 NA
ATOM      4  N   UNL     1       0.057  11.392  22.087  0.00  0.00    +0.000 NA
ATOM      5  C   UNL     1      -0.695  11.538  20.985  0.00  0.00    +0.000 A 
ATOM      6  C   UNL     1      -0.670  10.606  19.962  0.00  0.00    +0.000 A 
ATOM      7  N   UNL     1       0.112   9.501  20.057  0.00  0.00    +0.000 NA
ATOM      8  H   UNL     1       2.208   8.352  22.199  0.00  0.00    +0.000 HD
ENDROOT
BRANCH   6   9
ATOM      9  C   UNL     1      -1.550  10.713  18.777  0.00  0.00    +0.000 A 
ATOM     10  C   UNL     1      -2.680  11.555  18.756  0.00  0.00    +0.000 A 
ATOM     11  C   UNL     1      -3.577  11.552  17.682  0.00  0.00    +0.000 A 
ATOM     12  C   UNL     1      -3.352  10.720  16.591  0.00  0.00    +0.000 A 
ATOM     13  C   UNL     1      -2.217   9.916  16.559  0.00  0.00    +0.000 A 
ATOM     14  C   UNL     1      -1.325   9.918  17.638  0.00  0.00    +0.000 A 
ENDBRANCH   6   9
BRANCH   1  17
ATOM     15  O   UNL     1       1.491   5.564  20.812  0.00  0.00    +0.000 OA
ATOM     16  C   UNL     1       2.026   6.333  20.014  0.00  0.00    +0.000 C 
ATOM     17  N   UNL     1       2.213   7.682  20.276  0.00  0.00    +0.000 N 
ATOM     18  H   UNL     1       2.385   8.360  19.536  0.00  0.00    +0.000 HD
BRANCH  16  19
ATOM     19  C   UNL     1       2.576   5.877  18.676  0.00  0.00    +0.000 C 
BRANCH  19  20
ATOM     20  C   UNL     1       2.864   4.398  18.611  0.00  0.00    +0.000 A 
ATOM     21  C   UNL     1       2.091   3.557  17.797  0.00  0.00    +0.000 A 
ATOM     22  C   UNL     1       2.364   2.189  17.729  0.00  0.00    +0.000 A 
ATOM     23  C   UNL     1       3.415   1.648  18.466  0.00  0.00    +0.000 A 
ATOM     24  C   UNL     1       4.201   2.475  19.264  0.00  0.00    +0.000 A 
ATOM     25  C   UNL     1       3.931   3.844  19.334  0.00  0.00    +0.000 A 
ENDBRANCH  19  20
ENDBRANCH  16  19
ENDBRANCH   1  17
TORSDOF 4
ENDMDL
MODEL 5
REMARK VINA RESULT:      -8.2      7.635      9.521
REMARK  Name = 
REMARK  4 active torsions:
REMARK  status: ('A' for Active; 'I' for Inactive)
REMARK    1  A    between atoms: C_2  and  C_3
REMARK    2  A    between atoms: C_3  and  C_4
REMARK    3  A    between atoms: N_10  and  N_11
REMARK    4  A    between atoms: C_16  and  C_17
REMARK                            x       y       z     vdW  Elec       q    Type
REMARK                         _______ _______ _______ _____ _____    ______ ____
ROOT
ATOM      1  N   UNL     1       1.721   7.719  21.299  0.00  0.00    +0.000 N 
ATOM      2  C   UNL     1       1.016   8.931  21.206  0.00  0.00    +0.000 A 
ATOM      3  N   UNL     1       1.037   9.738  22.291  0.00  0.00    +0.000 NA
ATOM      4  N   UNL     1       0.309  10.877  22.308  0.00  0.00    +0.000 NA
ATOM      5  C   UNL     1      -0.437  11.163  21.230  0.00  0.00    +0.000 A 
ATOM      6  C   UNL     1      -0.439  10.345  20.114  0.00  0.00    +0.000 A 
ATOM      7  N   UNL     1       0.308   9.213  20.088  0.00  0.00    +0.000 NA
ATOM      8  H   UNL     1       2.366   7.778  22.090  0.00  0.00    +0.000 HD
ENDROOT
BRANCH   6   9
ATOM      9  C   UNL     1      -1.315  10.605  18.948  0.00  0.00    +0.000 A 
ATOM     10  C   UNL     1      -2.344  11.567  18.984  0.00  0.00    +0.000 A 
ATOM     11  C   UNL     1      -3.247  11.714  17.925  0.00  0.00    +0.000 A 
ATOM     12  C   UNL     1      -3.128  10.914  16.794  0.00  0.00    +0.000 A 
ATOM     13  C   UNL     1      -2.091   9.992  16.708  0.00  0.00    +0.000 A 
ATOM     14  C   UNL     1      -1.193   9.843  17.772  0.00  0.00    +0.000 A 
ENDBRANCH   6   9
BRANCH   1  17
ATOM     15  O   UNL     1       2.214   5.122  20.777  0.00  0.00    +0.000 OA
ATOM     16  C   UNL     1       2.468   5.951  19.905  0.00  0.00    +0.000 C 
ATOM     17  N   UNL     1       2.353   7.318  20.106  0.00  0.00    +0.000 N 
ATOM     18  H   UNL     1       2.283   7.977  19.333  0.00  0.00    +0.000 HD
BRANCH  16  19
ATOM     19  C   UNL     1       2.976   5.566  18.528  0.00  0.00    +0.000 C 
BRANCH  19  20
ATOM     20  C   UNL     1       4.447   5.831  18.328  0.00  0.00    +0.000 A 
ATOM     21  C   UNL     1       5.398   5.239  19.171  0.00  0.00    +0.000 A 
ATOM     22  C   UNL     1       6.761   5.477  18.980  0.00  0.00    +0.000 A 
ATOM     23  C   UNL     1       7.189   6.302  17.941  0.00  0.00    +0.000 A 
ATOM     24  C   UNL     1       6.254   6.881  17.086  0.00  0.00    +0.000 A 
ATOM     25  C   UNL     1       4.891   6.644  17.274  0.00  0.00    +0.000 A 
ENDBRANCH  19  20
ENDBRANCH  16  19
ENDBRANCH   1  17
TORSDOF 4
ENDMDL
MODEL 6
REMARK VINA RESULT:      -8.2      5.416      8.433
REMARK  Name = 
REMARK  4 active torsions:
REMARK  status: ('A' for Active; 'I' for Inactive)
REMARK    1  A    between atoms: C_2  and  C_3
REMARK    2  A    between atoms: C_3  and  C_4
REMARK    3  A    between atoms: N_10  and  N_11
REMARK    4  A    between atoms: C_16  and  C_17
REMARK                            x       y       z     vdW  Elec       q    Type
REMARK                         _______ _______ _______ _____ _____    ______ ____
ROOT
ATOM      1  N   UNL     1       7.734   4.602  15.860  0.00  0.00    +0.000 N 
ATOM      2  C   UNL     1       6.980   4.824  17.025  0.00  0.00    +0.000 A 
ATOM      3  N   UNL     1       7.601   5.453  18.048  0.00  0.00    +0.000 NA
ATOM      4  N   UNL     1       6.969   5.621  19.231  0.00  0.00    +0.000 NA
ATOM      5  C   UNL     1       5.726   5.130  19.355  0.00  0.00    +0.000 A 
ATOM      6  C   UNL     1       5.086   4.504  18.299  0.00  0.00    +0.000 A 
ATOM      7  N   UNL     1       5.713   4.355  17.105  0.00  0.00    +0.000 NA
ATOM      8  H   UNL     1       8.557   5.208  15.887  0.00  0.00    +0.000 HD
ENDROOT
BRANCH   6   9
ATOM      9  C   UNL     1       3.747   3.889  18.442  0.00  0.00    +0.000 A 
ATOM     10  C   UNL     1       3.562   2.627  19.042  0.00  0.00    +0.000 A 
ATOM     11  C   UNL     1       2.311   1.999  19.056  0.00  0.00    +0.000 A 
ATOM     12  C   UNL     1       1.210   2.629  18.488  0.00  0.00    +0.000 A 
ATOM     13  C   UNL     1       1.351   3.898  17.936  0.00  0.00    +0.000 A 
ATOM     14  C   UNL     1       2.605   4.521  17.918  0.00  0.00    +0.000 A 
ENDBRANCH   6   9
BRANCH   1  17
ATOM     15  O   UNL     1       8.822   5.714  13.660  0.00  0.00    +0.000 OA
ATOM     16  C   UNL     1       7.699   5.222  13.570  0.00  0.00    +0.000 C 
ATOM     17  N   UNL     1       7.005   4.721  14.662  0.00  0.00    +0.000 N 
ATOM     18  H   UNL     1       6.226   4.073  14.559  0.00  0.00    +0.000 HD
BRANCH  16  19
ATOM     19  C   UNL     1       6.935   5.150  12.261  0.00  0.00    +0.000 C 
BRANCH  19  20
ATOM     20  C   UNL     1       6.583   3.746  11.840  0.00  0.00    +0.000 A 
ATOM     21  C   UNL     1       7.589   2.836  11.484  0.00  0.00    +0.000 A 
ATOM     22  C   UNL     1       7.264   1.532  11.103  0.00  0.00    +0.000 A 
ATOM     23  C   UNL     1       5.933   1.121  11.081  0.00  0.00    +0.000 A 
ATOM     24  C   UNL     1       4.926   2.010  11.449  0.00  0.00    +0.000 A 
ATOM     25  C   UNL     1       5.248   3.314  11.831  0.00  0.00    +0.000 A 
ENDBRANCH  19  20
ENDBRANCH  16  19
ENDBRANCH   1  17
TORSDOF 4
ENDMDL
MODEL 7
REMARK VINA RESULT:      -8.2      8.115     10.821
REMARK  Name = 
REMARK  4 active torsions:
REMARK  status: ('A' for Active; 'I' for Inactive)
REMARK    1  A    between atoms: C_2  and  C_3
REMARK    2  A    between atoms: C_3  and  C_4
REMARK    3  A    between atoms: N_10  and  N_11
REMARK    4  A    between atoms: C_16  and  C_17
REMARK                            x       y       z     vdW  Elec       q    Type
REMARK                         _______ _______ _______ _____ _____    ______ ____
ROOT
ATOM      1  N   UNL     1       1.506   8.287  21.349  0.00  0.00    +0.000 N 
ATOM      2  C   UNL     1       0.744   9.445  21.123  0.00  0.00    +0.000 A 
ATOM      3  N   UNL     1       0.722  10.368  22.111  0.00  0.00    +0.000 NA
ATOM      4  N   UNL     1      -0.060  11.466  22.002  0.00  0.00    +0.000 NA
ATOM      5  C   UNL     1      -0.815  11.593  20.900  0.00  0.00    +0.000 A 
ATOM      6  C   UNL     1      -0.774  10.656  19.882  0.00  0.00    +0.000 A 
ATOM      7  N   UNL     1       0.027   9.566  19.982  0.00  0.00    +0.000 NA
ATOM      8  H   UNL     1       2.144   8.465  22.128  0.00  0.00    +0.000 HD
ENDROOT
BRANCH   6   9
ATOM      9  C   UNL     1      -1.657  10.741  18.697  0.00  0.00    +0.000 A 
ATOM     10  C   UNL     1      -2.813  11.547  18.679  0.00  0.00    +0.000 A 
ATOM     11  C   UNL     1      -3.709  11.521  17.605  0.00  0.00    +0.000 A 
ATOM     12  C   UNL     1      -3.457  10.703  16.509  0.00  0.00    +0.000 A 
ATOM     13  C   UNL     1      -2.297   9.936  16.474  0.00  0.00    +0.000 A 
ATOM     14  C   UNL     1      -1.406   9.960  17.554  0.00  0.00    +0.000 A 
ENDBRANCH   6   9
BRANCH   1  17
ATOM     15  O   UNL     1       1.590   5.645  20.826  0.00  0.00    +0.000 OA
ATOM     16  C   UNL     1       2.057   6.420  19.993  0.00  0.00    +0.000 C 
ATOM     17  N   UNL     1       2.161   7.786  20.208  0.00  0.00    +0.000 N 
ATOM     18  H   UNL     1       2.273   8.449  19.444  0.00  0.00    +0.000 HD
BRANCH  16  19
ATOM     19  C   UNL     1       2.609   5.957  18.658  0.00  0.00    +0.000 C 
BRANCH  19  20
ATOM     20  C   UNL     1       2.833   4.468  18.578  0.00  0.00    +0.000 A 
ATOM     21  C   UNL     1       3.920   3.875  19.237  0.00  0.00    +0.000 A 
ATOM     22  C   UNL     1       4.123   2.495  19.171  0.00  0.00    +0.000 A 
ATOM     23  C   UNL     1       3.240   1.692  18.453  0.00  0.00    +0.000 A 
ATOM     24  C   UNL     1       2.146   2.266  17.809  0.00  0.00    +0.000 A 
ATOM     25  C   UNL     1       1.941   3.646  17.874  0.00  0.00    +0.000 A 
ENDBRANCH  19  20
ENDBRANCH  16  19
ENDBRANCH   1  17
TORSDOF 4
ENDMDL
MODEL 8
REMARK VINA RESULT:      -8.2      6.880      8.237
REMARK  Name = 
REMARK  4 active torsions:
REMARK  status: ('A' for Active; 'I' for Inactive)
REMARK    1  A    between atoms: C_2  and  C_3
REMARK    2  A    between atoms: C_3  and  C_4
REMARK    3  A    between atoms: N_10  and  N_11
REMARK    4  A    between atoms: C_16  and  C_17
REMARK                            x       y       z     vdW  Elec       q    Type
REMARK                         _______ _______ _______ _____ _____    ______ ____
ROOT
ATOM      1  N   UNL     1       1.740   6.686  21.252  0.00  0.00    +0.000 N 
ATOM      2  C   UNL     1       1.916   5.691  20.275  0.00  0.00    +0.000 A 
ATOM      3  N   UNL     1       1.256   4.525  20.460  0.00  0.00    +0.000 NA
ATOM      4  N   UNL     1       1.447   3.490  19.611  0.00  0.00    +0.000 NA
ATOM      5  C   UNL     1       2.317   3.656  18.603  0.00  0.00    +0.000 A 
ATOM      6  C   UNL     1       2.976   4.858  18.406  0.00  0.00    +0.000 A 
ATOM      7  N   UNL     1       2.768   5.903  19.245  0.00  0.00    +0.000 NA
ATOM      8  H   UNL     1       0.914   6.452  21.807  0.00  0.00    +0.000 HD
ENDROOT
BRANCH   6   9
ATOM      9  C   UNL     1       3.995   5.032  17.347  0.00  0.00    +0.000 A 
ATOM     10  C   UNL     1       4.419   6.305  16.916  0.00  0.00    +0.000 A 
ATOM     11  C   UNL     1       5.285   6.460  15.828  0.00  0.00    +0.000 A 
ATOM     12  C   UNL     1       5.766   5.341  15.157  0.00  0.00    +0.000 A 
ATOM     13  C   UNL     1       5.408   4.070  15.592  0.00  0.00    +0.000 A 
ATOM     14  C   UNL     1       4.536   3.918  16.678  0.00  0.00    +0.000 A 
ENDBRANCH   6   9
BRANCH   1  17
ATOM     15  O   UNL     1      -0.369   8.305  21.687  0.00  0.00    +0.000 OA
ATOM     16  C   UNL     1       0.616   8.770  21.115  0.00  0.00    +0.000 C 
ATOM     17  N   UNL     1       1.709   7.999  20.747  0.00  0.00    +0.000 N 
ATOM     18  H   UNL     1       2.618   8.409  20.541  0.00  0.00    +0.000 HD
BRANCH  16  19
ATOM     19  C   UNL     1       0.719  10.229  20.711  0.00  0.00    +0.000 C 
BRANCH  19  20
ATOM     20  C   UNL     1      -0.405  10.693  19.820  0.00  0.00    +0.000 A 
ATOM     21  C   UNL     1      -1.264  11.722  20.236  0.00  0.00    +0.000 A 
ATOM     22  C   UNL     1      -2.300  12.159  19.407  0.00  0.00    +0.000 A 
ATOM     23  C   UNL     1      -2.485  11.580  18.154  0.00  0.00    +0.000 A 
ATOM     24  C   UNL     1      -1.628  10.570  17.722  0.00  0.00    +0.000 A 
ATOM     25  C   UNL     1      -0.591  10.131  18.549  0.00  0.00    +0.000 A 
ENDBRANCH  19  20
ENDBRANCH  16  19
ENDBRANCH   1  17
TORSDOF 4
ENDMDL
MODEL 9
REMARK VINA RESULT:      -8.2      5.347      8.416
REMARK  Name = 
REMARK  4 active torsions:
REMARK  status: ('A' for Active; 'I' for Inactive)
REMARK    1  A    between atoms: C_2  and  C_3
REMARK    2  A    between atoms: C_3  and  C_4
REMARK    3  A    between atoms: N_10  and  N_11
REMARK    4  A    between atoms: C_16  and  C_17
REMARK                            x       y       z     vdW  Elec       q    Type
REMARK                         _______ _______ _______ _____ _____    ______ ____
ROOT
ATOM      1  N   UNL     1       7.853   4.786  15.687  0.00  0.00    +0.000 N 
ATOM      2  C   UNL     1       7.067   4.974  16.837  0.00  0.00    +0.000 A 
ATOM      3  N   UNL     1       7.634   5.644  17.865  0.00  0.00    +0.000 NA
ATOM      4  N   UNL     1       6.973   5.785  19.036  0.00  0.00    +0.000 NA
ATOM      5  C   UNL     1       5.757   5.227  19.143  0.00  0.00    +0.000 A 
ATOM      6  C   UNL     1       5.171   4.559  18.081  0.00  0.00    +0.000 A 
ATOM      7  N   UNL     1       5.826   4.436  16.899  0.00  0.00    +0.000 NA
ATOM      8  H   UNL     1       8.641   5.436  15.723  0.00  0.00    +0.000 HD
ENDROOT
BRANCH   6   9
ATOM      9  C   UNL     1       3.866   3.872  18.206  0.00  0.00    +0.000 A 
ATOM     10  C   UNL     1       2.684   4.402  17.650  0.00  0.00    +0.000 A 
ATOM     11  C   UNL     1       1.436   3.813  17.884  0.00  0.00    +0.000 A 
ATOM     12  C   UNL     1       1.345   2.665  18.663  0.00  0.00    +0.000 A 
ATOM     13  C   UNL     1       2.500   2.089  19.181  0.00  0.00    +0.000 A 
ATOM     14  C   UNL     1       3.746   2.684  18.950  0.00  0.00    +0.000 A 
ENDBRANCH   6   9
BRANCH   1  17
ATOM     15  O   UNL     1       8.965   5.822  13.463  0.00  0.00    +0.000 OA
ATOM     16  C   UNL     1       7.846   5.320  13.376  0.00  0.00    +0.000 C 
ATOM     17  N   UNL     1       7.139   4.855  14.476  0.00  0.00    +0.000 N 
ATOM     18  H   UNL     1       6.366   4.200  14.387  0.00  0.00    +0.000 HD
BRANCH  16  19
ATOM     19  C   UNL     1       7.101   5.195  12.060  0.00  0.00    +0.000 C 
BRANCH  19  20
ATOM     20  C   UNL     1       6.677   3.785  11.734  0.00  0.00    +0.000 A 
ATOM     21  C   UNL     1       7.634   2.811  11.413  0.00  0.00    +0.000 A 
ATOM     22  C   UNL     1       7.243   1.503  11.120  0.00  0.00    +0.000 A 
ATOM     23  C   UNL     1       5.895   1.151  11.151  0.00  0.00    +0.000 A 
ATOM     24  C   UNL     1       4.937   2.105  11.486  0.00  0.00    +0.000 A 
ATOM     25  C   UNL     1       5.325   3.415  11.780  0.00  0.00    +0.000 A 
ENDBRANCH  19  20
ENDBRANCH  16  19
ENDBRANCH   1  17
TORSDOF 4
ENDMDL
