MODEL 1
REMARK VINA RESULT:      -7.3      0.000      0.000
REMARK  Name = 
REMARK  6 active torsions:
REMARK  status: ('A' for Active; 'I' for Inactive)
REMARK    1  A    between atoms: C_1  and  C_2
REMARK    2  A    between atoms: C_4  and  O_5
REMARK    3  A    between atoms: C_8  and  C_9
REMARK    4  A    between atoms: C_11  and  C_12
REMARK    5  A    between atoms: C_12  and  C_13
REMARK    6  A    between atoms: C_12  and  C_14
REMARK                            x       y       z     vdW  Elec       q    Type
REMARK                         _______ _______ _______ _____ _____    ______ ____
ROOT
ATOM      1  C   UNL     1       1.216   2.967  21.025  0.00  0.00    +0.000 C 
ATOM      2  C   UNL     1       1.990   3.861  20.091  0.00  0.00    +0.000 A 
ATOM      3  C   UNL     1       1.840   5.247  20.207  0.00  0.00    +0.000 A 
ATOM      4  C   UNL     1       2.541   6.101  19.365  0.00  0.00    +0.000 A 
ATOM      5  C   UNL     1       3.406   5.606  18.383  0.00  0.00    +0.000 A 
ATOM      6  C   UNL     1       3.534   4.210  18.216  0.00  0.00    +0.000 A 
ATOM      7  C   UNL     1       2.855   3.330  19.102  0.00  0.00    +0.000 A 
ATOM      8  C   UNL     1       3.016   1.829  19.013  0.00  0.00    +0.000 C 
ATOM      9  C   UNL     1       4.422   3.661  17.114  0.00  0.00    +0.000 C 
ATOM     10  C   UNL     1       4.846   4.671  16.028  0.00  0.00    +0.000 C 
ATOM     11  C   UNL     1       5.298   5.960  16.724  0.00  0.00    +0.000 C 
ATOM     12  C   UNL     1       4.133   6.580  17.489  0.00  0.00    +0.000 C 
ENDROOT
BRANCH  10  13
ATOM     13  C   UNL     1       5.935   4.074  15.087  0.00  0.00    +0.000 C 
ATOM     14  C   UNL     1       5.453   4.008  13.631  0.00  0.00    +0.000 C 
ATOM     15  C   UNL     1       7.243   4.874  15.124  0.00  0.00    +0.000 C 
ENDBRANCH  10  13
BRANCH   4  16
ATOM     16  O   UNL     1       2.385   7.455  19.485  0.00  0.00    +0.000 OA
ATOM     17  H   UNL     1       3.061   7.793  20.093  0.00  0.00    +0.000 HD
ENDBRANCH   4  16
TORSDOF 2
ENDMDL
MODEL 2
REMARK VINA RESULT:      -7.3      0.697      1.110
REMARK  Name = 
REMARK  6 active torsions:
REMARK  status: ('A' for Active; 'I' for Inactive)
REMARK    1  A    between atoms: C_1  and  C_2
REMARK    2  A    between atoms: C_4  and  O_5
REMARK    3  A    between atoms: C_8  and  C_9
REMARK    4  A    between atoms: C_11  and  C_12
REMARK    5  A    between atoms: C_12  and  C_13
REMARK    6  A    between atoms: C_12  and  C_14
REMARK                            x       y       z     vdW  Elec       q    Type
REMARK                         _______ _______ _______ _____ _____    ______ ____
ROOT
ATOM      1  C   UNL     1       1.480   2.906  21.205  0.00  0.00    +0.000 C 
ATOM      2  C   UNL     1       2.102   3.968  20.335  0.00  0.00    +0.000 A 
ATOM      3  C   UNL     1       1.728   5.302  20.531  0.00  0.00    +0.000 A 
ATOM      4  C   UNL     1       2.284   6.308  19.750  0.00  0.00    +0.000 A 
ATOM      5  C   UNL     1       3.219   6.020  18.750  0.00  0.00    +0.000 A 
ATOM      6  C   UNL     1       3.572   4.675  18.502  0.00  0.00    +0.000 A 
ATOM      7  C   UNL     1       3.042   3.645  19.326  0.00  0.00    +0.000 A 
ATOM      8  C   UNL     1       3.445   2.198  19.149  0.00  0.00    +0.000 C 
ATOM      9  C   UNL     1       4.539   4.345  17.380  0.00  0.00    +0.000 C 
ATOM     10  C   UNL     1       4.796   5.475  16.361  0.00  0.00    +0.000 C 
ATOM     11  C   UNL     1       5.033   6.774  17.138  0.00  0.00    +0.000 C 
ATOM     12  C   UNL     1       3.781   7.151  17.925  0.00  0.00    +0.000 C 
ENDROOT
BRANCH  10  13
ATOM     13  C   UNL     1       5.969   5.120  15.398  0.00  0.00    +0.000 C 
ATOM     14  C   UNL     1       7.133   4.454  16.144  0.00  0.00    +0.000 C 
ATOM     15  C   UNL     1       5.531   4.189  14.261  0.00  0.00    +0.000 C 
ENDBRANCH  10  13
BRANCH   4  16
ATOM     16  O   UNL     1       1.911   7.609  19.949  0.00  0.00    +0.000 OA
ATOM     17  H   UNL     1       2.614   8.063  20.441  0.00  0.00    +0.000 HD
ENDBRANCH   4  16
TORSDOF 2
ENDMDL
MODEL 3
REMARK VINA RESULT:      -6.6      2.286      5.259
REMARK  Name = 
REMARK  6 active torsions:
REMARK  status: ('A' for Active; 'I' for Inactive)
REMARK    1  A    between atoms: C_1  and  C_2
REMARK    2  A    between atoms: C_4  and  O_5
REMARK    3  A    between atoms: C_8  and  C_9
REMARK    4  A    between atoms: C_11  and  C_12
REMARK    5  A    between atoms: C_12  and  C_13
REMARK    6  A    between atoms: C_12  and  C_14
REMARK                            x       y       z     vdW  Elec       q    Type
REMARK                         _______ _______ _______ _____ _____    ______ ____
ROOT
ATOM      1  C   UNL     1       3.274   1.684  18.608  0.00  0.00    +0.000 C 
ATOM      2  C   UNL     1       3.207   3.184  18.492  0.00  0.00    +0.000 A 
ATOM      3  C   UNL     1       3.978   3.819  17.511  0.00  0.00    +0.000 A 
ATOM      4  C   UNL     1       3.938   5.200  17.373  0.00  0.00    +0.000 A 
ATOM      5  C   UNL     1       3.139   5.992  18.204  0.00  0.00    +0.000 A 
ATOM      6  C   UNL     1       2.392   5.377  19.233  0.00  0.00    +0.000 A 
ATOM      7  C   UNL     1       2.392   3.961  19.353  0.00  0.00    +0.000 A 
ATOM      8  C   UNL     1       1.553   3.249  20.389  0.00  0.00    +0.000 C 
ATOM      9  C   UNL     1       1.569   6.231  20.180  0.00  0.00    +0.000 C 
ATOM     10  C   UNL     1       1.887   7.741  20.171  0.00  0.00    +0.000 C 
ATOM     11  C   UNL     1       1.986   8.199  18.712  0.00  0.00    +0.000 C 
ATOM     12  C   UNL     1       3.143   7.489  18.016  0.00  0.00    +0.000 C 
ENDROOT
BRANCH  10  13
ATOM     13  C   UNL     1       0.839   8.550  20.992  0.00  0.00    +0.000 C 
ATOM     14  C   UNL     1       1.439   9.098  22.294  0.00  0.00    +0.000 C 
ATOM     15  C   UNL     1       0.255   9.726  20.199  0.00  0.00    +0.000 C 
ENDBRANCH  10  13
BRANCH   4  16
ATOM     16  O   UNL     1       4.697   5.811  16.411  0.00  0.00    +0.000 OA
ATOM     17  H   UNL     1       4.971   6.682  16.739  0.00  0.00    +0.000 HD
ENDBRANCH   4  16
TORSDOF 2
ENDMDL
MODEL 4
REMARK VINA RESULT:      -6.5      2.487      5.373
REMARK  Name = 
REMARK  6 active torsions:
REMARK  status: ('A' for Active; 'I' for Inactive)
REMARK    1  A    between atoms: C_1  and  C_2
REMARK    2  A    between atoms: C_4  and  O_5
REMARK    3  A    between atoms: C_8  and  C_9
REMARK    4  A    between atoms: C_11  and  C_12
REMARK    5  A    between atoms: C_12  and  C_13
REMARK    6  A    between atoms: C_12  and  C_14
REMARK                            x       y       z     vdW  Elec       q    Type
REMARK                         _______ _______ _______ _____ _____    ______ ____
ROOT
ATOM      1  C   UNL     1       3.995   2.480  19.691  0.00  0.00    +0.000 C 
ATOM      2  C   UNL     1       3.693   3.888  19.245  0.00  0.00    +0.000 A 
ATOM      3  C   UNL     1       4.306   4.371  18.083  0.00  0.00    +0.000 A 
ATOM      4  C   UNL     1       4.048   5.662  17.640  0.00  0.00    +0.000 A 
ATOM      5  C   UNL     1       3.183   6.511  18.337  0.00  0.00    +0.000 A 
ATOM      6  C   UNL     1       2.593   6.061  19.539  0.00  0.00    +0.000 A 
ATOM      7  C   UNL     1       2.816   4.727  19.975  0.00  0.00    +0.000 A 
ATOM      8  C   UNL     1       2.150   4.173  21.214  0.00  0.00    +0.000 C 
ATOM      9  C   UNL     1       1.700   6.994  20.336  0.00  0.00    +0.000 C 
ATOM     10  C   UNL     1       1.782   8.488  19.958  0.00  0.00    +0.000 C 
ATOM     11  C   UNL     1       1.735   8.598  18.430  0.00  0.00    +0.000 C 
ATOM     12  C   UNL     1       2.949   7.908  17.816  0.00  0.00    +0.000 C 
ENDROOT
BRANCH  10  13
ATOM     13  C   UNL     1       0.668   9.318  20.662  0.00  0.00    +0.000 C 
ATOM     14  C   UNL     1      -0.269   9.987  19.647  0.00  0.00    +0.000 C 
ATOM     15  C   UNL     1      -0.182   8.467  21.614  0.00  0.00    +0.000 C 
ENDBRANCH  10  13
BRANCH   4  16
ATOM     16  O   UNL     1       4.654   6.126  16.504  0.00  0.00    +0.000 OA
ATOM     17  H   UNL     1       4.062   5.974  15.751  0.00  0.00    +0.000 HD
ENDBRANCH   4  16
TORSDOF 2
ENDMDL
MODEL 5
REMARK VINA RESULT:      -6.5      1.572      3.100
REMARK  Name = 
REMARK  6 active torsions:
REMARK  status: ('A' for Active; 'I' for Inactive)
REMARK    1  A    between atoms: C_1  and  C_2
REMARK    2  A    between atoms: C_4  and  O_5
REMARK    3  A    between atoms: C_8  and  C_9
REMARK    4  A    between atoms: C_11  and  C_12
REMARK    5  A    between atoms: C_12  and  C_13
REMARK    6  A    between atoms: C_12  and  C_14
REMARK                            x       y       z     vdW  Elec       q    Type
REMARK                         _______ _______ _______ _____ _____    ______ ____
ROOT
ATOM      1  C   UNL     1       1.281   7.955  20.653  0.00  0.00    +0.000 C 
ATOM      2  C   UNL     1       2.042   6.828  20.003  0.00  0.00    +0.000 A 
ATOM      3  C   UNL     1       2.073   5.582  20.639  0.00  0.00    +0.000 A 
ATOM      4  C   UNL     1       2.762   4.520  20.066  0.00  0.00    +0.000 A 
ATOM      5  C   UNL     1       3.443   4.665  18.853  0.00  0.00    +0.000 A 
ATOM      6  C   UNL     1       3.468   5.927  18.221  0.00  0.00    +0.000 A 
ATOM      7  C   UNL     1       2.728   7.007  18.777  0.00  0.00    +0.000 A 
ATOM      8  C   UNL     1       2.661   8.357  18.100  0.00  0.00    +0.000 C 
ATOM      9  C   UNL     1       4.254   6.112  16.936  0.00  0.00    +0.000 C 
ATOM     10  C   UNL     1       5.262   4.993  16.599  0.00  0.00    +0.000 C 
ATOM     11  C   UNL     1       4.569   3.644  16.816  0.00  0.00    +0.000 C 
ATOM     12  C   UNL     1       4.185   3.480  18.283  0.00  0.00    +0.000 C 
ENDROOT
BRANCH  10  13
ATOM     13  C   UNL     1       5.838   5.157  15.161  0.00  0.00    +0.000 C 
ATOM     14  C   UNL     1       7.367   5.026  15.143  0.00  0.00    +0.000 C 
ATOM     15  C   UNL     1       5.256   4.135  14.177  0.00  0.00    +0.000 C 
ENDBRANCH  10  13
BRANCH   4  16
ATOM     16  O   UNL     1       2.787   3.305  20.696  0.00  0.00    +0.000 OA
ATOM     17  H   UNL     1       2.861   2.609  20.025  0.00  0.00    +0.000 HD
ENDBRANCH   4  16
TORSDOF 2
ENDMDL
MODEL 6
REMARK VINA RESULT:      -6.4      2.175      5.405
REMARK  Name = 
REMARK  6 active torsions:
REMARK  status: ('A' for Active; 'I' for Inactive)
REMARK    1  A    between atoms: C_1  and  C_2
REMARK    2  A    between atoms: C_4  and  O_5
REMARK    3  A    between atoms: C_8  and  C_9
REMARK    4  A    between atoms: C_11  and  C_12
REMARK    5  A    between atoms: C_12  and  C_13
REMARK    6  A    between atoms: C_12  and  C_14
REMARK                            x       y       z     vdW  Elec       q    Type
REMARK                         _______ _______ _______ _____ _____    ______ ____
ROOT
ATOM      1  C   UNL     1       5.893   3.736  15.460  0.00  0.00    +0.000 C 
ATOM      2  C   UNL     1       4.941   4.164  16.547  0.00  0.00    +0.000 A 
ATOM      3  C   UNL     1       4.384   3.186  17.379  0.00  0.00    +0.000 A 
ATOM      4  C   UNL     1       3.507   3.546  18.393  0.00  0.00    +0.000 A 
ATOM      5  C   UNL     1       3.151   4.882  18.609  0.00  0.00    +0.000 A 
ATOM      6  C   UNL     1       3.662   5.879  17.750  0.00  0.00    +0.000 A 
ATOM      7  C   UNL     1       4.596   5.525  16.738  0.00  0.00    +0.000 A 
ATOM      8  C   UNL     1       5.229   6.564  15.840  0.00  0.00    +0.000 C 
ATOM      9  C   UNL     1       3.238   7.324  17.935  0.00  0.00    +0.000 C 
ATOM     10  C   UNL     1       2.001   7.551  18.830  0.00  0.00    +0.000 C 
ATOM     11  C   UNL     1       2.159   6.693  20.090  0.00  0.00    +0.000 C 
ATOM     12  C   UNL     1       2.185   5.214  19.719  0.00  0.00    +0.000 C 
ENDROOT
BRANCH  10  13
ATOM     13  C   UNL     1       1.793   9.062  19.145  0.00  0.00    +0.000 C 
ATOM     14  C   UNL     1       1.495   9.871  17.876  0.00  0.00    +0.000 C 
ATOM     15  C   UNL     1       0.654   9.300  20.145  0.00  0.00    +0.000 C 
ENDBRANCH  10  13
BRANCH   4  16
ATOM     16  O   UNL     1       2.966   2.582  19.200  0.00  0.00    +0.000 OA
ATOM     17  H   UNL     1       2.070   2.380  18.886  0.00  0.00    +0.000 HD
ENDBRANCH   4  16
TORSDOF 2
ENDMDL
MODEL 7
REMARK VINA RESULT:      -6.4      1.695      3.031
REMARK  Name = 
REMARK  6 active torsions:
REMARK  status: ('A' for Active; 'I' for Inactive)
REMARK    1  A    between atoms: C_1  and  C_2
REMARK    2  A    between atoms: C_4  and  O_5
REMARK    3  A    between atoms: C_8  and  C_9
REMARK    4  A    between atoms: C_11  and  C_12
REMARK    5  A    between atoms: C_12  and  C_13
REMARK    6  A    between atoms: C_12  and  C_14
REMARK                            x       y       z     vdW  Elec       q    Type
REMARK                         _______ _______ _______ _____ _____    ______ ____
ROOT
ATOM      1  C   UNL     1       1.089   7.609  21.034  0.00  0.00    +0.000 C 
ATOM      2  C   UNL     1       1.808   6.445  20.404  0.00  0.00    +0.000 A 
ATOM      3  C   UNL     1       1.791   5.208  21.059  0.00  0.00    +0.000 A 
ATOM      4  C   UNL     1       2.440   4.112  20.504  0.00  0.00    +0.000 A 
ATOM      5  C   UNL     1       3.129   4.212  19.291  0.00  0.00    +0.000 A 
ATOM      6  C   UNL     1       3.203   5.462  18.640  0.00  0.00    +0.000 A 
ATOM      7  C   UNL     1       2.503   6.578  19.176  0.00  0.00    +0.000 A 
ATOM      8  C   UNL     1       2.488   7.919  18.479  0.00  0.00    +0.000 C 
ATOM      9  C   UNL     1       3.998   5.597  17.354  0.00  0.00    +0.000 C 
ATOM     10  C   UNL     1       4.964   4.436  17.038  0.00  0.00    +0.000 C 
ATOM     11  C   UNL     1       4.220   3.117  17.273  0.00  0.00    +0.000 C 
ATOM     12  C   UNL     1       3.827   2.992  18.742  0.00  0.00    +0.000 C 
ENDROOT
BRANCH  10  13
ATOM     13  C   UNL     1       5.549   4.556  15.599  0.00  0.00    +0.000 C 
ATOM     14  C   UNL     1       5.333   5.958  15.013  0.00  0.00    +0.000 C 
ATOM     15  C   UNL     1       7.049   4.239  15.548  0.00  0.00    +0.000 C 
ENDBRANCH  10  13
BRANCH   4  16
ATOM     16  O   UNL     1       2.418   2.907  21.154  0.00  0.00    +0.000 OA
ATOM     17  H   UNL     1       1.505   2.584  21.177  0.00  0.00    +0.000 HD
ENDBRANCH   4  16
TORSDOF 2
ENDMDL
MODEL 8
REMARK VINA RESULT:      -6.4      1.830      2.514
REMARK  Name = 
REMARK  6 active torsions:
REMARK  status: ('A' for Active; 'I' for Inactive)
REMARK    1  A    between atoms: C_1  and  C_2
REMARK    2  A    between atoms: C_4  and  O_5
REMARK    3  A    between atoms: C_8  and  C_9
REMARK    4  A    between atoms: C_11  and  C_12
REMARK    5  A    between atoms: C_12  and  C_13
REMARK    6  A    between atoms: C_12  and  C_14
REMARK                            x       y       z     vdW  Elec       q    Type
REMARK                         _______ _______ _______ _____ _____    ______ ____
ROOT
ATOM      1  C   UNL     1       1.990   4.156  19.800  0.00  0.00    +0.000 C 
ATOM      2  C   UNL     1       3.306   4.331  19.087  0.00  0.00    +0.000 A 
ATOM      3  C   UNL     1       4.392   4.852  19.799  0.00  0.00    +0.000 A 
ATOM      4  C   UNL     1       5.621   5.023  19.174  0.00  0.00    +0.000 A 
ATOM      5  C   UNL     1       5.807   4.690  17.828  0.00  0.00    +0.000 A 
ATOM      6  C   UNL     1       4.710   4.210  17.079  0.00  0.00    +0.000 A 
ATOM      7  C   UNL     1       3.462   3.989  17.721  0.00  0.00    +0.000 A 
ATOM      8  C   UNL     1       2.278   3.407  16.982  0.00  0.00    +0.000 C 
ATOM      9  C   UNL     1       4.883   3.901  15.603  0.00  0.00    +0.000 C 
ATOM     10  C   UNL     1       6.157   4.470  14.943  0.00  0.00    +0.000 C 
ATOM     11  C   UNL     1       7.344   4.183  15.869  0.00  0.00    +0.000 C 
ATOM     12  C   UNL     1       7.160   4.908  17.199  0.00  0.00    +0.000 C 
ENDROOT
BRANCH  10  13
ATOM     13  C   UNL     1       6.357   3.904  13.505  0.00  0.00    +0.000 C 
ATOM     14  C   UNL     1       5.025   3.784  12.753  0.00  0.00    +0.000 C 
ATOM     15  C   UNL     1       7.308   4.765  12.665  0.00  0.00    +0.000 C 
ENDBRANCH  10  13
BRANCH   4  16
ATOM     16  O   UNL     1       6.677   5.536  19.878  0.00  0.00    +0.000 OA
ATOM     17  H   UNL     1       7.388   4.876  19.896  0.00  0.00    +0.000 HD
ENDBRANCH   4  16
TORSDOF 2
ENDMDL
MODEL 9
REMARK VINA RESULT:      -6.3      2.401      3.866
REMARK  Name = 
REMARK  6 active torsions:
REMARK  status: ('A' for Active; 'I' for Inactive)
REMARK    1  A    between atoms: C_1  and  C_2
REMARK    2  A    between atoms: C_4  and  O_5
REMARK    3  A    between atoms: C_8  and  C_9
REMARK    4  A    between atoms: C_11  and  C_12
REMARK    5  A    between atoms: C_12  and  C_13
REMARK    6  A    between atoms: C_12  and  C_14
REMARK                            x       y       z     vdW  Elec       q    Type
REMARK                         _______ _______ _______ _____ _____    ______ ____
ROOT
ATOM      1  C   UNL     1       4.309   5.044  19.535  0.00  0.00    +0.000 C 
ATOM      2  C   UNL     1       5.046   5.116  18.223  0.00  0.00    +0.000 A 
ATOM      3  C   UNL     1       6.068   6.060  18.075  0.00  0.00    +0.000 A 
ATOM      4  C   UNL     1       6.771   6.152  16.880  0.00  0.00    +0.000 A 
ATOM      5  C   UNL     1       6.477   5.317  15.798  0.00  0.00    +0.000 A 
ATOM      6  C   UNL     1       5.415   4.392  15.907  0.00  0.00    +0.000 A 
ATOM      7  C   UNL     1       4.722   4.260  17.141  0.00  0.00    +0.000 A 
ATOM      8  C   UNL     1       3.628   3.234  17.334  0.00  0.00    +0.000 C 
ATOM      9  C   UNL     1       5.047   3.522  14.720  0.00  0.00    +0.000 C 
ATOM     10  C   UNL     1       5.632   3.960  13.360  0.00  0.00    +0.000 C 
ATOM     11  C   UNL     1       7.115   4.291  13.562  0.00  0.00    +0.000 C 
ATOM     12  C   UNL     1       7.265   5.468  14.520  0.00  0.00    +0.000 C 
ENDROOT
BRANCH  10  13
ATOM     13  C   UNL     1       5.393   2.882  12.261  0.00  0.00    +0.000 C 
ATOM     14  C   UNL     1       4.295   3.308  11.277  0.00  0.00    +0.000 C 
ATOM     15  C   UNL     1       6.663   2.572  11.460  0.00  0.00    +0.000 C 
ENDBRANCH  10  13
BRANCH   4  16
ATOM     16  O   UNL     1       7.768   7.080  16.746  0.00  0.00    +0.000 OA
ATOM     17  H   UNL     1       8.623   6.625  16.784  0.00  0.00    +0.000 HD
ENDBRANCH   4  16
TORSDOF 2
ENDMDL
