MODEL 1
REMARK VINA RESULT:      -8.7      0.000      0.000
REMARK  Name = 
REMARK  3 active torsions:
REMARK  status: ('A' for Active; 'I' for Inactive)
REMARK    1  A    between atoms: C_2  and  C_3
REMARK    2  A    between atoms: N_16  and  C_17
REMARK    3  A    between atoms: C_17  and  C_18
REMARK                            x       y       z     vdW  Elec       q    Type
REMARK                         _______ _______ _______ _____ _____    ______ ____
ROOT
ATOM      1  O   UNL     1       2.595   5.156  20.678  0.00  0.00    +0.000 OA
ATOM      2  C   UNL     1       2.764   5.904  19.716  0.00  0.00    +0.000 C 
ATOM      3  N   UNL     1       3.546   5.555  18.613  0.00  0.00    +0.000 N 
ATOM      4  C   UNL     1       3.877   6.412  17.463  0.00  0.00    +0.000 C 
ATOM      5  C   UNL     1       5.330   6.259  16.980  0.00  0.00    +0.000 C 
ATOM      6  N   UNL     1       5.775   4.865  16.798  0.00  0.00    +0.000 NA
ATOM      7  C   UNL     1       5.511   4.137  18.062  0.00  0.00    +0.000 C 
ATOM      8  C   UNL     1       4.044   4.177  18.527  0.00  0.00    +0.000 C 
ENDROOT
BRANCH   2   9
ATOM      9  C   UNL     1       2.123   7.246  19.784  0.00  0.00    +0.000 A 
ATOM     10  C   UNL     1       2.102   8.053  18.640  0.00  0.00    +0.000 A 
ATOM     11  C   UNL     1       1.456   9.291  18.671  0.00  0.00    +0.000 A 
ATOM     12  C   UNL     1       0.796   9.727  19.828  0.00  0.00    +0.000 A 
ATOM     13  C   UNL     1       0.095  10.943  19.887  0.00  0.00    +0.000 A 
ATOM     14  C   UNL     1      -0.585  11.324  21.047  0.00  0.00    +0.000 A 
ATOM     15  C   UNL     1      -0.588  10.489  22.163  0.00  0.00    +0.000 A 
ATOM     16  C   UNL     1       0.121   9.293  22.134  0.00  0.00    +0.000 A 
ATOM     17  C   UNL     1       0.827   8.916  20.987  0.00  0.00    +0.000 A 
ATOM     18  C   UNL     1       1.556   7.722  20.967  0.00  0.00    +0.000 A 
ENDBRANCH   2   9
BRANCH   6  19
ATOM     19  C   UNL     1       5.106   4.268  15.629  0.00  0.00    +0.000 C 
BRANCH  19  20
ATOM     20  C   UNL     1       5.932   4.288  14.365  0.00  0.00    +0.000 A 
ATOM     21  C   UNL     1       5.541   3.533  13.250  0.00  0.00    +0.000 A 
ATOM     22  C   UNL     1       6.287   3.573  12.073  0.00  0.00    +0.000 A 
ATOM     23  C   UNL     1       7.429   4.369  12.000  0.00  0.00    +0.000 A 
ATOM     24  C   UNL     1       7.831   5.120  13.103  0.00  0.00    +0.000 A 
ATOM     25  C   UNL     1       7.086   5.080  14.282  0.00  0.00    +0.000 A 
ENDBRANCH  19  20
ENDBRANCH   6  19
TORSDOF 3
ENDMDL
MODEL 2
REMARK VINA RESULT:      -8.7      0.486      1.091
REMARK  Name = 
REMARK  3 active torsions:
REMARK  status: ('A' for Active; 'I' for Inactive)
REMARK    1  A    between atoms: C_2  and  C_3
REMARK    2  A    between atoms: N_16  and  C_17
REMARK    3  A    between atoms: C_17  and  C_18
REMARK                            x       y       z     vdW  Elec       q    Type
REMARK                         _______ _______ _______ _____ _____    ______ ____
ROOT
ATOM      1  O   UNL     1       2.797   5.498  20.575  0.00  0.00    +0.000 OA
ATOM      2  C   UNL     1       2.941   6.116  19.521  0.00  0.00    +0.000 C 
ATOM      3  N   UNL     1       3.754   5.661  18.481  0.00  0.00    +0.000 N 
ATOM      4  C   UNL     1       4.056   6.369  17.226  0.00  0.00    +0.000 C 
ATOM      5  C   UNL     1       5.521   6.228  16.777  0.00  0.00    +0.000 C 
ATOM      6  N   UNL     1       6.040   4.848  16.791  0.00  0.00    +0.000 NA
ATOM      7  C   UNL     1       5.796   4.286  18.141  0.00  0.00    +0.000 C 
ATOM      8  C   UNL     1       4.323   4.312  18.587  0.00  0.00    +0.000 C 
ENDROOT
BRANCH   2   9
ATOM      9  C   UNL     1       2.231   7.419  19.401  0.00  0.00    +0.000 A 
ATOM     10  C   UNL     1       2.146   8.038  18.147  0.00  0.00    +0.000 A 
ATOM     11  C   UNL     1       1.436   9.232  18.007  0.00  0.00    +0.000 A 
ATOM     12  C   UNL     1       0.776   9.808  19.101  0.00  0.00    +0.000 A 
ATOM     13  C   UNL     1       0.012  10.983  18.993  0.00  0.00    +0.000 A 
ATOM     14  C   UNL     1      -0.665  11.503  20.098  0.00  0.00    +0.000 A 
ATOM     15  C   UNL     1      -0.603  10.850  21.329  0.00  0.00    +0.000 A 
ATOM     16  C   UNL     1       0.168   9.700  21.463  0.00  0.00    +0.000 A 
ATOM     17  C   UNL     1       0.872   9.187  20.369  0.00  0.00    +0.000 A 
ATOM     18  C   UNL     1       1.662   8.042  20.512  0.00  0.00    +0.000 A 
ENDBRANCH   2   9
BRANCH   6  19
ATOM     19  C   UNL     1       5.417   4.062  15.710  0.00  0.00    +0.000 C 
BRANCH  19  20
ATOM     20  C   UNL     1       6.097   4.205  14.370  0.00  0.00    +0.000 A 
ATOM     21  C   UNL     1       7.220   5.034  14.229  0.00  0.00    +0.000 A 
ATOM     22  C   UNL     1       7.866   5.144  12.998  0.00  0.00    +0.000 A 
ATOM     23  C   UNL     1       7.396   4.428  11.899  0.00  0.00    +0.000 A 
ATOM     24  C   UNL     1       6.277   3.606  12.026  0.00  0.00    +0.000 A 
ATOM     25  C   UNL     1       5.629   3.496  13.255  0.00  0.00    +0.000 A 
ENDBRANCH  19  20
ENDBRANCH   6  19
TORSDOF 3
ENDMDL
MODEL 3
REMARK VINA RESULT:      -8.5      3.976      9.770
REMARK  Name = 
REMARK  3 active torsions:
REMARK  status: ('A' for Active; 'I' for Inactive)
REMARK    1  A    between atoms: C_2  and  C_3
REMARK    2  A    between atoms: N_16  and  C_17
REMARK    3  A    between atoms: C_17  and  C_18
REMARK                            x       y       z     vdW  Elec       q    Type
REMARK                         _______ _______ _______ _____ _____    ______ ____
ROOT
ATOM      1  O   UNL     1       2.195   8.883  17.420  0.00  0.00    +0.000 OA
ATOM      2  C   UNL     1       2.010   8.318  18.498  0.00  0.00    +0.000 C 
ATOM      3  N   UNL     1       1.414   8.951  19.591  0.00  0.00    +0.000 N 
ATOM      4  C   UNL     1       1.232   8.389  20.940  0.00  0.00    +0.000 C 
ATOM      5  C   UNL     1       1.488   9.403  22.069  0.00  0.00    +0.000 C 
ATOM      6  N   UNL     1       0.810  10.701  21.896  0.00  0.00    +0.000 NA
ATOM      7  C   UNL     1       1.173  11.226  20.558  0.00  0.00    +0.000 C 
ATOM      8  C   UNL     1       0.836  10.284  19.389  0.00  0.00    +0.000 C 
ENDROOT
BRANCH   2   9
ATOM      9  C   UNL     1       2.489   6.914  18.614  0.00  0.00    +0.000 A 
ATOM     10  C   UNL     1       3.791   6.671  19.073  0.00  0.00    +0.000 A 
ATOM     11  C   UNL     1       4.237   5.359  19.241  0.00  0.00    +0.000 A 
ATOM     12  C   UNL     1       3.387   4.274  18.988  0.00  0.00    +0.000 A 
ATOM     13  C   UNL     1       3.781   2.940  19.189  0.00  0.00    +0.000 A 
ATOM     14  C   UNL     1       2.891   1.887  18.964  0.00  0.00    +0.000 A 
ATOM     15  C   UNL     1       1.586   2.149  18.548  0.00  0.00    +0.000 A 
ATOM     16  C   UNL     1       1.184   3.461  18.318  0.00  0.00    +0.000 A 
ATOM     17  C   UNL     1       2.077   4.520  18.514  0.00  0.00    +0.000 A 
ATOM     18  C   UNL     1       1.676   5.836  18.263  0.00  0.00    +0.000 A 
ENDBRANCH   2   9
BRANCH   6  19
ATOM     19  C   UNL     1      -0.643  10.543  22.087  0.00  0.00    +0.000 C 
BRANCH  19  20
ATOM     20  C   UNL     1      -1.325  11.754  22.676  0.00  0.00    +0.000 A 
ATOM     21  C   UNL     1      -2.594  11.638  23.263  0.00  0.00    +0.000 A 
ATOM     22  C   UNL     1      -3.213  12.750  23.832  0.00  0.00    +0.000 A 
ATOM     23  C   UNL     1      -2.569  13.986  23.822  0.00  0.00    +0.000 A 
ATOM     24  C   UNL     1      -1.310  14.115  23.237  0.00  0.00    +0.000 A 
ATOM     25  C   UNL     1      -0.691  13.004  22.665  0.00  0.00    +0.000 A 
ENDBRANCH  19  20
ENDBRANCH   6  19
TORSDOF 3
ENDMDL
MODEL 4
REMARK VINA RESULT:      -8.5      3.558      9.507
REMARK  Name = 
REMARK  3 active torsions:
REMARK  status: ('A' for Active; 'I' for Inactive)
REMARK    1  A    between atoms: C_2  and  C_3
REMARK    2  A    between atoms: N_16  and  C_17
REMARK    3  A    between atoms: C_17  and  C_18
REMARK                            x       y       z     vdW  Elec       q    Type
REMARK                         _______ _______ _______ _____ _____    ______ ____
ROOT
ATOM      1  O   UNL     1       2.276   9.129  17.188  0.00  0.00    +0.000 OA
ATOM      2  C   UNL     1       2.090   8.454  18.199  0.00  0.00    +0.000 C 
ATOM      3  N   UNL     1       1.486   8.965  19.350  0.00  0.00    +0.000 N 
ATOM      4  C   UNL     1       1.303   8.264  20.632  0.00  0.00    +0.000 C 
ATOM      5  C   UNL     1       1.548   9.156  21.862  0.00  0.00    +0.000 C 
ATOM      6  N   UNL     1       0.862  10.461  21.822  0.00  0.00    +0.000 NA
ATOM      7  C   UNL     1       1.227  11.126  20.549  0.00  0.00    +0.000 C 
ATOM      8  C   UNL     1       0.900  10.309  19.286  0.00  0.00    +0.000 C 
ENDROOT
BRANCH   2   9
ATOM      9  C   UNL     1       2.578   7.048  18.171  0.00  0.00    +0.000 A 
ATOM     10  C   UNL     1       3.957   6.802  18.169  0.00  0.00    +0.000 A 
ATOM     11  C   UNL     1       4.431   5.490  18.199  0.00  0.00    +0.000 A 
ATOM     12  C   UNL     1       3.544   4.407  18.263  0.00  0.00    +0.000 A 
ATOM     13  C   UNL     1       3.979   3.073  18.342  0.00  0.00    +0.000 A 
ATOM     14  C   UNL     1       3.063   2.024  18.445  0.00  0.00    +0.000 A 
ATOM     15  C   UNL     1       1.695   2.290  18.487  0.00  0.00    +0.000 A 
ATOM     16  C   UNL     1       1.242   3.601  18.385  0.00  0.00    +0.000 A 
ATOM     17  C   UNL     1       2.151   4.656  18.253  0.00  0.00    +0.000 A 
ATOM     18  C   UNL     1       1.692   5.971  18.130  0.00  0.00    +0.000 A 
ENDBRANCH   2   9
BRANCH   6  19
ATOM     19  C   UNL     1      -0.590  10.275  21.990  0.00  0.00    +0.000 C 
BRANCH  19  20
ATOM     20  C   UNL     1      -1.377  11.562  22.045  0.00  0.00    +0.000 A 
ATOM     21  C   UNL     1      -1.431  12.311  23.230  0.00  0.00    +0.000 A 
ATOM     22  C   UNL     1      -2.134  13.514  23.273  0.00  0.00    +0.000 A 
ATOM     23  C   UNL     1      -2.787  13.980  22.134  0.00  0.00    +0.000 A 
ATOM     24  C   UNL     1      -2.745  13.242  20.952  0.00  0.00    +0.000 A 
ATOM     25  C   UNL     1      -2.044  12.038  20.907  0.00  0.00    +0.000 A 
ENDBRANCH  19  20
ENDBRANCH   6  19
TORSDOF 3
ENDMDL
MODEL 5
REMARK VINA RESULT:      -8.4      3.657      9.886
REMARK  Name = 
REMARK  3 active torsions:
REMARK  status: ('A' for Active; 'I' for Inactive)
REMARK    1  A    between atoms: C_2  and  C_3
REMARK    2  A    between atoms: N_16  and  C_17
REMARK    3  A    between atoms: C_17  and  C_18
REMARK                            x       y       z     vdW  Elec       q    Type
REMARK                         _______ _______ _______ _____ _____    ______ ____
ROOT
ATOM      1  O   UNL     1       2.217   9.301  17.476  0.00  0.00    +0.000 OA
ATOM      2  C   UNL     1       1.952   8.752  18.544  0.00  0.00    +0.000 C 
ATOM      3  N   UNL     1       1.292   9.404  19.588  0.00  0.00    +0.000 N 
ATOM      4  C   UNL     1       1.011   8.860  20.926  0.00  0.00    +0.000 C 
ATOM      5  C   UNL     1       1.203   9.884  22.059  0.00  0.00    +0.000 C 
ATOM      6  N   UNL     1       0.556  11.188  21.827  0.00  0.00    +0.000 NA
ATOM      7  C   UNL     1       1.015  11.694  20.511  0.00  0.00    +0.000 C 
ATOM      8  C   UNL     1       0.746  10.742  19.332  0.00  0.00    +0.000 C 
ENDROOT
BRANCH   2   9
ATOM      9  C   UNL     1       2.404   7.343  18.708  0.00  0.00    +0.000 A 
ATOM     10  C   UNL     1       3.399   6.841  17.861  0.00  0.00    +0.000 A 
ATOM     11  C   UNL     1       3.874   5.540  18.038  0.00  0.00    +0.000 A 
ATOM     12  C   UNL     1       3.390   4.733  19.077  0.00  0.00    +0.000 A 
ATOM     13  C   UNL     1       3.873   3.436  19.319  0.00  0.00    +0.000 A 
ATOM     14  C   UNL     1       3.393   2.679  20.390  0.00  0.00    +0.000 A 
ATOM     15  C   UNL     1       2.431   3.211  21.248  0.00  0.00    +0.000 A 
ATOM     16  C   UNL     1       1.921   4.483  21.012  0.00  0.00    +0.000 A 
ATOM     17  C   UNL     1       2.376   5.238  19.925  0.00  0.00    +0.000 A 
ATOM     18  C   UNL     1       1.846   6.508  19.678  0.00  0.00    +0.000 A 
ENDBRANCH   2   9
BRANCH   6  19
ATOM     19  C   UNL     1      -0.909  11.051  21.920  0.00  0.00    +0.000 C 
BRANCH  19  20
ATOM     20  C   UNL     1      -1.579  12.114  22.757  0.00  0.00    +0.000 A 
ATOM     21  C   UNL     1      -0.917  13.319  23.035  0.00  0.00    +0.000 A 
ATOM     22  C   UNL     1      -1.546  14.313  23.784  0.00  0.00    +0.000 A 
ATOM     23  C   UNL     1      -2.840  14.112  24.260  0.00  0.00    +0.000 A 
ATOM     24  C   UNL     1      -3.505  12.916  23.995  0.00  0.00    +0.000 A 
ATOM     25  C   UNL     1      -2.878  11.920  23.248  0.00  0.00    +0.000 A 
ENDBRANCH  19  20
ENDBRANCH   6  19
TORSDOF 3
ENDMDL
MODEL 6
REMARK VINA RESULT:      -8.4      1.204      8.925
REMARK  Name = 
REMARK  3 active torsions:
REMARK  status: ('A' for Active; 'I' for Inactive)
REMARK    1  A    between atoms: C_2  and  C_3
REMARK    2  A    between atoms: N_16  and  C_17
REMARK    3  A    between atoms: C_17  and  C_18
REMARK                            x       y       z     vdW  Elec       q    Type
REMARK                         _______ _______ _______ _____ _____    ______ ____
ROOT
ATOM      1  O   UNL     1       5.103   3.207  18.842  0.00  0.00    +0.000 OA
ATOM      2  C   UNL     1       4.882   4.274  18.272  0.00  0.00    +0.000 C 
ATOM      3  N   UNL     1       3.999   5.232  18.775  0.00  0.00    +0.000 N 
ATOM      4  C   UNL     1       3.605   6.492  18.125  0.00  0.00    +0.000 C 
ATOM      5  C   UNL     1       2.111   6.829  18.289  0.00  0.00    +0.000 C 
ATOM      6  N   UNL     1       1.603   6.716  19.668  0.00  0.00    +0.000 NA
ATOM      7  C   UNL     1       1.945   5.363  20.167  0.00  0.00    +0.000 C 
ATOM      8  C   UNL     1       3.446   5.025  20.119  0.00  0.00    +0.000 C 
ENDROOT
BRANCH   2   9
ATOM      9  C   UNL     1       5.575   4.503  16.974  0.00  0.00    +0.000 A 
ATOM     10  C   UNL     1       6.794   5.193  16.962  0.00  0.00    +0.000 A 
ATOM     11  C   UNL     1       7.484   5.367  15.761  0.00  0.00    +0.000 A 
ATOM     12  C   UNL     1       6.989   4.832  14.564  0.00  0.00    +0.000 A 
ATOM     13  C   UNL     1       7.674   4.944  13.343  0.00  0.00    +0.000 A 
ATOM     14  C   UNL     1       7.167   4.361  12.179  0.00  0.00    +0.000 A 
ATOM     15  C   UNL     1       5.973   3.643  12.218  0.00  0.00    +0.000 A 
ATOM     16  C   UNL     1       5.266   3.541  13.411  0.00  0.00    +0.000 A 
ATOM     17  C   UNL     1       5.751   4.145  14.576  0.00  0.00    +0.000 A 
ATOM     18  C   UNL     1       5.028   4.059  15.770  0.00  0.00    +0.000 A 
ENDBRANCH   2   9
BRANCH   6  19
ATOM     19  C   UNL     1       2.151   7.802  20.500  0.00  0.00    +0.000 C 
BRANCH  19  20
ATOM     20  C   UNL     1       1.127   8.820  20.942  0.00  0.00    +0.000 A 
ATOM     21  C   UNL     1       0.543   9.689  20.009  0.00  0.00    +0.000 A 
ATOM     22  C   UNL     1      -0.423  10.611  20.411  0.00  0.00    +0.000 A 
ATOM     23  C   UNL     1      -0.814  10.670  21.748  0.00  0.00    +0.000 A 
ATOM     24  C   UNL     1      -0.237   9.816  22.685  0.00  0.00    +0.000 A 
ATOM     25  C   UNL     1       0.731   8.895  22.285  0.00  0.00    +0.000 A 
ENDBRANCH  19  20
ENDBRANCH   6  19
TORSDOF 3
ENDMDL
MODEL 7
REMARK VINA RESULT:      -8.3      3.758     10.046
REMARK  Name = 
REMARK  3 active torsions:
REMARK  status: ('A' for Active; 'I' for Inactive)
REMARK    1  A    between atoms: C_2  and  C_3
REMARK    2  A    between atoms: N_16  and  C_17
REMARK    3  A    between atoms: C_17  and  C_18
REMARK                            x       y       z     vdW  Elec       q    Type
REMARK                         _______ _______ _______ _____ _____    ______ ____
ROOT
ATOM      1  O   UNL     1       2.320   8.825  17.561  0.00  0.00    +0.000 OA
ATOM      2  C   UNL     1       1.879   8.425  18.638  0.00  0.00    +0.000 C 
ATOM      3  N   UNL     1       1.224   9.261  19.545  0.00  0.00    +0.000 N 
ATOM      4  C   UNL     1       0.743   8.896  20.888  0.00  0.00    +0.000 C 
ATOM      5  C   UNL     1       0.974   9.993  21.943  0.00  0.00    +0.000 C 
ATOM      6  N   UNL     1       0.546  11.342  21.533  0.00  0.00    +0.000 NA
ATOM      7  C   UNL     1       1.195  11.648  20.236  0.00  0.00    +0.000 C 
ATOM      8  C   UNL     1       0.904  10.629  19.120  0.00  0.00    +0.000 C 
ENDROOT
BRANCH   2   9
ATOM      9  C   UNL     1       2.105   6.992  18.969  0.00  0.00    +0.000 A 
ATOM     10  C   UNL     1       2.064   6.585  20.309  0.00  0.00    +0.000 A 
ATOM     11  C   UNL     1       2.219   5.236  20.633  0.00  0.00    +0.000 A 
ATOM     12  C   UNL     1       2.384   4.271  19.629  0.00  0.00    +0.000 A 
ATOM     13  C   UNL     1       2.496   2.898  19.908  0.00  0.00    +0.000 A 
ATOM     14  C   UNL     1       2.618   1.964  18.878  0.00  0.00    +0.000 A 
ATOM     15  C   UNL     1       2.616   2.383  17.548  0.00  0.00    +0.000 A 
ATOM     16  C   UNL     1       2.531   3.739  17.251  0.00  0.00    +0.000 A 
ATOM     17  C   UNL     1       2.436   4.685  18.277  0.00  0.00    +0.000 A 
ATOM     18  C   UNL     1       2.372   6.049  17.976  0.00  0.00    +0.000 A 
ENDBRANCH   2   9
BRANCH   6  19
ATOM     19  C   UNL     1      -0.925  11.413  21.481  0.00  0.00    +0.000 C 
BRANCH  19  20
ATOM     20  C   UNL     1      -1.535  12.375  22.472  0.00  0.00    +0.000 A 
ATOM     21  C   UNL     1      -0.833  13.523  22.869  0.00  0.00    +0.000 A 
ATOM     22  C   UNL     1      -1.407  14.427  23.763  0.00  0.00    +0.000 A 
ATOM     23  C   UNL     1      -2.685  14.192  24.265  0.00  0.00    +0.000 A 
ATOM     24  C   UNL     1      -3.389  13.051  23.883  0.00  0.00    +0.000 A 
ATOM     25  C   UNL     1      -2.817  12.146  22.990  0.00  0.00    +0.000 A 
ENDBRANCH  19  20
ENDBRANCH   6  19
TORSDOF 3
ENDMDL
MODEL 8
REMARK VINA RESULT:      -8.3      2.421      8.671
REMARK  Name = 
REMARK  3 active torsions:
REMARK  status: ('A' for Active; 'I' for Inactive)
REMARK    1  A    between atoms: C_2  and  C_3
REMARK    2  A    between atoms: N_16  and  C_17
REMARK    3  A    between atoms: C_17  and  C_18
REMARK                            x       y       z     vdW  Elec       q    Type
REMARK                         _______ _______ _______ _____ _____    ______ ____
ROOT
ATOM      1  O   UNL     1       1.799   5.789  20.916  0.00  0.00    +0.000 OA
ATOM      2  C   UNL     1       2.178   6.452  19.951  0.00  0.00    +0.000 C 
ATOM      3  N   UNL     1       1.854   7.800  19.786  0.00  0.00    +0.000 N 
ATOM      4  C   UNL     1       2.184   8.648  18.629  0.00  0.00    +0.000 C 
ATOM      5  C   UNL     1       1.048   9.604  18.223  0.00  0.00    +0.000 C 
ATOM      6  N   UNL     1       0.456  10.366  19.337  0.00  0.00    +0.000 NA
ATOM      7  C   UNL     1       0.046   9.397  20.381  0.00  0.00    +0.000 C 
ATOM      8  C   UNL     1       1.180   8.491  20.892  0.00  0.00    +0.000 C 
ENDROOT
BRANCH   2   9
ATOM      9  C   UNL     1       2.980   5.743  18.918  0.00  0.00    +0.000 A 
ATOM     10  C   UNL     1       2.352   4.803  18.090  0.00  0.00    +0.000 A 
ATOM     11  C   UNL     1       3.078   4.170  17.079  0.00  0.00    +0.000 A 
ATOM     12  C   UNL     1       4.426   4.485  16.857  0.00  0.00    +0.000 A 
ATOM     13  C   UNL     1       5.179   3.906  15.822  0.00  0.00    +0.000 A 
ATOM     14  C   UNL     1       6.508   4.277  15.607  0.00  0.00    +0.000 A 
ATOM     15  C   UNL     1       7.105   5.244  16.415  0.00  0.00    +0.000 A 
ATOM     16  C   UNL     1       6.385   5.811  17.461  0.00  0.00    +0.000 A 
ATOM     17  C   UNL     1       5.062   5.426  17.701  0.00  0.00    +0.000 A 
ATOM     18  C   UNL     1       4.347   5.982  18.766  0.00  0.00    +0.000 A 
ENDBRANCH   2   9
BRANCH   6  19
ATOM     19  C   UNL     1       1.412  11.378  19.823  0.00  0.00    +0.000 C 
BRANCH  19  20
ATOM     20  C   UNL     1       1.047  12.798  19.462  0.00  0.00    +0.000 A 
ATOM     21  C   UNL     1      -0.267  13.258  19.634  0.00  0.00    +0.000 A 
ATOM     22  C   UNL     1      -0.598  14.577  19.328  0.00  0.00    +0.000 A 
ATOM     23  C   UNL     1       0.380  15.447  18.850  0.00  0.00    +0.000 A 
ATOM     24  C   UNL     1       1.688  15.000  18.670  0.00  0.00    +0.000 A 
ATOM     25  C   UNL     1       2.021  13.681  18.973  0.00  0.00    +0.000 A 
ENDBRANCH  19  20
ENDBRANCH   6  19
TORSDOF 3
ENDMDL
MODEL 9
REMARK VINA RESULT:      -8.2      3.691      9.936
REMARK  Name = 
REMARK  3 active torsions:
REMARK  status: ('A' for Active; 'I' for Inactive)
REMARK    1  A    between atoms: C_2  and  C_3
REMARK    2  A    between atoms: N_16  and  C_17
REMARK    3  A    between atoms: C_17  and  C_18
REMARK                            x       y       z     vdW  Elec       q    Type
REMARK                         _______ _______ _______ _____ _____    ______ ____
ROOT
ATOM      1  O   UNL     1       2.138   9.707  17.404  0.00  0.00    +0.000 OA
ATOM      2  C   UNL     1       1.886   9.121  18.456  0.00  0.00    +0.000 C 
ATOM      3  N   UNL     1       1.215   9.729  19.519  0.00  0.00    +0.000 N 
ATOM      4  C   UNL     1       0.949   9.140  20.842  0.00  0.00    +0.000 C 
ATOM      5  C   UNL     1       1.123  10.135  22.004  0.00  0.00    +0.000 C 
ATOM      6  N   UNL     1       0.448  11.431  21.811  0.00  0.00    +0.000 NA
ATOM      7  C   UNL     1       0.895  11.984  20.510  0.00  0.00    +0.000 C 
ATOM      8  C   UNL     1       0.642  11.063  19.304  0.00  0.00    +0.000 C 
ENDROOT
BRANCH   2   9
ATOM      9  C   UNL     1       2.366   7.717  18.578  0.00  0.00    +0.000 A 
ATOM     10  C   UNL     1       3.402   7.274  17.745  0.00  0.00    +0.000 A 
ATOM     11  C   UNL     1       3.902   5.978  17.885  0.00  0.00    +0.000 A 
ATOM     12  C   UNL     1       3.403   5.118  18.873  0.00  0.00    +0.000 A 
ATOM     13  C   UNL     1       3.910   3.824  19.078  0.00  0.00    +0.000 A 
ATOM     14  C   UNL     1       3.413   3.012  20.100  0.00  0.00    +0.000 A 
ATOM     15  C   UNL     1       2.410   3.485  20.946  0.00  0.00    +0.000 A 
ATOM     16  C   UNL     1       1.877   4.754  20.745  0.00  0.00    +0.000 A 
ATOM     17  C   UNL     1       2.349   5.563  19.706  0.00  0.00    +0.000 A 
ATOM     18  C   UNL     1       1.797   6.830  19.493  0.00  0.00    +0.000 A 
ENDBRANCH   2   9
BRANCH   6  19
ATOM     19  C   UNL     1      -1.013  11.262  21.903  0.00  0.00    +0.000 C 
BRANCH  19  20
ATOM     20  C   UNL     1      -1.701  12.280  22.781  0.00  0.00    +0.000 A 
ATOM     21  C   UNL     1      -2.976  12.020  23.303  0.00  0.00    +0.000 A 
ATOM     22  C   UNL     1      -3.600  12.947  24.136  0.00  0.00    +0.000 A 
ATOM     23  C   UNL     1      -2.955  14.140  24.456  0.00  0.00    +0.000 A 
ATOM     24  C   UNL     1      -1.690  14.412  23.938  0.00  0.00    +0.000 A 
ATOM     25  C   UNL     1      -1.065  13.487  23.103  0.00  0.00    +0.000 A 
ENDBRANCH  19  20
ENDBRANCH   6  19
TORSDOF 3
ENDMDL
