MODEL 1
REMARK VINA RESULT:      -8.2      0.000      0.000
REMARK  Name = 
REMARK  6 active torsions:
REMARK  status: ('A' for Active; 'I' for Inactive)
REMARK    1  A    between atoms: C_1  and  S_2
REMARK    2  A    between atoms: S_2  and  C_3
REMARK    3  A    between atoms: N_9  and  C_10
REMARK    4  A    between atoms: C_10  and  C_11
REMARK    5  A    between atoms: C_11  and  O_12
REMARK    6  A    between atoms: C_19  and  C_20
REMARK                            x       y       z     vdW  Elec       q    Type
REMARK                         _______ _______ _______ _____ _____    ______ ____
ROOT
ATOM      1  C   UNL     1       2.487   5.028  20.373  0.00  0.00    +0.000 A 
ATOM      2  N   UNL     1       3.149   4.732  19.246  0.00  0.00    +0.000 NA
ATOM      3  C   UNL     1       3.373   5.679  18.289  0.00  0.00    +0.000 A 
ATOM      4  N   UNL     1       4.088   5.301  17.171  0.00  0.00    +0.000 N 
ATOM      5  C   UNL     1       4.897   6.218  16.364  0.00  0.00    +0.000 C 
ATOM      6  C   UNL     1       6.280   5.606  16.035  0.00  0.00    +0.000 C 
ATOM      7  N   UNL     1       6.259   4.240  15.469  0.00  0.00    +0.000 NA
ATOM      8  C   UNL     1       5.487   3.390  16.418  0.00  0.00    +0.000 C 
ATOM      9  C   UNL     1       4.060   3.894  16.742  0.00  0.00    +0.000 C 
ATOM     10  C   UNL     1       2.829   6.962  18.541  0.00  0.00    +0.000 A 
ATOM     11  S   UNL     1       2.807   8.419  17.559  0.00  0.00    +0.000 S 
ATOM     12  C   UNL     1       1.923   9.308  18.706  0.00  0.00    +0.000 A 
ATOM     13  N   UNL     1       1.552  10.594  18.539  0.00  0.00    +0.000 NA
ATOM     14  C   UNL     1       0.840  11.129  19.571  0.00  0.00    +0.000 A 
ATOM     15  C   UNL     1       0.491  10.332  20.662  0.00  0.00    +0.000 A 
ATOM     16  C   UNL     1       0.880   8.993  20.812  0.00  0.00    +0.000 A 
ATOM     17  C   UNL     1       1.662   8.476  19.753  0.00  0.00    +0.000 A 
ATOM     18  C   UNL     1       2.133   7.169  19.737  0.00  0.00    +0.000 A 
ATOM     19  N   UNL     1       1.970   6.214  20.674  0.00  0.00    +0.000 NA
ATOM     20  C   UNL     1       0.369   8.364  22.049  0.00  0.00    +0.000 C 
ATOM     21  C   UNL     1      -0.696   9.395  22.502  0.00  0.00    +0.000 C 
ATOM     22  C   UNL     1      -0.356  10.749  21.823  0.00  0.00    +0.000 C 
ENDROOT
BRANCH  14  23
ATOM     23  C   UNL     1       0.467  12.527  19.466  0.00  0.00    +0.000 A 
ATOM     24  C   UNL     1      -0.552  13.211  18.827  0.00  0.00    +0.000 A 
ATOM     25  C   UNL     1      -0.352  14.587  19.097  0.00  0.00    +0.000 A 
ATOM     26  C   UNL     1       0.783  14.662  19.869  0.00  0.00    +0.000 A 
ATOM     27  O   UNL     1       1.283  13.427  20.092  0.00  0.00    +0.000 OA
ENDBRANCH  14  23
BRANCH   1  29
ATOM     28  C   UNL     1       1.495   2.440  20.651  0.00  0.00    +0.000 C 
ATOM     29  S   UNL     1       2.231   3.778  21.616  0.00  0.00    +0.000 S 
ENDBRANCH   1  29
BRANCH   7  30
ATOM     30  C   UNL     1       5.664   4.191  14.113  0.00  0.00    +0.000 C 
BRANCH  30  31
ATOM     31  C   UNL     1       6.683   3.930  12.988  0.00  0.00    +0.000 C 
BRANCH  31  32
ATOM     32  O   UNL     1       6.380   2.736  12.276  0.00  0.00    +0.000 OA
ATOM     33  H   UNL     1       6.789   2.012  12.787  0.00  0.00    +0.000 HD
ENDBRANCH  31  32
ENDBRANCH  30  31
ENDBRANCH   7  30
TORSDOF 5
ENDMDL
MODEL 2
REMARK VINA RESULT:      -6.7      1.257      1.370
REMARK  Name = 
REMARK  6 active torsions:
REMARK  status: ('A' for Active; 'I' for Inactive)
REMARK    1  A    between atoms: C_1  and  S_2
REMARK    2  A    between atoms: S_2  and  C_3
REMARK    3  A    between atoms: N_9  and  C_10
REMARK    4  A    between atoms: C_10  and  C_11
REMARK    5  A    between atoms: C_11  and  O_12
REMARK    6  A    between atoms: C_19  and  C_20
REMARK                            x       y       z     vdW  Elec       q    Type
REMARK                         _______ _______ _______ _____ _____    ______ ____
ROOT
ATOM      1  C   UNL     1       3.054   4.499  19.636  0.00  0.00    +0.000 A 
ATOM      2  N   UNL     1       3.814   4.384  18.537  0.00  0.00    +0.000 NA
ATOM      3  C   UNL     1       4.039   5.453  17.720  0.00  0.00    +0.000 A 
ATOM      4  N   UNL     1       4.856   5.259  16.625  0.00  0.00    +0.000 N 
ATOM      5  C   UNL     1       5.655   6.316  15.999  0.00  0.00    +0.000 C 
ATOM      6  C   UNL     1       7.097   5.833  15.710  0.00  0.00    +0.000 C 
ATOM      7  N   UNL     1       7.211   4.548  14.986  0.00  0.00    +0.000 NA
ATOM      8  C   UNL     1       6.434   3.543  15.764  0.00  0.00    +0.000 C 
ATOM      9  C   UNL     1       4.956   3.917  16.032  0.00  0.00    +0.000 C 
ATOM     10  C   UNL     1       3.391   6.660  18.079  0.00  0.00    +0.000 A 
ATOM     11  S   UNL     1       3.339   8.223  17.278  0.00  0.00    +0.000 S 
ATOM     12  C   UNL     1       2.315   8.909  18.448  0.00  0.00    +0.000 A 
ATOM     13  N   UNL     1       1.870  10.181  18.405  0.00  0.00    +0.000 NA
ATOM     14  C   UNL     1       1.051  10.541  19.434  0.00  0.00    +0.000 A 
ATOM     15  C   UNL     1       0.680   9.597  20.392  0.00  0.00    +0.000 A 
ATOM     16  C   UNL     1       1.150   8.275  20.413  0.00  0.00    +0.000 A 
ATOM     17  C   UNL     1       2.039   7.941  19.365  0.00  0.00    +0.000 A 
ATOM     18  C   UNL     1       2.599   6.676  19.232  0.00  0.00    +0.000 A 
ATOM     19  N   UNL     1       2.437   5.605  20.034  0.00  0.00    +0.000 NA
ATOM     20  C   UNL     1       0.597   7.469  21.523  0.00  0.00    +0.000 C 
ATOM     21  C   UNL     1      -0.566   8.370  22.009  0.00  0.00    +0.000 C 
ATOM     22  C   UNL     1      -0.274   9.815  21.524  0.00  0.00    +0.000 C 
ENDROOT
BRANCH  14  23
ATOM     23  C   UNL     1       0.590  11.917  19.466  0.00  0.00    +0.000 A 
ATOM     24  C   UNL     1       0.857  13.008  20.273  0.00  0.00    +0.000 A 
ATOM     25  C   UNL     1       0.061  14.076  19.792  0.00  0.00    +0.000 A 
ATOM     26  C   UNL     1      -0.654  13.571  18.732  0.00  0.00    +0.000 A 
ATOM     27  O   UNL     1      -0.343  12.271  18.532  0.00  0.00    +0.000 OA
ENDBRANCH  14  23
BRANCH   1  29
ATOM     28  C   UNL     1       1.313   3.576  21.605  0.00  0.00    +0.000 C 
ATOM     29  S   UNL     1       2.798   3.092  20.698  0.00  0.00    +0.000 S 
ENDBRANCH   1  29
BRANCH   7  30
ATOM     30  C   UNL     1       6.719   4.631  13.591  0.00  0.00    +0.000 C 
BRANCH  30  31
ATOM     31  C   UNL     1       7.764   5.150  12.585  0.00  0.00    +0.000 C 
BRANCH  31  32
ATOM     32  O   UNL     1       8.749   5.952  13.224  0.00  0.00    +0.000 OA
ATOM     33  H   UNL     1       9.045   6.594  12.551  0.00  0.00    +0.000 HD
ENDBRANCH  31  32
ENDBRANCH  30  31
ENDBRANCH   7  30
TORSDOF 5
ENDMDL
MODEL 3
REMARK VINA RESULT:      -6.4      5.431     11.460
REMARK  Name = 
REMARK  6 active torsions:
REMARK  status: ('A' for Active; 'I' for Inactive)
REMARK    1  A    between atoms: C_1  and  S_2
REMARK    2  A    between atoms: S_2  and  C_3
REMARK    3  A    between atoms: N_9  and  C_10
REMARK    4  A    between atoms: C_10  and  C_11
REMARK    5  A    between atoms: C_11  and  O_12
REMARK    6  A    between atoms: C_19  and  C_20
REMARK                            x       y       z     vdW  Elec       q    Type
REMARK                         _______ _______ _______ _____ _____    ______ ____
ROOT
ATOM      1  C   UNL     1      -4.412  14.526  20.963  0.00  0.00    +0.000 A 
ATOM      2  N   UNL     1      -3.895  15.142  22.036  0.00  0.00    +0.000 NA
ATOM      3  C   UNL     1      -2.636  14.853  22.476  0.00  0.00    +0.000 A 
ATOM      4  N   UNL     1      -2.166  15.551  23.571  0.00  0.00    +0.000 N 
ATOM      5  C   UNL     1      -0.748  15.816  23.828  0.00  0.00    +0.000 C 
ATOM      6  C   UNL     1      -0.519  17.290  24.241  0.00  0.00    +0.000 C 
ATOM      7  N   UNL     1      -1.386  17.795  25.329  0.00  0.00    +0.000 NA
ATOM      8  C   UNL     1      -2.794  17.548  24.910  0.00  0.00    +0.000 C 
ATOM      9  C   UNL     1      -3.126  16.079  24.552  0.00  0.00    +0.000 C 
ATOM     10  C   UNL     1      -1.942  13.845  21.764  0.00  0.00    +0.000 A 
ATOM     11  S   UNL     1      -0.366  13.117  22.038  0.00  0.00    +0.000 S 
ATOM     12  C   UNL     1      -0.509  12.053  20.721  0.00  0.00    +0.000 A 
ATOM     13  N   UNL     1       0.438  11.161  20.368  0.00  0.00    +0.000 NA
ATOM     14  C   UNL     1       0.132  10.391  19.285  0.00  0.00    +0.000 A 
ATOM     15  C   UNL     1      -1.116  10.515  18.674  0.00  0.00    +0.000 A 
ATOM     16  C   UNL     1      -2.091  11.446  19.062  0.00  0.00    +0.000 A 
ATOM     17  C   UNL     1      -1.729  12.268  20.154  0.00  0.00    +0.000 A 
ATOM     18  C   UNL     1      -2.574  13.243  20.671  0.00  0.00    +0.000 A 
ATOM     19  N   UNL     1      -3.805  13.588  20.245  0.00  0.00    +0.000 NA
ATOM     20  C   UNL     1      -3.334  11.368  18.265  0.00  0.00    +0.000 C 
ATOM     21  C   UNL     1      -3.145  10.016  17.532  0.00  0.00    +0.000 C 
ATOM     22  C   UNL     1      -1.629   9.686  17.538  0.00  0.00    +0.000 C 
ENDROOT
BRANCH  14  23
ATOM     23  C   UNL     1       1.142   9.454  18.829  0.00  0.00    +0.000 A 
ATOM     24  C   UNL     1       1.890   9.325  17.673  0.00  0.00    +0.000 A 
ATOM     25  C   UNL     1       2.699   8.174  17.836  0.00  0.00    +0.000 A 
ATOM     26  C   UNL     1       2.386   7.660  19.072  0.00  0.00    +0.000 A 
ATOM     27  O   UNL     1       1.447   8.424  19.675  0.00  0.00    +0.000 OA
ENDBRANCH  14  23
BRANCH   1  29
ATOM     28  C   UNL     1      -6.312  13.718  19.093  0.00  0.00    +0.000 C 
ATOM     29  S   UNL     1      -6.049  14.941  20.396  0.00  0.00    +0.000 S 
ENDBRANCH   1  29
BRANCH   7  30
ATOM     30  C   UNL     1      -1.101  17.151  26.632  0.00  0.00    +0.000 C 
BRANCH  30  31
ATOM     31  C   UNL     1       0.397  17.072  26.981  0.00  0.00    +0.000 C 
BRANCH  31  32
ATOM     32  O   UNL     1       0.743  15.798  27.511  0.00  0.00    +0.000 OA
ATOM     33  H   UNL     1      -0.033  15.506  28.026  0.00  0.00    +0.000 HD
ENDBRANCH  31  32
ENDBRANCH  30  31
ENDBRANCH   7  30
TORSDOF 5
ENDMDL
MODEL 4
REMARK VINA RESULT:      -6.3      3.823     10.147
REMARK  Name = 
REMARK  6 active torsions:
REMARK  status: ('A' for Active; 'I' for Inactive)
REMARK    1  A    between atoms: C_1  and  S_2
REMARK    2  A    between atoms: S_2  and  C_3
REMARK    3  A    between atoms: N_9  and  C_10
REMARK    4  A    between atoms: C_10  and  C_11
REMARK    5  A    between atoms: C_11  and  O_12
REMARK    6  A    between atoms: C_19  and  C_20
REMARK                            x       y       z     vdW  Elec       q    Type
REMARK                         _______ _______ _______ _____ _____    ______ ____
ROOT
ATOM      1  C   UNL     1       1.214  12.258  18.921  0.00  0.00    +0.000 A 
ATOM      2  N   UNL     1       0.259  12.717  19.743  0.00  0.00    +0.000 NA
ATOM      3  C   UNL     1      -0.330  11.902  20.665  0.00  0.00    +0.000 A 
ATOM      4  N   UNL     1      -1.284  12.459  21.492  0.00  0.00    +0.000 N 
ATOM      5  C   UNL     1      -1.590  11.968  22.839  0.00  0.00    +0.000 C 
ATOM      6  C   UNL     1      -1.696  13.134  23.850  0.00  0.00    +0.000 C 
ATOM      7  N   UNL     1      -2.581  14.251  23.451  0.00  0.00    +0.000 NA
ATOM      8  C   UNL     1      -2.115  14.716  22.115  0.00  0.00    +0.000 C 
ATOM      9  C   UNL     1      -2.052  13.621  21.022  0.00  0.00    +0.000 C 
ATOM     10  C   UNL     1       0.095  10.551  20.665  0.00  0.00    +0.000 A 
ATOM     11  S   UNL     1      -0.450   9.172  21.607  0.00  0.00    +0.000 S 
ATOM     12  C   UNL     1       0.618   8.092  20.844  0.00  0.00    +0.000 A 
ATOM     13  N   UNL     1       0.698   6.778  21.138  0.00  0.00    +0.000 NA
ATOM     14  C   UNL     1       1.612   6.078  20.409  0.00  0.00    +0.000 A 
ATOM     15  C   UNL     1       2.333   6.715  19.399  0.00  0.00    +0.000 A 
ATOM     16  C   UNL     1       2.229   8.083  19.105  0.00  0.00    +0.000 A 
ATOM     17  C   UNL     1       1.311   8.798  19.909  0.00  0.00    +0.000 A 
ATOM     18  C   UNL     1       1.082  10.160  19.754  0.00  0.00    +0.000 A 
ATOM     19  N   UNL     1       1.667  11.009  18.886  0.00  0.00    +0.000 NA
ATOM     20  C   UNL     1       3.086   8.513  17.979  0.00  0.00    +0.000 C 
ATOM     21  C   UNL     1       3.498   7.150  17.368  0.00  0.00    +0.000 C 
ATOM     22  C   UNL     1       3.303   6.066  18.462  0.00  0.00    +0.000 C 
ENDROOT
BRANCH  14  23
ATOM     23  C   UNL     1       1.778   4.671  20.726  0.00  0.00    +0.000 A 
ATOM     24  C   UNL     1       2.540   3.969  21.643  0.00  0.00    +0.000 A 
ATOM     25  C   UNL     1       2.266   2.595  21.435  0.00  0.00    +0.000 A 
ATOM     26  C   UNL     1       1.367   2.540  20.396  0.00  0.00    +0.000 A 
ATOM     27  O   UNL     1       1.071   3.785  19.962  0.00  0.00    +0.000 OA
ENDBRANCH  14  23
BRANCH   1  29
ATOM     28  C   UNL     1       2.761  14.572  18.823  0.00  0.00    +0.000 C 
ATOM     29  S   UNL     1       1.983  13.351  17.744  0.00  0.00    +0.000 S 
ENDBRANCH   1  29
BRANCH   7  30
ATOM     30  C   UNL     1      -4.009  13.862  23.407  0.00  0.00    +0.000 C 
BRANCH  30  31
ATOM     31  C   UNL     1      -4.436  12.903  24.534  0.00  0.00    +0.000 C 
BRANCH  31  32
ATOM     32  O   UNL     1      -5.646  12.229  24.215  0.00  0.00    +0.000 OA
ATOM     33  H   UNL     1      -6.318  12.928  24.105  0.00  0.00    +0.000 HD
ENDBRANCH  31  32
ENDBRANCH  30  31
ENDBRANCH   7  30
TORSDOF 5
ENDMDL
MODEL 5
REMARK VINA RESULT:      -6.2      3.932     10.325
REMARK  Name = 
REMARK  6 active torsions:
REMARK  status: ('A' for Active; 'I' for Inactive)
REMARK    1  A    between atoms: C_1  and  S_2
REMARK    2  A    between atoms: S_2  and  C_3
REMARK    3  A    between atoms: N_9  and  C_10
REMARK    4  A    between atoms: C_10  and  C_11
REMARK    5  A    between atoms: C_11  and  O_12
REMARK    6  A    between atoms: C_19  and  C_20
REMARK                            x       y       z     vdW  Elec       q    Type
REMARK                         _______ _______ _______ _____ _____    ______ ____
ROOT
ATOM      1  C   UNL     1       1.390  12.438  18.896  0.00  0.00    +0.000 A 
ATOM      2  N   UNL     1       0.448  12.944  19.706  0.00  0.00    +0.000 NA
ATOM      3  C   UNL     1      -0.192  12.159  20.620  0.00  0.00    +0.000 A 
ATOM      4  N   UNL     1      -1.128  12.762  21.436  0.00  0.00    +0.000 N 
ATOM      5  C   UNL     1      -1.475  12.287  22.778  0.00  0.00    +0.000 C 
ATOM      6  C   UNL     1      -1.536  13.458  23.788  0.00  0.00    +0.000 C 
ATOM      7  N   UNL     1      -2.360  14.617  23.379  0.00  0.00    +0.000 NA
ATOM      8  C   UNL     1      -1.855  15.058  22.048  0.00  0.00    +0.000 C 
ATOM      9  C   UNL     1      -1.832  13.960  20.956  0.00  0.00    +0.000 C 
ATOM     10  C   UNL     1       0.166  10.789  20.626  0.00  0.00    +0.000 A 
ATOM     11  S   UNL     1      -0.458   9.438  21.561  0.00  0.00    +0.000 S 
ATOM     12  C   UNL     1       0.565   8.307  20.811  0.00  0.00    +0.000 A 
ATOM     13  N   UNL     1       0.576   6.991  21.105  0.00  0.00    +0.000 NA
ATOM     14  C   UNL     1       1.464   6.246  20.388  0.00  0.00    +0.000 A 
ATOM     15  C   UNL     1       2.228   6.847  19.387  0.00  0.00    +0.000 A 
ATOM     16  C   UNL     1       2.195   8.218  19.092  0.00  0.00    +0.000 A 
ATOM     17  C   UNL     1       1.304   8.978  19.884  0.00  0.00    +0.000 A 
ATOM     18  C   UNL     1       1.144  10.349  19.727  0.00  0.00    +0.000 A 
ATOM     19  N   UNL     1       1.780  11.169  18.867  0.00  0.00    +0.000 NA
ATOM     20  C   UNL     1       3.087   8.605  17.977  0.00  0.00    +0.000 C 
ATOM     21  C   UNL     1       3.439   7.223  17.371  0.00  0.00    +0.000 C 
ATOM     22  C   UNL     1       3.177   6.151  18.462  0.00  0.00    +0.000 C 
ENDROOT
BRANCH  14  23
ATOM     23  C   UNL     1       1.557   4.834  20.707  0.00  0.00    +0.000 A 
ATOM     24  C   UNL     1       0.867   3.704  20.305  0.00  0.00    +0.000 A 
ATOM     25  C   UNL     1       1.433   2.609  21.003  0.00  0.00    +0.000 A 
ATOM     26  C   UNL     1       2.421   3.137  21.800  0.00  0.00    +0.000 A 
ATOM     27  O   UNL     1       2.500   4.475  21.629  0.00  0.00    +0.000 OA
ENDBRANCH  14  23
BRANCH   1  29
ATOM     28  C   UNL     1       2.415  15.018  18.675  0.00  0.00    +0.000 C 
ATOM     29  S   UNL     1       2.226  13.491  17.729  0.00  0.00    +0.000 S 
ENDBRANCH   1  29
BRANCH   7  30
ATOM     30  C   UNL     1      -3.805  14.299  23.316  0.00  0.00    +0.000 C 
BRANCH  30  31
ATOM     31  C   UNL     1      -4.727  15.513  23.537  0.00  0.00    +0.000 C 
BRANCH  31  32
ATOM     32  O   UNL     1      -4.637  16.001  24.870  0.00  0.00    +0.000 OA
ATOM     33  H   UNL     1      -3.709  15.867  25.139  0.00  0.00    +0.000 HD
ENDBRANCH  31  32
ENDBRANCH  30  31
ENDBRANCH   7  30
TORSDOF 5
ENDMDL
MODEL 6
REMARK VINA RESULT:      -6.1      2.456      8.773
REMARK  Name = 
REMARK  6 active torsions:
REMARK  status: ('A' for Active; 'I' for Inactive)
REMARK    1  A    between atoms: C_1  and  S_2
REMARK    2  A    between atoms: S_2  and  C_3
REMARK    3  A    between atoms: N_9  and  C_10
REMARK    4  A    between atoms: C_10  and  C_11
REMARK    5  A    between atoms: C_11  and  O_12
REMARK    6  A    between atoms: C_19  and  C_20
REMARK                            x       y       z     vdW  Elec       q    Type
REMARK                         _______ _______ _______ _____ _____    ______ ____
ROOT
ATOM      1  C   UNL     1       0.121   9.752  21.729  0.00  0.00    +0.000 A 
ATOM      2  N   UNL     1       0.191  10.996  21.234  0.00  0.00    +0.000 NA
ATOM      3  C   UNL     1       0.854  11.256  20.070  0.00  0.00    +0.000 A 
ATOM      4  N   UNL     1       0.855  12.559  19.614  0.00  0.00    +0.000 N 
ATOM      5  C   UNL     1       0.979  12.934  18.202  0.00  0.00    +0.000 C 
ATOM      6  C   UNL     1      -0.055  14.019  17.817  0.00  0.00    +0.000 C 
ATOM      7  N   UNL     1      -0.105  15.202  18.704  0.00  0.00    +0.000 NA
ATOM      8  C   UNL     1      -0.320  14.696  20.089  0.00  0.00    +0.000 C 
ATOM      9  C   UNL     1       0.719  13.659  20.580  0.00  0.00    +0.000 C 
ATOM     10  C   UNL     1       1.491  10.152  19.455  0.00  0.00    +0.000 A 
ATOM     11  S   UNL     1       2.503  10.056  18.022  0.00  0.00    +0.000 S 
ATOM     12  C   UNL     1       2.763   8.384  18.185  0.00  0.00    +0.000 A 
ATOM     13  N   UNL     1       3.514   7.653  17.336  0.00  0.00    +0.000 NA
ATOM     14  C   UNL     1       3.607   6.328  17.643  0.00  0.00    +0.000 A 
ATOM     15  C   UNL     1       3.004   5.838  18.802  0.00  0.00    +0.000 A 
ATOM     16  C   UNL     1       2.233   6.619  19.675  0.00  0.00    +0.000 A 
ATOM     17  C   UNL     1       2.108   7.979  19.308  0.00  0.00    +0.000 A 
ATOM     18  C   UNL     1       1.382   8.894  20.059  0.00  0.00    +0.000 A 
ATOM     19  N   UNL     1       0.681   8.675  21.189  0.00  0.00    +0.000 NA
ATOM     20  C   UNL     1       1.716   5.868  20.840  0.00  0.00    +0.000 C 
ATOM     21  C   UNL     1       2.558   4.569  20.767  0.00  0.00    +0.000 C 
ATOM     22  C   UNL     1       3.089   4.435  19.315  0.00  0.00    +0.000 C 
ENDROOT
BRANCH  14  23
ATOM     23  C   UNL     1       4.356   5.486  16.730  0.00  0.00    +0.000 A 
ATOM     24  C   UNL     1       4.550   4.121  16.610  0.00  0.00    +0.000 A 
ATOM     25  C   UNL     1       5.418   3.927  15.507  0.00  0.00    +0.000 A 
ATOM     26  C   UNL     1       5.715   5.182  15.031  0.00  0.00    +0.000 A 
ATOM     27  O   UNL     1       5.082   6.125  15.763  0.00  0.00    +0.000 OA
ENDBRANCH  14  23
BRANCH   1  29
ATOM     28  C   UNL     1      -1.689  10.978  23.454  0.00  0.00    +0.000 C 
ATOM     29  S   UNL     1      -0.772   9.437  23.238  0.00  0.00    +0.000 S 
ENDBRANCH   1  29
BRANCH   7  30
ATOM     30  C   UNL     1       1.123  16.026  18.628  0.00  0.00    +0.000 C 
BRANCH  30  31
ATOM     31  C   UNL     1       0.888  17.461  18.120  0.00  0.00    +0.000 C 
BRANCH  31  32
ATOM     32  O   UNL     1       2.000  17.938  17.373  0.00  0.00    +0.000 OA
ATOM     33  H   UNL     1       1.879  18.905  17.307  0.00  0.00    +0.000 HD
ENDBRANCH  31  32
ENDBRANCH  30  31
ENDBRANCH   7  30
TORSDOF 5
ENDMDL
MODEL 7
REMARK VINA RESULT:      -5.9      7.315      9.556
REMARK  Name = 
REMARK  6 active torsions:
REMARK  status: ('A' for Active; 'I' for Inactive)
REMARK    1  A    between atoms: C_1  and  S_2
REMARK    2  A    between atoms: S_2  and  C_3
REMARK    3  A    between atoms: N_9  and  C_10
REMARK    4  A    between atoms: C_10  and  C_11
REMARK    5  A    between atoms: C_11  and  O_12
REMARK    6  A    between atoms: C_19  and  C_20
REMARK                            x       y       z     vdW  Elec       q    Type
REMARK                         _______ _______ _______ _____ _____    ______ ____
ROOT
ATOM      1  C   UNL     1      -5.722  13.027  21.555  0.00  0.00    +0.000 A 
ATOM      2  N   UNL     1      -5.260  12.465  20.428  0.00  0.00    +0.000 NA
ATOM      3  C   UNL     1      -3.971  12.657  20.022  0.00  0.00    +0.000 A 
ATOM      4  N   UNL     1      -3.565  12.021  18.866  0.00  0.00    +0.000 N 
ATOM      5  C   UNL     1      -2.181  11.629  18.588  0.00  0.00    +0.000 C 
ATOM      6  C   UNL     1      -2.106  10.186  18.035  0.00  0.00    +0.000 C 
ATOM      7  N   UNL     1      -3.007   9.886  16.900  0.00  0.00    +0.000 NA
ATOM      8  C   UNL     1      -4.386  10.243  17.337  0.00  0.00    +0.000 C 
ATOM      9  C   UNL     1      -4.563  11.698  17.835  0.00  0.00    +0.000 C 
ATOM     10  C   UNL     1      -3.182  13.510  20.831  0.00  0.00    +0.000 A 
ATOM     11  S   UNL     1      -1.534  14.085  20.634  0.00  0.00    +0.000 S 
ATOM     12  C   UNL     1      -1.579  15.026  22.048  0.00  0.00    +0.000 A 
ATOM     13  N   UNL     1      -0.545  15.772  22.489  0.00  0.00    +0.000 NA
ATOM     14  C   UNL     1      -0.781  16.463  23.640  0.00  0.00    +0.000 A 
ATOM     15  C   UNL     1      -2.043  16.416  24.234  0.00  0.00    +0.000 A 
ATOM     16  C   UNL     1      -3.108  15.639  23.753  0.00  0.00    +0.000 A 
ATOM     17  C   UNL     1      -2.822  14.891  22.587  0.00  0.00    +0.000 A 
ATOM     18  C   UNL     1      -3.760  14.068  21.976  0.00  0.00    +0.000 A 
ATOM     19  N   UNL     1      -5.027  13.819  22.363  0.00  0.00    +0.000 NA
ATOM     20  C   UNL     1      -4.346  15.774  24.551  0.00  0.00    +0.000 C 
ATOM     21  C   UNL     1      -4.022  17.020  25.413  0.00  0.00    +0.000 C 
ATOM     22  C   UNL     1      -2.479  17.183  25.443  0.00  0.00    +0.000 C 
ENDROOT
BRANCH  14  23
ATOM     23  C   UNL     1       0.317  17.236  24.188  0.00  0.00    +0.000 A 
ATOM     24  C   UNL     1       0.985  18.382  23.795  0.00  0.00    +0.000 A 
ATOM     25  C   UNL     1       1.991  18.621  24.762  0.00  0.00    +0.000 A 
ATOM     26  C   UNL     1       1.889  17.601  25.678  0.00  0.00    +0.000 A 
ATOM     27  O   UNL     1       0.885  16.762  25.338  0.00  0.00    +0.000 OA
ENDBRANCH  14  23
BRANCH   1  29
ATOM     28  C   UNL     1      -7.795  11.195  21.223  0.00  0.00    +0.000 C 
ATOM     29  S   UNL     1      -7.402  12.739  22.074  0.00  0.00    +0.000 S 
ENDBRANCH   1  29
BRANCH   7  30
ATOM     30  C   UNL     1      -2.638  10.618  15.667  0.00  0.00    +0.000 C 
BRANCH  30  31
ATOM     31  C   UNL     1      -3.427  10.184  14.417  0.00  0.00    +0.000 C 
BRANCH  31  32
ATOM     32  O   UNL     1      -2.559   9.767  13.370  0.00  0.00    +0.000 OA
ATOM     33  H   UNL     1      -2.430   8.809  13.500  0.00  0.00    +0.000 HD
ENDBRANCH  31  32
ENDBRANCH  30  31
ENDBRANCH   7  30
TORSDOF 5
ENDMDL
MODEL 8
REMARK VINA RESULT:      -5.8      8.709      8.965
REMARK  Name = 
REMARK  6 active torsions:
REMARK  status: ('A' for Active; 'I' for Inactive)
REMARK    1  A    between atoms: C_1  and  S_2
REMARK    2  A    between atoms: S_2  and  C_3
REMARK    3  A    between atoms: N_9  and  C_10
REMARK    4  A    between atoms: C_10  and  C_11
REMARK    5  A    between atoms: C_11  and  O_12
REMARK    6  A    between atoms: C_19  and  C_20
REMARK                            x       y       z     vdW  Elec       q    Type
REMARK                         _______ _______ _______ _____ _____    ______ ____
ROOT
ATOM      1  C   UNL     1       6.755  14.271  22.840  0.00  0.00    +0.000 A 
ATOM      2  N   UNL     1       7.773  13.946  22.030  0.00  0.00    +0.000 NA
ATOM      3  C   UNL     1       7.729  14.225  20.695  0.00  0.00    +0.000 A 
ATOM      4  N   UNL     1       8.830  13.884  19.935  0.00  0.00    +0.000 N 
ATOM      5  C   UNL     1       9.221  14.572  18.702  0.00  0.00    +0.000 C 
ATOM      6  C   UNL     1      10.740  14.865  18.681  0.00  0.00    +0.000 C 
ATOM      7  N   UNL     1      11.621  13.714  18.978  0.00  0.00    +0.000 NA
ATOM      8  C   UNL     1      11.181  13.160  20.289  0.00  0.00    +0.000 C 
ATOM      9  C   UNL     1       9.685  12.769  20.369  0.00  0.00    +0.000 C 
ATOM     10  C   UNL     1       6.540  14.830  20.223  0.00  0.00    +0.000 A 
ATOM     11  S   UNL     1       6.038  15.272  18.598  0.00  0.00    +0.000 S 
ATOM     12  C   UNL     1       4.522  15.848  19.107  0.00  0.00    +0.000 A 
ATOM     13  N   UNL     1       3.592  16.360  18.274  0.00  0.00    +0.000 NA
ATOM     14  C   UNL     1       2.436  16.761  18.875  0.00  0.00    +0.000 A 
ATOM     15  C   UNL     1       2.260  16.565  20.245  0.00  0.00    +0.000 A 
ATOM     16  C   UNL     1       3.238  16.023  21.093  0.00  0.00    +0.000 A 
ATOM     17  C   UNL     1       4.447  15.663  20.455  0.00  0.00    +0.000 A 
ATOM     18  C   UNL     1       5.522  15.111  21.141  0.00  0.00    +0.000 A 
ATOM     19  N   UNL     1       5.624  14.854  22.460  0.00  0.00    +0.000 NA
ATOM     20  C   UNL     1       2.800  15.904  22.501  0.00  0.00    +0.000 C 
ATOM     21  C   UNL     1       1.273  16.129  22.369  0.00  0.00    +0.000 C 
ATOM     22  C   UNL     1       1.022  16.870  21.029  0.00  0.00    +0.000 C 
ENDROOT
BRANCH  14  23
ATOM     23  C   UNL     1       1.426  17.371  18.032  0.00  0.00    +0.000 A 
ATOM     24  C   UNL     1       1.462  18.188  16.916  0.00  0.00    +0.000 A 
ATOM     25  C   UNL     1       0.117  18.461  16.566  0.00  0.00    +0.000 A 
ATOM     26  C   UNL     1      -0.658  17.809  17.495  0.00  0.00    +0.000 A 
ATOM     27  O   UNL     1       0.123  17.154  18.383  0.00  0.00    +0.000 OA
ENDBRANCH  14  23
BRANCH   1  29
ATOM     28  C   UNL     1       8.112  12.626  24.632  0.00  0.00    +0.000 C 
ATOM     29  S   UNL     1       6.849  13.916  24.583  0.00  0.00    +0.000 S 
ENDBRANCH   1  29
BRANCH   7  30
ATOM     30  C   UNL     1      11.579  12.674  17.925  0.00  0.00    +0.000 C 
BRANCH  30  31
ATOM     31  C   UNL     1      11.236  13.212  16.523  0.00  0.00    +0.000 C 
BRANCH  31  32
ATOM     32  O   UNL     1      12.327  13.059  15.624  0.00  0.00    +0.000 OA
ATOM     33  H   UNL     1      11.988  12.517  14.886  0.00  0.00    +0.000 HD
ENDBRANCH  31  32
ENDBRANCH  30  31
ENDBRANCH   7  30
TORSDOF 5
ENDMDL
MODEL 9
REMARK VINA RESULT:      -5.7      7.119      9.307
REMARK  Name = 
REMARK  6 active torsions:
REMARK  status: ('A' for Active; 'I' for Inactive)
REMARK    1  A    between atoms: C_1  and  S_2
REMARK    2  A    between atoms: S_2  and  C_3
REMARK    3  A    between atoms: N_9  and  C_10
REMARK    4  A    between atoms: C_10  and  C_11
REMARK    5  A    between atoms: C_11  and  O_12
REMARK    6  A    between atoms: C_19  and  C_20
REMARK                            x       y       z     vdW  Elec       q    Type
REMARK                         _______ _______ _______ _____ _____    ______ ____
ROOT
ATOM      1  C   UNL     1      -4.676  13.211  22.086  0.00  0.00    +0.000 A 
ATOM      2  N   UNL     1      -4.415  12.630  20.906  0.00  0.00    +0.000 NA
ATOM      3  C   UNL     1      -3.202  12.778  20.299  0.00  0.00    +0.000 A 
ATOM      4  N   UNL     1      -3.004  12.123  19.100  0.00  0.00    +0.000 N 
ATOM      5  C   UNL     1      -1.694  11.686  18.610  0.00  0.00    +0.000 C 
ATOM      6  C   UNL     1      -1.754  10.238  18.066  0.00  0.00    +0.000 C 
ATOM      7  N   UNL     1      -2.832   9.963  17.091  0.00  0.00    +0.000 NA
ATOM      8  C   UNL     1      -4.112  10.366  17.737  0.00  0.00    +0.000 C 
ATOM      9  C   UNL     1      -4.162  11.828  18.243  0.00  0.00    +0.000 C 
ATOM     10  C   UNL     1      -2.269  13.608  20.965  0.00  0.00    +0.000 A 
ATOM     11  S   UNL     1      -0.655  14.129  20.504  0.00  0.00    +0.000 S 
ATOM     12  C   UNL     1      -0.446  15.078  21.899  0.00  0.00    +0.000 A 
ATOM     13  N   UNL     1       0.667  15.792  22.164  0.00  0.00    +0.000 NA
ATOM     14  C   UNL     1       0.638  16.495  23.331  0.00  0.00    +0.000 A 
ATOM     15  C   UNL     1      -0.515  16.492  24.117  0.00  0.00    +0.000 A 
ATOM     16  C   UNL     1      -1.666  15.747  23.818  0.00  0.00    +0.000 A 
ATOM     17  C   UNL     1      -1.592  14.985  22.629  0.00  0.00    +0.000 A 
ATOM     18  C   UNL     1      -2.640  14.191  22.182  0.00  0.00    +0.000 A 
ATOM     19  N   UNL     1      -3.837  13.985  22.766  0.00  0.00    +0.000 NA
ATOM     20  C   UNL     1      -2.757  15.927  24.800  0.00  0.00    +0.000 C 
ATOM     21  C   UNL     1      -2.262  17.165  25.588  0.00  0.00    +0.000 C 
ATOM     22  C   UNL     1      -0.730  17.278  25.372  0.00  0.00    +0.000 C 
ENDROOT
BRANCH  14  23
ATOM     23  C   UNL     1       1.833  17.235  23.691  0.00  0.00    +0.000 A 
ATOM     24  C   UNL     1       2.283  18.521  23.454  0.00  0.00    +0.000 A 
ATOM     25  C   UNL     1       3.557  18.628  24.065  0.00  0.00    +0.000 A 
ATOM     26  C   UNL     1       3.815  17.398  24.624  0.00  0.00    +0.000 A 
ATOM     27  O   UNL     1       2.784  16.554  24.400  0.00  0.00    +0.000 OA
ENDBRANCH  14  23
BRANCH   1  29
ATOM     28  C   UNL     1      -7.267  12.380  21.494  0.00  0.00    +0.000 C 
ATOM     29  S   UNL     1      -6.260  12.981  22.867  0.00  0.00    +0.000 S 
ENDBRANCH   1  29
BRANCH   7  30
ATOM     30  C   UNL     1      -2.639  10.676  15.808  0.00  0.00    +0.000 C 
BRANCH  30  31
ATOM     31  C   UNL     1      -3.461  10.102  14.639  0.00  0.00    +0.000 C 
BRANCH  31  32
ATOM     32  O   UNL     1      -2.675   9.977  13.460  0.00  0.00    +0.000 OA
ATOM     33  H   UNL     1      -3.303  10.035  12.716  0.00  0.00    +0.000 HD
ENDBRANCH  31  32
ENDBRANCH  30  31
ENDBRANCH   7  30
TORSDOF 5
ENDMDL
