MODEL 1
REMARK VINA RESULT:      -8.0      0.000      0.000
REMARK  Name = 
REMARK  4 active torsions:
REMARK  status: ('A' for Active; 'I' for Inactive)
REMARK    1  A    between atoms: C_4  and  C_5
REMARK    2  A    between atoms: C_5  and  N_6
REMARK    3  A    between atoms: C_9  and  O_10
REMARK    4  A    between atoms: C_18  and  O_19
REMARK                            x       y       z     vdW  Elec       q    Type
REMARK                         _______ _______ _______ _____ _____    ______ ____
ROOT
ATOM      1  O   UNL     1       8.087   6.077  18.942  0.00  0.00    +0.000 OA
ATOM      2  C   UNL     1       7.036   5.679  18.456  0.00  0.00    +0.000 A 
ATOM      3  N   UNL     1       5.909   5.468  19.214  0.00  0.00    +0.000 N 
ATOM      4  C   UNL     1       4.655   5.181  18.685  0.00  0.00    +0.000 A 
ATOM      5  N   UNL     1       4.410   4.906  17.431  0.00  0.00    +0.000 NA
ATOM      6  C   UNL     1       5.555   4.986  16.618  0.00  0.00    +0.000 A 
ATOM      7  C   UNL     1       6.775   5.392  17.090  0.00  0.00    +0.000 A 
ATOM      8  O   UNL     1       7.693   5.450  16.098  0.00  0.00    +0.000 OA
ATOM      9  C   UNL     1       7.055   4.999  14.975  0.00  0.00    +0.000 A 
ATOM     10  C   UNL     1       7.660   4.862  13.728  0.00  0.00    +0.000 A 
ATOM     11  C   UNL     1       6.872   4.303  12.720  0.00  0.00    +0.000 A 
ATOM     12  C   UNL     1       5.542   3.927  12.959  0.00  0.00    +0.000 A 
ATOM     13 BR   UNL     1       4.503   3.100  11.599  0.00  0.00    +0.000 Br
ATOM     14  C   UNL     1       4.945   4.123  14.215  0.00  0.00    +0.000 A 
ATOM     15  C   UNL     1       5.725   4.666  15.252  0.00  0.00    +0.000 A 
ATOM     16  H   UNL     1       5.965   5.661  20.207  0.00  0.00    +0.000 HD
ENDROOT
BRANCH  11  17
ATOM     17  O   UNL     1       7.424   4.109  11.480  0.00  0.00    +0.000 OA
ATOM     18  H   UNL     1       7.292   3.187  11.206  0.00  0.00    +0.000 HD
ENDBRANCH  11  17
BRANCH   4  19
ATOM     19  C   UNL     1       3.536   5.202  19.734  0.00  0.00    +0.000 C 
BRANCH  19  20
ATOM     20  N   UNL     1       3.144   3.816  20.110  0.00  0.00    +0.000 NA
ATOM     21  C   UNL     1       2.179   3.794  21.234  0.00  0.00    +0.000 C 
ATOM     22  C   UNL     1       0.980   2.966  20.808  0.00  0.00    +0.000 C 
ATOM     23  C   UNL     1       1.020   3.002  19.296  0.00  0.00    +0.000 C 
ATOM     24  C   UNL     1       2.508   3.110  18.982  0.00  0.00    +0.000 C 
BRANCH  23  25
ATOM     25  O   UNL     1       0.427   1.839  18.739  0.00  0.00    +0.000 OA
ATOM     26  H   UNL     1       0.866   1.058  19.125  0.00  0.00    +0.000 HD
ENDBRANCH  23  25
ENDBRANCH  19  20
ENDBRANCH   4  19
TORSDOF 4
ENDMDL
MODEL 2
REMARK VINA RESULT:      -7.8      1.011      1.244
REMARK  Name = 
REMARK  4 active torsions:
REMARK  status: ('A' for Active; 'I' for Inactive)
REMARK    1  A    between atoms: C_4  and  C_5
REMARK    2  A    between atoms: C_5  and  N_6
REMARK    3  A    between atoms: C_9  and  O_10
REMARK    4  A    between atoms: C_18  and  O_19
REMARK                            x       y       z     vdW  Elec       q    Type
REMARK                         _______ _______ _______ _____ _____    ______ ____
ROOT
ATOM      1  O   UNL     1       7.838   5.855  19.172  0.00  0.00    +0.000 OA
ATOM      2  C   UNL     1       6.802   5.490  18.632  0.00  0.00    +0.000 A 
ATOM      3  N   UNL     1       5.644   5.268  19.338  0.00  0.00    +0.000 N 
ATOM      4  C   UNL     1       4.407   5.019  18.751  0.00  0.00    +0.000 A 
ATOM      5  N   UNL     1       4.207   4.794  17.479  0.00  0.00    +0.000 NA
ATOM      6  C   UNL     1       5.384   4.888  16.714  0.00  0.00    +0.000 A 
ATOM      7  C   UNL     1       6.590   5.257  17.247  0.00  0.00    +0.000 A 
ATOM      8  O   UNL     1       7.546   5.338  16.294  0.00  0.00    +0.000 OA
ATOM      9  C   UNL     1       6.947   4.937  15.132  0.00  0.00    +0.000 A 
ATOM     10  C   UNL     1       7.598   4.838  13.904  0.00  0.00    +0.000 A 
ATOM     11  C   UNL     1       6.842   4.327  12.847  0.00  0.00    +0.000 A 
ATOM     12  C   UNL     1       5.499   3.963  13.020  0.00  0.00    +0.000 A 
ATOM     13 BR   UNL     1       4.502   3.202  11.592  0.00  0.00    +0.000 Br
ATOM     14  C   UNL     1       4.856   4.122  14.259  0.00  0.00    +0.000 A 
ATOM     15  C   UNL     1       5.603   4.615  15.345  0.00  0.00    +0.000 A 
ATOM     16  H   UNL     1       5.663   5.424  20.339  0.00  0.00    +0.000 HD
ENDROOT
BRANCH  11  17
ATOM     17  O   UNL     1       7.439   4.171  11.623  0.00  0.00    +0.000 OA
ATOM     18  H   UNL     1       7.476   5.028  11.168  0.00  0.00    +0.000 HD
ENDBRANCH  11  17
BRANCH   4  19
ATOM     19  C   UNL     1       3.248   5.019  19.757  0.00  0.00    +0.000 C 
BRANCH  19  20
ATOM     20  N   UNL     1       2.917   3.629  20.173  0.00  0.00    +0.000 NA
ATOM     21  C   UNL     1       1.659   3.147  19.556  0.00  0.00    +0.000 C 
ATOM     22  C   UNL     1       1.949   1.824  18.869  0.00  0.00    +0.000 C 
ATOM     23  C   UNL     1       3.441   1.850  18.623  0.00  0.00    +0.000 C 
ATOM     24  C   UNL     1       3.978   2.682  19.783  0.00  0.00    +0.000 C 
BRANCH  23  25
ATOM     25  O   UNL     1       3.980   0.539  18.595  0.00  0.00    +0.000 OA
ATOM     26  H   UNL     1       3.326  -0.069  18.987  0.00  0.00    +0.000 HD
ENDBRANCH  23  25
ENDBRANCH  19  20
ENDBRANCH   4  19
TORSDOF 4
ENDMDL
MODEL 3
REMARK VINA RESULT:      -7.7      1.009      1.256
REMARK  Name = 
REMARK  4 active torsions:
REMARK  status: ('A' for Active; 'I' for Inactive)
REMARK    1  A    between atoms: C_4  and  C_5
REMARK    2  A    between atoms: C_5  and  N_6
REMARK    3  A    between atoms: C_9  and  O_10
REMARK    4  A    between atoms: C_18  and  O_19
REMARK                            x       y       z     vdW  Elec       q    Type
REMARK                         _______ _______ _______ _____ _____    ______ ____
ROOT
ATOM      1  O   UNL     1       7.930   6.299  18.835  0.00  0.00    +0.000 OA
ATOM      2  C   UNL     1       6.901   5.865  18.334  0.00  0.00    +0.000 A 
ATOM      3  N   UNL     1       5.759   5.654  19.067  0.00  0.00    +0.000 N 
ATOM      4  C   UNL     1       4.526   5.326  18.513  0.00  0.00    +0.000 A 
ATOM      5  N   UNL     1       4.321   5.009  17.261  0.00  0.00    +0.000 NA
ATOM      6  C   UNL     1       5.486   5.089  16.477  0.00  0.00    +0.000 A 
ATOM      7  C   UNL     1       6.684   5.533  16.970  0.00  0.00    +0.000 A 
ATOM      8  O   UNL     1       7.628   5.580  16.002  0.00  0.00    +0.000 OA
ATOM      9  C   UNL     1       7.030   5.083  14.877  0.00  0.00    +0.000 A 
ATOM     10  C   UNL     1       7.672   4.922  13.651  0.00  0.00    +0.000 A 
ATOM     11  C   UNL     1       6.923   4.317  12.639  0.00  0.00    +0.000 A 
ATOM     12  C   UNL     1       5.595   3.921  12.853  0.00  0.00    +0.000 A 
ATOM     13 BR   UNL     1       4.610   3.034  11.491  0.00  0.00    +0.000 Br
ATOM     14  C   UNL     1       4.959   4.142  14.086  0.00  0.00    +0.000 A 
ATOM     15  C   UNL     1       5.700   4.731  15.127  0.00  0.00    +0.000 A 
ATOM     16  H   UNL     1       5.783   5.878  20.055  0.00  0.00    +0.000 HD
ENDROOT
BRANCH  11  17
ATOM     17  O   UNL     1       7.513   4.098  11.421  0.00  0.00    +0.000 OA
ATOM     18  H   UNL     1       7.218   3.244  11.066  0.00  0.00    +0.000 HD
ENDBRANCH  11  17
BRANCH   4  19
ATOM     19  C   UNL     1       3.377   5.355  19.530  0.00  0.00    +0.000 C 
BRANCH  19  20
ATOM     20  N   UNL     1       2.716   4.024  19.612  0.00  0.00    +0.000 NA
ATOM     21  C   UNL     1       3.648   2.966  20.066  0.00  0.00    +0.000 C 
ATOM     22  C   UNL     1       3.014   2.258  21.252  0.00  0.00    +0.000 C 
ATOM     23  C   UNL     1       2.022   3.261  21.798  0.00  0.00    +0.000 C 
ATOM     24  C   UNL     1       1.587   4.040  20.561  0.00  0.00    +0.000 C 
BRANCH  23  25
ATOM     25  O   UNL     1       0.939   2.612  22.444  0.00  0.00    +0.000 OA
ATOM     26  H   UNL     1       0.355   2.236  21.758  0.00  0.00    +0.000 HD
ENDBRANCH  23  25
ENDBRANCH  19  20
ENDBRANCH   4  19
TORSDOF 4
ENDMDL
MODEL 4
REMARK VINA RESULT:      -7.7      3.561      7.052
REMARK  Name = 
REMARK  4 active torsions:
REMARK  status: ('A' for Active; 'I' for Inactive)
REMARK    1  A    between atoms: C_4  and  C_5
REMARK    2  A    between atoms: C_5  and  N_6
REMARK    3  A    between atoms: C_9  and  O_10
REMARK    4  A    between atoms: C_18  and  O_19
REMARK                            x       y       z     vdW  Elec       q    Type
REMARK                         _______ _______ _______ _____ _____    ______ ____
ROOT
ATOM      1  O   UNL     1       4.941   2.832  20.024  0.00  0.00    +0.000 OA
ATOM      2  C   UNL     1       4.963   3.732  19.195  0.00  0.00    +0.000 A 
ATOM      3  N   UNL     1       5.854   3.747  18.150  0.00  0.00    +0.000 N 
ATOM      4  C   UNL     1       5.806   4.654  17.095  0.00  0.00    +0.000 A 
ATOM      5  N   UNL     1       5.029   5.703  17.038  0.00  0.00    +0.000 NA
ATOM      6  C   UNL     1       4.170   5.812  18.146  0.00  0.00    +0.000 A 
ATOM      7  C   UNL     1       4.108   4.865  19.134  0.00  0.00    +0.000 A 
ATOM      8  O   UNL     1       3.157   5.167  20.047  0.00  0.00    +0.000 OA
ATOM      9  C   UNL     1       2.650   6.380  19.668  0.00  0.00    +0.000 A 
ATOM     10  C   UNL     1       1.665   7.074  20.367  0.00  0.00    +0.000 A 
ATOM     11  C   UNL     1       1.336   8.338  19.873  0.00  0.00    +0.000 A 
ATOM     12  C   UNL     1       1.953   8.855  18.724  0.00  0.00    +0.000 A 
ATOM     13 BR   UNL     1       1.548  10.605  18.104  0.00  0.00    +0.000 Br
ATOM     14  C   UNL     1       2.907   8.109  18.012  0.00  0.00    +0.000 A 
ATOM     15  C   UNL     1       3.270   6.842  18.503  0.00  0.00    +0.000 A 
ATOM     16  H   UNL     1       6.505   2.975  18.073  0.00  0.00    +0.000 HD
ENDROOT
BRANCH  11  17
ATOM     17  O   UNL     1       0.400   9.085  20.540  0.00  0.00    +0.000 OA
ATOM     18  H   UNL     1       0.162   8.641  21.370  0.00  0.00    +0.000 HD
ENDBRANCH  11  17
BRANCH   4  19
ATOM     19  C   UNL     1       6.784   4.317  15.962  0.00  0.00    +0.000 C 
BRANCH  19  20
ATOM     20  N   UNL     1       6.316   4.902  14.675  0.00  0.00    +0.000 NA
ATOM     21  C   UNL     1       7.428   5.110  13.720  0.00  0.00    +0.000 C 
ATOM     22  C   UNL     1       7.059   4.430  12.413  0.00  0.00    +0.000 C 
ATOM     23  C   UNL     1       6.031   3.394  12.808  0.00  0.00    +0.000 C 
ATOM     24  C   UNL     1       5.335   4.025  14.010  0.00  0.00    +0.000 C 
BRANCH  23  25
ATOM     25  O   UNL     1       5.137   3.122  11.741  0.00  0.00    +0.000 OA
ATOM     26  H   UNL     1       4.882   3.971  11.333  0.00  0.00    +0.000 HD
ENDBRANCH  23  25
ENDBRANCH  19  20
ENDBRANCH   4  19
TORSDOF 4
ENDMDL
MODEL 5
REMARK VINA RESULT:      -7.6      1.652      1.920
REMARK  Name = 
REMARK  4 active torsions:
REMARK  status: ('A' for Active; 'I' for Inactive)
REMARK    1  A    between atoms: C_4  and  C_5
REMARK    2  A    between atoms: C_5  and  N_6
REMARK    3  A    between atoms: C_9  and  O_10
REMARK    4  A    between atoms: C_18  and  O_19
REMARK                            x       y       z     vdW  Elec       q    Type
REMARK                         _______ _______ _______ _____ _____    ______ ____
ROOT
ATOM      1  O   UNL     1       7.881   5.427  19.179  0.00  0.00    +0.000 OA
ATOM      2  C   UNL     1       6.927   4.901  18.622  0.00  0.00    +0.000 A 
ATOM      3  N   UNL     1       5.882   4.346  19.322  0.00  0.00    +0.000 N 
ATOM      4  C   UNL     1       4.705   3.892  18.735  0.00  0.00    +0.000 A 
ATOM      5  N   UNL     1       4.499   3.771  17.450  0.00  0.00    +0.000 NA
ATOM      6  C   UNL     1       5.588   4.212  16.677  0.00  0.00    +0.000 A 
ATOM      7  C   UNL     1       6.706   4.782  17.224  0.00  0.00    +0.000 A 
ATOM      8  O   UNL     1       7.574   5.182  16.267  0.00  0.00    +0.000 OA
ATOM      9  C   UNL     1       7.023   4.789  15.078  0.00  0.00    +0.000 A 
ATOM     10  C   UNL     1       7.620   4.976  13.834  0.00  0.00    +0.000 A 
ATOM     11  C   UNL     1       6.946   4.430  12.740  0.00  0.00    +0.000 A 
ATOM     12  C   UNL     1       5.728   3.755  12.898  0.00  0.00    +0.000 A 
ATOM     13 BR   UNL     1       4.856   2.954  11.411  0.00  0.00    +0.000 Br
ATOM     14  C   UNL     1       5.125   3.626  14.160  0.00  0.00    +0.000 A 
ATOM     15  C   UNL     1       5.795   4.150  15.280  0.00  0.00    +0.000 A 
ATOM     16  H   UNL     1       5.914   4.390  20.333  0.00  0.00    +0.000 HD
ENDROOT
BRANCH  11  17
ATOM     17  O   UNL     1       7.504   4.550  11.493  0.00  0.00    +0.000 OA
ATOM     18  H   UNL     1       7.600   3.669  11.094  0.00  0.00    +0.000 HD
ENDBRANCH  11  17
BRANCH   4  19
ATOM     19  C   UNL     1       3.624   3.518  19.759  0.00  0.00    +0.000 C 
BRANCH  19  20
ATOM     20  N   UNL     1       2.378   4.294  19.512  0.00  0.00    +0.000 NA
ATOM     21  C   UNL     1       1.698   4.674  20.772  0.00  0.00    +0.000 C 
ATOM     22  C   UNL     1       1.468   6.175  20.749  0.00  0.00    +0.000 C 
ATOM     23  C   UNL     1       2.495   6.694  19.768  0.00  0.00    +0.000 C 
ATOM     24  C   UNL     1       2.657   5.543  18.780  0.00  0.00    +0.000 C 
BRANCH  23  25
ATOM     25  O   UNL     1       2.052   7.890  19.146  0.00  0.00    +0.000 OA
ATOM     26  H   UNL     1       1.869   8.547  19.843  0.00  0.00    +0.000 HD
ENDBRANCH  23  25
ENDBRANCH  19  20
ENDBRANCH   4  19
TORSDOF 4
ENDMDL
MODEL 6
REMARK VINA RESULT:      -7.6      1.423      1.576
REMARK  Name = 
REMARK  4 active torsions:
REMARK  status: ('A' for Active; 'I' for Inactive)
REMARK    1  A    between atoms: C_4  and  C_5
REMARK    2  A    between atoms: C_5  and  N_6
REMARK    3  A    between atoms: C_9  and  O_10
REMARK    4  A    between atoms: C_18  and  O_19
REMARK                            x       y       z     vdW  Elec       q    Type
REMARK                         _______ _______ _______ _____ _____    ______ ____
ROOT
ATOM      1  O   UNL     1       8.021   6.100  18.669  0.00  0.00    +0.000 OA
ATOM      2  C   UNL     1       7.190   5.334  18.198  0.00  0.00    +0.000 A 
ATOM      3  N   UNL     1       6.332   4.606  18.986  0.00  0.00    +0.000 N 
ATOM      4  C   UNL     1       5.267   3.857  18.495  0.00  0.00    +0.000 A 
ATOM      5  N   UNL     1       5.040   3.605  17.232  0.00  0.00    +0.000 NA
ATOM      6  C   UNL     1       5.964   4.228  16.374  0.00  0.00    +0.000 A 
ATOM      7  C   UNL     1       6.943   5.073  16.824  0.00  0.00    +0.000 A 
ATOM      8  O   UNL     1       7.654   5.593  15.798  0.00  0.00    +0.000 OA
ATOM      9  C   UNL     1       7.159   5.005  14.667  0.00  0.00    +0.000 A 
ATOM     10  C   UNL     1       7.644   5.238  13.381  0.00  0.00    +0.000 A 
ATOM     11  C   UNL     1       7.068   4.479  12.360  0.00  0.00    +0.000 A 
ATOM     12  C   UNL     1       6.045   3.558  12.625  0.00  0.00    +0.000 A 
ATOM     13 BR   UNL     1       5.319   2.480  11.238  0.00  0.00    +0.000 Br
ATOM     14  C   UNL     1       5.542   3.381  13.926  0.00  0.00    +0.000 A 
ATOM     15  C   UNL     1       6.121   4.119  14.974  0.00  0.00    +0.000 A 
ATOM     16  H   UNL     1       6.396   4.725  19.990  0.00  0.00    +0.000 HD
ENDROOT
BRANCH  11  17
ATOM     17  O   UNL     1       7.530   4.637  11.079  0.00  0.00    +0.000 OA
ATOM     18  H   UNL     1       7.279   3.865  10.546  0.00  0.00    +0.000 HD
ENDBRANCH  11  17
BRANCH   4  19
ATOM     19  C   UNL     1       4.346   3.318  19.598  0.00  0.00    +0.000 C 
BRANCH  19  20
ATOM     20  N   UNL     1       2.932   3.699  19.332  0.00  0.00    +0.000 NA
ATOM     21  C   UNL     1       1.983   2.966  20.202  0.00  0.00    +0.000 C 
ATOM     22  C   UNL     1       1.097   3.985  20.896  0.00  0.00    +0.000 C 
ATOM     23  C   UNL     1       1.898   5.267  20.853  0.00  0.00    +0.000 C 
ATOM     24  C   UNL     1       2.708   5.137  19.567  0.00  0.00    +0.000 C 
BRANCH  23  25
ATOM     25  O   UNL     1       1.050   6.404  20.853  0.00  0.00    +0.000 OA
ATOM     26  H   UNL     1       0.804   6.601  19.929  0.00  0.00    +0.000 HD
ENDBRANCH  23  25
ENDBRANCH  19  20
ENDBRANCH   4  19
TORSDOF 4
ENDMDL
MODEL 7
REMARK VINA RESULT:      -7.5      4.277      6.094
REMARK  Name = 
REMARK  4 active torsions:
REMARK  status: ('A' for Active; 'I' for Inactive)
REMARK    1  A    between atoms: C_4  and  C_5
REMARK    2  A    between atoms: C_5  and  N_6
REMARK    3  A    between atoms: C_9  and  O_10
REMARK    4  A    between atoms: C_18  and  O_19
REMARK                            x       y       z     vdW  Elec       q    Type
REMARK                         _______ _______ _______ _____ _____    ______ ____
ROOT
ATOM      1  O   UNL     1       4.848   5.642  15.941  0.00  0.00    +0.000 OA
ATOM      2  C   UNL     1       4.372   5.567  17.066  0.00  0.00    +0.000 A 
ATOM      3  N   UNL     1       4.515   4.449  17.852  0.00  0.00    +0.000 N 
ATOM      4  C   UNL     1       4.140   4.383  19.190  0.00  0.00    +0.000 A 
ATOM      5  N   UNL     1       3.456   5.295  19.829  0.00  0.00    +0.000 NA
ATOM      6  C   UNL     1       3.170   6.422  19.036  0.00  0.00    +0.000 A 
ATOM      7  C   UNL     1       3.638   6.568  17.757  0.00  0.00    +0.000 A 
ATOM      8  O   UNL     1       3.283   7.765  17.237  0.00  0.00    +0.000 OA
ATOM      9  C   UNL     1       2.506   8.367  18.187  0.00  0.00    +0.000 A 
ATOM     10  C   UNL     1       1.899   9.612  18.035  0.00  0.00    +0.000 A 
ATOM     11  C   UNL     1       1.070  10.025  19.081  0.00  0.00    +0.000 A 
ATOM     12  C   UNL     1       0.889   9.232  20.222  0.00  0.00    +0.000 A 
ATOM     13 BR   UNL     1      -0.297   9.771  21.606  0.00  0.00    +0.000 Br
ATOM     14  C   UNL     1       1.554   8.003  20.369  0.00  0.00    +0.000 A 
ATOM     15  C   UNL     1       2.378   7.556  19.320  0.00  0.00    +0.000 A 
ATOM     16  H   UNL     1       5.043   3.671  17.475  0.00  0.00    +0.000 HD
ENDROOT
BRANCH  11  17
ATOM     17  O   UNL     1       0.417  11.224  18.971  0.00  0.00    +0.000 OA
ATOM     18  H   UNL     1       0.900  11.803  18.359  0.00  0.00    +0.000 HD
ENDBRANCH  11  17
BRANCH   4  19
ATOM     19  C   UNL     1       4.602   3.095  19.886  0.00  0.00    +0.000 C 
BRANCH  19  20
ATOM     20  N   UNL     1       3.440   2.214  20.182  0.00  0.00    +0.000 NA
ATOM     21  C   UNL     1       2.541   2.801  21.202  0.00  0.00    +0.000 C 
ATOM     22  C   UNL     1       1.132   2.816  20.635  0.00  0.00    +0.000 C 
ATOM     23  C   UNL     1       1.332   2.766  19.137  0.00  0.00    +0.000 C 
ATOM     24  C   UNL     1       2.625   1.973  18.977  0.00  0.00    +0.000 C 
BRANCH  23  25
ATOM     25  O   UNL     1       0.229   2.150  18.491  0.00  0.00    +0.000 OA
ATOM     26  H   UNL     1       0.557   1.369  18.006  0.00  0.00    +0.000 HD
ENDBRANCH  23  25
ENDBRANCH  19  20
ENDBRANCH   4  19
TORSDOF 4
ENDMDL
MODEL 8
REMARK VINA RESULT:      -7.5      0.990      1.246
REMARK  Name = 
REMARK  4 active torsions:
REMARK  status: ('A' for Active; 'I' for Inactive)
REMARK    1  A    between atoms: C_4  and  C_5
REMARK    2  A    between atoms: C_5  and  N_6
REMARK    3  A    between atoms: C_9  and  O_10
REMARK    4  A    between atoms: C_18  and  O_19
REMARK                            x       y       z     vdW  Elec       q    Type
REMARK                         _______ _______ _______ _____ _____    ______ ____
ROOT
ATOM      1  O   UNL     1       7.930   6.678  18.613  0.00  0.00    +0.000 OA
ATOM      2  C   UNL     1       7.183   5.797  18.209  0.00  0.00    +0.000 A 
ATOM      3  N   UNL     1       6.413   5.040  19.059  0.00  0.00    +0.000 N 
ATOM      4  C   UNL     1       5.430   4.150  18.638  0.00  0.00    +0.000 A 
ATOM      5  N   UNL     1       5.221   3.786  17.400  0.00  0.00    +0.000 NA
ATOM      6  C   UNL     1       6.067   4.441  16.486  0.00  0.00    +0.000 A 
ATOM      7  C   UNL     1       6.954   5.414  16.861  0.00  0.00    +0.000 A 
ATOM      8  O   UNL     1       7.597   5.933  15.789  0.00  0.00    +0.000 OA
ATOM      9  C   UNL     1       7.158   5.217  14.710  0.00  0.00    +0.000 A 
ATOM     10  C   UNL     1       7.605   5.408  13.405  0.00  0.00    +0.000 A 
ATOM     11  C   UNL     1       7.105   4.522  12.448  0.00  0.00    +0.000 A 
ATOM     12  C   UNL     1       6.188   3.519  12.792  0.00  0.00    +0.000 A 
ATOM     13 BR   UNL     1       5.571   2.274  11.495  0.00  0.00    +0.000 Br
ATOM     14  C   UNL     1       5.718   3.383  14.109  0.00  0.00    +0.000 A 
ATOM     15  C   UNL     1       6.223   4.251  15.095  0.00  0.00    +0.000 A 
ATOM     16  H   UNL     1       6.473   5.236  20.051  0.00  0.00    +0.000 HD
ENDROOT
BRANCH  11  17
ATOM     17  O   UNL     1       7.537   4.637  11.152  0.00  0.00    +0.000 OA
ATOM     18  H   UNL     1       8.049   3.848  10.909  0.00  0.00    +0.000 HD
ENDBRANCH  11  17
BRANCH   4  19
ATOM     19  C   UNL     1       4.580   3.596  19.790  0.00  0.00    +0.000 C 
BRANCH  19  20
ATOM     20  N   UNL     1       3.242   4.246  19.814  0.00  0.00    +0.000 NA
ATOM     21  C   UNL     1       2.853   4.769  18.483  0.00  0.00    +0.000 C 
ATOM     22  C   UNL     1       1.484   4.206  18.139  0.00  0.00    +0.000 C 
ATOM     23  C   UNL     1       1.368   2.962  18.991  0.00  0.00    +0.000 C 
ATOM     24  C   UNL     1       2.190   3.300  20.230  0.00  0.00    +0.000 C 
BRANCH  23  25
ATOM     25  O   UNL     1       0.013   2.673  19.297  0.00  0.00    +0.000 OA
ATOM     26  H   UNL     1      -0.036   1.760  19.636  0.00  0.00    +0.000 HD
ENDBRANCH  23  25
ENDBRANCH  19  20
ENDBRANCH   4  19
TORSDOF 4
ENDMDL
MODEL 9
REMARK VINA RESULT:      -7.4      3.664      7.217
REMARK  Name = 
REMARK  4 active torsions:
REMARK  status: ('A' for Active; 'I' for Inactive)
REMARK    1  A    between atoms: C_4  and  C_5
REMARK    2  A    between atoms: C_5  and  N_6
REMARK    3  A    between atoms: C_9  and  O_10
REMARK    4  A    between atoms: C_18  and  O_19
REMARK                            x       y       z     vdW  Elec       q    Type
REMARK                         _______ _______ _______ _____ _____    ______ ____
ROOT
ATOM      1  O   UNL     1       3.890   2.593  20.486  0.00  0.00    +0.000 OA
ATOM      2  C   UNL     1       3.985   3.509  19.679  0.00  0.00    +0.000 A 
ATOM      3  N   UNL     1       4.857   3.467  18.618  0.00  0.00    +0.000 N 
ATOM      4  C   UNL     1       4.878   4.402  17.588  0.00  0.00    +0.000 A 
ATOM      5  N   UNL     1       4.205   5.522  17.571  0.00  0.00    +0.000 NA
ATOM      6  C   UNL     1       3.378   5.682  18.698  0.00  0.00    +0.000 A 
ATOM      7  C   UNL     1       3.242   4.719  19.662  0.00  0.00    +0.000 A 
ATOM      8  O   UNL     1       2.339   5.087  20.600  0.00  0.00    +0.000 OA
ATOM      9  C   UNL     1       1.944   6.351  20.261  0.00  0.00    +0.000 A 
ATOM     10  C   UNL     1       1.042   7.117  20.995  0.00  0.00    +0.000 A 
ATOM     11  C   UNL     1       0.827   8.420  20.539  0.00  0.00    +0.000 A 
ATOM     12  C   UNL     1       1.472   8.906  19.392  0.00  0.00    +0.000 A 
ATOM     13 BR   UNL     1       1.227  10.702  18.823  0.00  0.00    +0.000 Br
ATOM     14  C   UNL     1       2.339   8.092  18.644  0.00  0.00    +0.000 A 
ATOM     15  C   UNL     1       2.587   6.783  19.096  0.00  0.00    +0.000 A 
ATOM     16  H   UNL     1       5.430   2.638  18.510  0.00  0.00    +0.000 HD
ENDROOT
BRANCH  11  17
ATOM     17  O   UNL     1      -0.023   9.234  21.241  0.00  0.00    +0.000 OA
ATOM     18  H   UNL     1      -0.939   8.945  21.101  0.00  0.00    +0.000 HD
ENDBRANCH  11  17
BRANCH   4  19
ATOM     19  C   UNL     1       5.802   4.004  16.428  0.00  0.00    +0.000 C 
BRANCH  19  20
ATOM     20  N   UNL     1       7.098   4.730  16.518  0.00  0.00    +0.000 NA
ATOM     21  C   UNL     1       6.955   6.168  16.193  0.00  0.00    +0.000 C 
ATOM     22  C   UNL     1       7.550   6.971  17.337  0.00  0.00    +0.000 C 
ATOM     23  C   UNL     1       7.509   6.025  18.517  0.00  0.00    +0.000 C 
ATOM     24  C   UNL     1       7.667   4.650  17.876  0.00  0.00    +0.000 C 
BRANCH  23  25
ATOM     25  O   UNL     1       8.541   6.317  19.445  0.00  0.00    +0.000 OA
ATOM     26  H   UNL     1       8.131   6.485  20.315  0.00  0.00    +0.000 HD
ENDBRANCH  23  25
ENDBRANCH  19  20
ENDBRANCH   4  19
TORSDOF 4
ENDMDL
