MODEL 1
REMARK VINA RESULT:      -7.2      0.000      0.000
REMARK  Name = 
REMARK  6 active torsions:
REMARK  status: ('A' for Active; 'I' for Inactive)
REMARK    1  A    between atoms: C_1  and  O_2
REMARK    2  A    between atoms: O_2  and  C_3
REMARK    3  A    between atoms: C_3  and  C_4
REMARK    4  A    between atoms: N_6  and  C_7
REMARK    5  A    between atoms: C_10  and  N_11
REMARK    6  A    between atoms: N_14  and  C_15
REMARK                            x       y       z     vdW  Elec       q    Type
REMARK                         _______ _______ _______ _____ _____    ______ ____
ROOT
ATOM      1  C   UNL     1       3.962   6.035  18.093  0.00  0.00    +0.000 A 
ATOM      2  C   UNL     1       3.623   7.262  17.528  0.00  0.00    +0.000 A 
ATOM      3  C   UNL     1       2.675   8.092  18.126  0.00  0.00    +0.000 A 
ATOM      4  C   UNL     1       2.021   7.732  19.313  0.00  0.00    +0.000 A 
ATOM      5  C   UNL     1       2.330   6.455  19.817  0.00  0.00    +0.000 A 
ATOM      6  F   UNL     1       1.784   6.028  20.969  0.00  0.00    +0.000 F 
ATOM      7  C   UNL     1       3.263   5.605  19.217  0.00  0.00    +0.000 A 
ENDROOT
BRANCH   4   8
ATOM      8  N   UNL     1       1.131   8.610  19.896  0.00  0.00    +0.000 N 
ATOM      9  C   UNL     1       0.640   8.443  21.273  0.00  0.00    +0.000 C 
ATOM     10  C   UNL     1       1.002   9.668  22.130  0.00  0.00    +0.000 C 
ATOM     11  N   UNL     1       0.542  10.912  21.484  0.00  0.00    +0.000 N 
ATOM     12  C   UNL     1       1.003  11.101  20.097  0.00  0.00    +0.000 C 
ATOM     13  C   UNL     1       0.694   9.854  19.230  0.00  0.00    +0.000 C 
BRANCH  11  14
ATOM     14  C   UNL     1      -0.370  11.758  22.077  0.00  0.00    +0.000 A 
ATOM     15  C   UNL     1      -1.454  11.263  22.818  0.00  0.00    +0.000 A 
ATOM     16  C   UNL     1      -2.404  12.115  23.390  0.00  0.00    +0.000 A 
ATOM     17  C   UNL     1      -2.288  13.492  23.238  0.00  0.00    +0.000 A 
ATOM     18  C   UNL     1      -1.220  14.013  22.517  0.00  0.00    +0.000 A 
ATOM     19  C   UNL     1      -0.276  13.154  21.949  0.00  0.00    +0.000 A 
ENDBRANCH  11  14
ENDBRANCH   4   8
BRANCH   1  22
ATOM     20  C   UNL     1       6.321   5.623  17.473  0.00  0.00    +0.000 C 
ATOM     21  O   UNL     1       6.807   6.685  17.865  0.00  0.00    +0.000 OA
ATOM     22  N   UNL     1       4.997   5.231  17.577  0.00  0.00    +0.000 N 
ATOM     23  H   UNL     1       4.785   4.260  17.377  0.00  0.00    +0.000 HD
BRANCH  20  24
ATOM     24  C   UNL     1       7.217   4.589  16.803  0.00  0.00    +0.000 C 
BRANCH  24  26
ATOM     25  C   UNL     1       6.600   4.410  14.533  0.00  0.00    +0.000 C 
ATOM     26  O   UNL     1       7.557   4.916  15.461  0.00  0.00    +0.000 OA
ENDBRANCH  24  26
ENDBRANCH  20  24
ENDBRANCH   1  22
TORSDOF 5
ENDMDL
MODEL 2
REMARK VINA RESULT:      -7.0      2.022      2.500
REMARK  Name = 
REMARK  6 active torsions:
REMARK  status: ('A' for Active; 'I' for Inactive)
REMARK    1  A    between atoms: C_1  and  O_2
REMARK    2  A    between atoms: O_2  and  C_3
REMARK    3  A    between atoms: C_3  and  C_4
REMARK    4  A    between atoms: N_6  and  C_7
REMARK    5  A    between atoms: C_10  and  N_11
REMARK    6  A    between atoms: N_14  and  C_15
REMARK                            x       y       z     vdW  Elec       q    Type
REMARK                         _______ _______ _______ _____ _____    ______ ____
ROOT
ATOM      1  C   UNL     1       2.851   7.028  18.624  0.00  0.00    +0.000 A 
ATOM      2  C   UNL     1       2.488   6.893  19.962  0.00  0.00    +0.000 A 
ATOM      3  C   UNL     1       1.607   7.793  20.563  0.00  0.00    +0.000 A 
ATOM      4  C   UNL     1       1.053   8.869  19.856  0.00  0.00    +0.000 A 
ATOM      5  C   UNL     1       1.497   9.022  18.529  0.00  0.00    +0.000 A 
ATOM      6  F   UNL     1       1.001  10.001  17.753  0.00  0.00    +0.000 F 
ATOM      7  C   UNL     1       2.394   8.139  17.920  0.00  0.00    +0.000 A 
ENDROOT
BRANCH   4   8
ATOM      8  N   UNL     1       0.145   9.700  20.478  0.00  0.00    +0.000 N 
ATOM      9  C   UNL     1      -0.620   9.290  21.666  0.00  0.00    +0.000 C 
ATOM     10  C   UNL     1      -0.330  10.231  22.848  0.00  0.00    +0.000 C 
ATOM     11  N   UNL     1      -0.544  11.638  22.462  0.00  0.00    +0.000 N 
ATOM     12  C   UNL     1       0.195  12.075  21.264  0.00  0.00    +0.000 C 
ATOM     13  C   UNL     1      -0.044  11.109  20.076  0.00  0.00    +0.000 C 
BRANCH  11  14
ATOM     14  C   UNL     1      -1.479  12.440  23.081  0.00  0.00    +0.000 A 
ATOM     15  C   UNL     1      -2.764  11.966  23.384  0.00  0.00    +0.000 A 
ATOM     16  C   UNL     1      -3.729  12.786  23.978  0.00  0.00    +0.000 A 
ATOM     17  C   UNL     1      -3.427  14.106  24.290  0.00  0.00    +0.000 A 
ATOM     18  C   UNL     1      -2.158  14.602  24.011  0.00  0.00    +0.000 A 
ATOM     19  C   UNL     1      -1.202  13.775  23.417  0.00  0.00    +0.000 A 
ENDBRANCH  11  14
ENDBRANCH   4   8
BRANCH   1  22
ATOM     20  C   UNL     1       3.190   4.835  17.532  0.00  0.00    +0.000 C 
ATOM     21  O   UNL     1       2.036   4.410  17.602  0.00  0.00    +0.000 OA
ATOM     22  N   UNL     1       3.643   6.072  17.960  0.00  0.00    +0.000 N 
ATOM     23  H   UNL     1       4.574   6.349  17.671  0.00  0.00    +0.000 HD
BRANCH  20  24
ATOM     24  C   UNL     1       4.276   3.962  16.916  0.00  0.00    +0.000 C 
BRANCH  24  26
ATOM     25  C   UNL     1       6.382   4.137  15.867  0.00  0.00    +0.000 C 
ATOM     26  O   UNL     1       5.043   4.627  15.921  0.00  0.00    +0.000 OA
ENDBRANCH  24  26
ENDBRANCH  20  24
ENDBRANCH   1  22
TORSDOF 5
ENDMDL
MODEL 3
REMARK VINA RESULT:      -7.0      1.338      1.918
REMARK  Name = 
REMARK  6 active torsions:
REMARK  status: ('A' for Active; 'I' for Inactive)
REMARK    1  A    between atoms: C_1  and  O_2
REMARK    2  A    between atoms: O_2  and  C_3
REMARK    3  A    between atoms: C_3  and  C_4
REMARK    4  A    between atoms: N_6  and  C_7
REMARK    5  A    between atoms: C_10  and  N_11
REMARK    6  A    between atoms: N_14  and  C_15
REMARK                            x       y       z     vdW  Elec       q    Type
REMARK                         _______ _______ _______ _____ _____    ______ ____
ROOT
ATOM      1  C   UNL     1       3.251   6.547  18.354  0.00  0.00    +0.000 A 
ATOM      2  C   UNL     1       2.773   6.411  19.654  0.00  0.00    +0.000 A 
ATOM      3  C   UNL     1       1.919   7.364  20.210  0.00  0.00    +0.000 A 
ATOM      4  C   UNL     1       1.510   8.497  19.494  0.00  0.00    +0.000 A 
ATOM      5  C   UNL     1       2.070   8.645  18.211  0.00  0.00    +0.000 A 
ATOM      6  F   UNL     1       1.717   9.678  17.428  0.00  0.00    +0.000 F 
ATOM      7  C   UNL     1       2.942   7.707  17.650  0.00  0.00    +0.000 A 
ENDROOT
BRANCH   4   8
ATOM      8  N   UNL     1       0.623   9.385  20.067  0.00  0.00    +0.000 N 
ATOM      9  C   UNL     1      -0.266   9.010  21.178  0.00  0.00    +0.000 C 
ATOM     10  C   UNL     1      -0.000   9.896  22.407  0.00  0.00    +0.000 C 
ATOM     11  N   UNL     1      -0.071  11.325  22.048  0.00  0.00    +0.000 N 
ATOM     12  C   UNL     1       0.796  11.728  20.926  0.00  0.00    +0.000 C 
ATOM     13  C   UNL     1       0.579  10.813  19.694  0.00  0.00    +0.000 C 
BRANCH  11  14
ATOM     14  C   UNL     1      -0.986  12.185  22.615  0.00  0.00    +0.000 A 
ATOM     15  C   UNL     1      -0.697  13.545  22.797  0.00  0.00    +0.000 A 
ATOM     16  C   UNL     1      -1.607  14.415  23.406  0.00  0.00    +0.000 A 
ATOM     17  C   UNL     1      -2.838  13.943  23.844  0.00  0.00    +0.000 A 
ATOM     18  C   UNL     1      -3.158  12.601  23.668  0.00  0.00    +0.000 A 
ATOM     19  C   UNL     1      -2.242  11.740  23.060  0.00  0.00    +0.000 A 
ENDBRANCH  11  14
ENDBRANCH   4   8
BRANCH   1  22
ATOM     20  C   UNL     1       5.375   5.639  17.467  0.00  0.00    +0.000 C 
ATOM     21  O   UNL     1       6.124   6.562  17.792  0.00  0.00    +0.000 OA
ATOM     22  N   UNL     1       4.017   5.545  17.727  0.00  0.00    +0.000 N 
ATOM     23  H   UNL     1       3.576   4.649  17.559  0.00  0.00    +0.000 HD
BRANCH  20  24
ATOM     24  C   UNL     1       5.938   4.447  16.704  0.00  0.00    +0.000 C 
BRANCH  24  26
ATOM     25  C   UNL     1       6.739   4.542  14.488  0.00  0.00    +0.000 C 
ATOM     26  O   UNL     1       7.035   4.778  15.863  0.00  0.00    +0.000 OA
ENDBRANCH  24  26
ENDBRANCH  20  24
ENDBRANCH   1  22
TORSDOF 5
ENDMDL
MODEL 4
REMARK VINA RESULT:      -6.9      0.381      1.031
REMARK  Name = 
REMARK  6 active torsions:
REMARK  status: ('A' for Active; 'I' for Inactive)
REMARK    1  A    between atoms: C_1  and  O_2
REMARK    2  A    between atoms: O_2  and  C_3
REMARK    3  A    between atoms: C_3  and  C_4
REMARK    4  A    between atoms: N_6  and  C_7
REMARK    5  A    between atoms: C_10  and  N_11
REMARK    6  A    between atoms: N_14  and  C_15
REMARK                            x       y       z     vdW  Elec       q    Type
REMARK                         _______ _______ _______ _____ _____    ______ ____
ROOT
ATOM      1  C   UNL     1       3.932   6.138  17.952  0.00  0.00    +0.000 A 
ATOM      2  C   UNL     1       3.587   7.376  17.416  0.00  0.00    +0.000 A 
ATOM      3  C   UNL     1       2.648   8.195  18.044  0.00  0.00    +0.000 A 
ATOM      4  C   UNL     1       2.009   7.812  19.231  0.00  0.00    +0.000 A 
ATOM      5  C   UNL     1       2.322   6.524  19.706  0.00  0.00    +0.000 A 
ATOM      6  F   UNL     1       1.790   6.074  20.855  0.00  0.00    +0.000 F 
ATOM      7  C   UNL     1       3.247   5.685  19.076  0.00  0.00    +0.000 A 
ENDROOT
BRANCH   4   8
ATOM      8  N   UNL     1       1.127   8.678  19.843  0.00  0.00    +0.000 N 
ATOM      9  C   UNL     1       0.742   8.548  21.257  0.00  0.00    +0.000 C 
ATOM     10  C   UNL     1       1.113   9.821  22.039  0.00  0.00    +0.000 C 
ATOM     11  N   UNL     1       0.559  11.019  21.381  0.00  0.00    +0.000 N 
ATOM     12  C   UNL     1       0.912  11.168  19.958  0.00  0.00    +0.000 C 
ATOM     13  C   UNL     1       0.593   9.876  19.164  0.00  0.00    +0.000 C 
BRANCH  11  14
ATOM     14  C   UNL     1      -0.343  11.853  22.006  0.00  0.00    +0.000 A 
ATOM     15  C   UNL     1      -0.192  13.248  21.975  0.00  0.00    +0.000 A 
ATOM     16  C   UNL     1      -1.082  14.098  22.639  0.00  0.00    +0.000 A 
ATOM     17  C   UNL     1      -2.155  13.570  23.347  0.00  0.00    +0.000 A 
ATOM     18  C   UNL     1      -2.337  12.193  23.387  0.00  0.00    +0.000 A 
ATOM     19  C   UNL     1      -1.442  11.351  22.722  0.00  0.00    +0.000 A 
ENDBRANCH  11  14
ENDBRANCH   4   8
BRANCH   1  22
ATOM     20  C   UNL     1       6.258   5.774  17.192  0.00  0.00    +0.000 C 
ATOM     21  O   UNL     1       6.728   6.871  17.496  0.00  0.00    +0.000 OA
ATOM     22  N   UNL     1       4.959   5.343  17.407  0.00  0.00    +0.000 N 
ATOM     23  H   UNL     1       4.771   4.356  17.271  0.00  0.00    +0.000 HD
BRANCH  20  24
ATOM     24  C   UNL     1       7.145   4.738  16.514  0.00  0.00    +0.000 C 
BRANCH  24  26
ATOM     25  C   UNL     1       6.460   4.106  14.347  0.00  0.00    +0.000 C 
ATOM     26  O   UNL     1       6.422   3.791  15.738  0.00  0.00    +0.000 OA
ENDBRANCH  24  26
ENDBRANCH  20  24
ENDBRANCH   1  22
TORSDOF 5
ENDMDL
MODEL 5
REMARK VINA RESULT:      -6.9      1.493      1.814
REMARK  Name = 
REMARK  6 active torsions:
REMARK  status: ('A' for Active; 'I' for Inactive)
REMARK    1  A    between atoms: C_1  and  O_2
REMARK    2  A    between atoms: O_2  and  C_3
REMARK    3  A    between atoms: C_3  and  C_4
REMARK    4  A    between atoms: N_6  and  C_7
REMARK    5  A    between atoms: C_10  and  N_11
REMARK    6  A    between atoms: N_14  and  C_15
REMARK                            x       y       z     vdW  Elec       q    Type
REMARK                         _______ _______ _______ _____ _____    ______ ____
ROOT
ATOM      1  C   UNL     1       3.190   6.661  18.290  0.00  0.00    +0.000 A 
ATOM      2  C   UNL     1       2.709   6.478  19.584  0.00  0.00    +0.000 A 
ATOM      3  C   UNL     1       1.857   7.412  20.173  0.00  0.00    +0.000 A 
ATOM      4  C   UNL     1       1.452   8.572  19.498  0.00  0.00    +0.000 A 
ATOM      5  C   UNL     1       2.014   8.765  18.223  0.00  0.00    +0.000 A 
ATOM      6  F   UNL     1       1.664   9.827  17.477  0.00  0.00    +0.000 F 
ATOM      7  C   UNL     1       2.884   7.846  17.628  0.00  0.00    +0.000 A 
ENDROOT
BRANCH   4   8
ATOM      8  N   UNL     1       0.565   9.440  20.102  0.00  0.00    +0.000 N 
ATOM      9  C   UNL     1      -0.271   9.049  21.247  0.00  0.00    +0.000 C 
ATOM     10  C   UNL     1       0.020   9.946  22.463  0.00  0.00    +0.000 C 
ATOM     11  N   UNL     1      -0.099  11.370  22.102  0.00  0.00    +0.000 N 
ATOM     12  C   UNL     1       0.715  11.790  20.947  0.00  0.00    +0.000 C 
ATOM     13  C   UNL     1       0.473  10.865  19.727  0.00  0.00    +0.000 C 
BRANCH  11  14
ATOM     14  C   UNL     1      -1.012  12.210  22.701  0.00  0.00    +0.000 A 
ATOM     15  C   UNL     1      -2.261  11.742  23.136  0.00  0.00    +0.000 A 
ATOM     16  C   UNL     1      -3.208  12.597  23.710  0.00  0.00    +0.000 A 
ATOM     17  C   UNL     1      -2.922  13.948  23.869  0.00  0.00    +0.000 A 
ATOM     18  C   UNL     1      -1.689  14.440  23.457  0.00  0.00    +0.000 A 
ATOM     19  C   UNL     1      -0.751  13.578  22.884  0.00  0.00    +0.000 A 
ENDBRANCH  11  14
ENDBRANCH   4   8
BRANCH   1  22
ATOM     20  C   UNL     1       5.276   5.385  17.917  0.00  0.00    +0.000 C 
ATOM     21  O   UNL     1       5.959   5.873  18.820  0.00  0.00    +0.000 OA
ATOM     22  N   UNL     1       3.954   5.681  17.627  0.00  0.00    +0.000 N 
ATOM     23  H   UNL     1       3.476   5.069  16.976  0.00  0.00    +0.000 HD
BRANCH  20  24
ATOM     24  C   UNL     1       5.889   4.340  16.994  0.00  0.00    +0.000 C 
BRANCH  24  26
ATOM     25  C   UNL     1       6.088   4.170  14.649  0.00  0.00    +0.000 C 
ATOM     26  O   UNL     1       5.195   4.194  15.761  0.00  0.00    +0.000 OA
ENDBRANCH  24  26
ENDBRANCH  20  24
ENDBRANCH   1  22
TORSDOF 5
ENDMDL
MODEL 6
REMARK VINA RESULT:      -6.9      1.425      1.823
REMARK  Name = 
REMARK  6 active torsions:
REMARK  status: ('A' for Active; 'I' for Inactive)
REMARK    1  A    between atoms: C_1  and  O_2
REMARK    2  A    between atoms: O_2  and  C_3
REMARK    3  A    between atoms: C_3  and  C_4
REMARK    4  A    between atoms: N_6  and  C_7
REMARK    5  A    between atoms: C_10  and  N_11
REMARK    6  A    between atoms: N_14  and  C_15
REMARK                            x       y       z     vdW  Elec       q    Type
REMARK                         _______ _______ _______ _____ _____    ______ ____
ROOT
ATOM      1  C   UNL     1       3.279   7.044  18.209  0.00  0.00    +0.000 A 
ATOM      2  C   UNL     1       2.757   8.175  17.588  0.00  0.00    +0.000 A 
ATOM      3  C   UNL     1       1.806   8.972  18.227  0.00  0.00    +0.000 A 
ATOM      4  C   UNL     1       1.332   8.671  19.511  0.00  0.00    +0.000 A 
ATOM      5  C   UNL     1       1.823   7.482  20.081  0.00  0.00    +0.000 A 
ATOM      6  F   UNL     1       1.459   7.120  21.323  0.00  0.00    +0.000 F 
ATOM      7  C   UNL     1       2.761   6.664  19.444  0.00  0.00    +0.000 A 
ENDROOT
BRANCH   4   8
ATOM      8  N   UNL     1       0.432   9.519  20.124  0.00  0.00    +0.000 N 
ATOM      9  C   UNL     1      -0.336   9.130  21.317  0.00  0.00    +0.000 C 
ATOM     10  C   UNL     1      -0.036  10.082  22.488  0.00  0.00    +0.000 C 
ATOM     11  N   UNL     1      -0.238  11.486  22.086  0.00  0.00    +0.000 N 
ATOM     12  C   UNL     1       0.506  11.902  20.883  0.00  0.00    +0.000 C 
ATOM     13  C   UNL     1       0.256  10.924  19.706  0.00  0.00    +0.000 C 
BRANCH  11  14
ATOM     14  C   UNL     1      -1.164  12.304  22.696  0.00  0.00    +0.000 A 
ATOM     15  C   UNL     1      -0.874  13.644  22.993  0.00  0.00    +0.000 A 
ATOM     16  C   UNL     1      -1.796  14.468  23.645  0.00  0.00    +0.000 A 
ATOM     17  C   UNL     1      -3.040  13.970  24.014  0.00  0.00    +0.000 A 
ATOM     18  C   UNL     1      -3.360  12.648  23.724  0.00  0.00    +0.000 A 
ATOM     19  C   UNL     1      -2.432  11.833  23.073  0.00  0.00    +0.000 A 
ENDBRANCH  11  14
ENDBRANCH   4   8
BRANCH   1  22
ATOM     20  C   UNL     1       4.215   4.962  17.256  0.00  0.00    +0.000 C 
ATOM     21  O   UNL     1       3.199   4.266  17.292  0.00  0.00    +0.000 OA
ATOM     22  N   UNL     1       4.322   6.289  17.639  0.00  0.00    +0.000 N 
ATOM     23  H   UNL     1       5.173   6.777  17.382  0.00  0.00    +0.000 HD
BRANCH  20  24
ATOM     24  C   UNL     1       5.519   4.363  16.744  0.00  0.00    +0.000 C 
BRANCH  24  26
ATOM     25  C   UNL     1       6.536   4.497  14.620  0.00  0.00    +0.000 C 
ATOM     26  O   UNL     1       5.461   3.954  15.384  0.00  0.00    +0.000 OA
ENDBRANCH  24  26
ENDBRANCH  20  24
ENDBRANCH   1  22
TORSDOF 5
ENDMDL
MODEL 7
REMARK VINA RESULT:      -6.9      3.036      3.835
REMARK  Name = 
REMARK  6 active torsions:
REMARK  status: ('A' for Active; 'I' for Inactive)
REMARK    1  A    between atoms: C_1  and  O_2
REMARK    2  A    between atoms: O_2  and  C_3
REMARK    3  A    between atoms: C_3  and  C_4
REMARK    4  A    between atoms: N_6  and  C_7
REMARK    5  A    between atoms: C_10  and  N_11
REMARK    6  A    between atoms: N_14  and  C_15
REMARK                            x       y       z     vdW  Elec       q    Type
REMARK                         _______ _______ _______ _____ _____    ______ ____
ROOT
ATOM      1  C   UNL     1       2.437   7.301  18.876  0.00  0.00    +0.000 A 
ATOM      2  C   UNL     1       2.243   8.262  17.887  0.00  0.00    +0.000 A 
ATOM      3  C   UNL     1       1.591   9.463  18.170  0.00  0.00    +0.000 A 
ATOM      4  C   UNL     1       1.102   9.755  19.451  0.00  0.00    +0.000 A 
ATOM      5  C   UNL     1       1.247   8.733  20.408  0.00  0.00    +0.000 A 
ATOM      6  F   UNL     1       0.843   8.924  21.675  0.00  0.00    +0.000 F 
ATOM      7  C   UNL     1       1.880   7.517  20.132  0.00  0.00    +0.000 A 
ENDROOT
BRANCH   4   8
ATOM      8  N   UNL     1       0.512  10.978  19.695  0.00  0.00    +0.000 N 
ATOM      9  C   UNL     1       1.179  12.038  20.468  0.00  0.00    +0.000 C 
ATOM     10  C   UNL     1       1.338  13.310  19.618  0.00  0.00    +0.000 C 
ATOM     11  N   UNL     1       0.044  13.721  19.043  0.00  0.00    +0.000 N 
ATOM     12  C   UNL     1      -0.657  12.675  18.277  0.00  0.00    +0.000 C 
ATOM     13  C   UNL     1      -0.781  11.367  19.099  0.00  0.00    +0.000 C 
BRANCH  11  14
ATOM     14  C   UNL     1      -0.538  14.938  19.326  0.00  0.00    +0.000 A 
ATOM     15  C   UNL     1      -1.434  15.090  20.394  0.00  0.00    +0.000 A 
ATOM     16  C   UNL     1      -2.056  16.313  20.663  0.00  0.00    +0.000 A 
ATOM     17  C   UNL     1      -1.789  17.422  19.868  0.00  0.00    +0.000 A 
ATOM     18  C   UNL     1      -0.897  17.305  18.808  0.00  0.00    +0.000 A 
ATOM     19  C   UNL     1      -0.282  16.078  18.547  0.00  0.00    +0.000 A 
ENDBRANCH  11  14
ENDBRANCH   4   8
BRANCH   1  22
ATOM     20  C   UNL     1       2.693   4.970  18.088  0.00  0.00    +0.000 C 
ATOM     21  O   UNL     1       1.555   4.795  17.648  0.00  0.00    +0.000 OA
ATOM     22  N   UNL     1       3.192   6.134  18.650  0.00  0.00    +0.000 N 
ATOM     23  H   UNL     1       4.194   6.183  18.797  0.00  0.00    +0.000 HD
BRANCH  20  24
ATOM     24  C   UNL     1       3.703   3.831  18.033  0.00  0.00    +0.000 C 
BRANCH  24  26
ATOM     25  C   UNL     1       3.584   1.511  18.443  0.00  0.00    +0.000 C 
ATOM     26  O   UNL     1       3.141   2.591  17.624  0.00  0.00    +0.000 OA
ENDBRANCH  24  26
ENDBRANCH  20  24
ENDBRANCH   1  22
TORSDOF 5
ENDMDL
MODEL 8
REMARK VINA RESULT:      -6.8      3.046      3.965
REMARK  Name = 
REMARK  6 active torsions:
REMARK  status: ('A' for Active; 'I' for Inactive)
REMARK    1  A    between atoms: C_1  and  O_2
REMARK    2  A    between atoms: O_2  and  C_3
REMARK    3  A    between atoms: C_3  and  C_4
REMARK    4  A    between atoms: N_6  and  C_7
REMARK    5  A    between atoms: C_10  and  N_11
REMARK    6  A    between atoms: N_14  and  C_15
REMARK                            x       y       z     vdW  Elec       q    Type
REMARK                         _______ _______ _______ _____ _____    ______ ____
ROOT
ATOM      1  C   UNL     1       2.348   6.989  19.632  0.00  0.00    +0.000 A 
ATOM      2  C   UNL     1       2.436   7.638  18.403  0.00  0.00    +0.000 A 
ATOM      3  C   UNL     1       1.895   8.912  18.222  0.00  0.00    +0.000 A 
ATOM      4  C   UNL     1       1.237   9.589  19.259  0.00  0.00    +0.000 A 
ATOM      5  C   UNL     1       1.099   8.876  20.464  0.00  0.00    +0.000 A 
ATOM      6  F   UNL     1       0.516   9.448  21.531  0.00  0.00    +0.000 F 
ATOM      7  C   UNL     1       1.620   7.592  20.652  0.00  0.00    +0.000 A 
ENDROOT
BRANCH   4   8
ATOM      8  N   UNL     1       0.765  10.868  19.048  0.00  0.00    +0.000 N 
ATOM      9  C   UNL     1      -0.664  11.208  19.127  0.00  0.00    +0.000 C 
ATOM     10  C   UNL     1      -0.907  12.277  20.207  0.00  0.00    +0.000 C 
ATOM     11  N   UNL     1      -0.032  13.444  19.995  0.00  0.00    +0.000 N 
ATOM     12  C   UNL     1       1.406  13.134  19.894  0.00  0.00    +0.000 C 
ATOM     13  C   UNL     1       1.665  12.021  18.846  0.00  0.00    +0.000 C 
BRANCH  11  14
ATOM     14  C   UNL     1      -0.529  14.707  19.758  0.00  0.00    +0.000 A 
ATOM     15  C   UNL     1      -1.565  15.244  20.537  0.00  0.00    +0.000 A 
ATOM     16  C   UNL     1      -2.100  16.510  20.278  0.00  0.00    +0.000 A 
ATOM     17  C   UNL     1      -1.603  17.276  19.230  0.00  0.00    +0.000 A 
ATOM     18  C   UNL     1      -0.570  16.776  18.447  0.00  0.00    +0.000 A 
ATOM     19  C   UNL     1      -0.043  15.510  18.713  0.00  0.00    +0.000 A 
ENDBRANCH  11  14
ENDBRANCH   4   8
BRANCH   1  22
ATOM     20  C   UNL     1       2.387   4.517  19.726  0.00  0.00    +0.000 C 
ATOM     21  O   UNL     1       1.251   4.295  19.302  0.00  0.00    +0.000 OA
ATOM     22  N   UNL     1       2.986   5.757  19.877  0.00  0.00    +0.000 N 
ATOM     23  H   UNL     1       3.982   5.769  20.062  0.00  0.00    +0.000 HD
BRANCH  20  24
ATOM     24  C   UNL     1       3.276   3.351  20.138  0.00  0.00    +0.000 C 
BRANCH  24  26
ATOM     25  C   UNL     1       3.475   1.694  18.471  0.00  0.00    +0.000 C 
ATOM     26  O   UNL     1       4.071   2.840  19.076  0.00  0.00    +0.000 OA
ENDBRANCH  24  26
ENDBRANCH  20  24
ENDBRANCH   1  22
TORSDOF 5
ENDMDL
MODEL 9
REMARK VINA RESULT:      -6.8      1.960      2.655
REMARK  Name = 
REMARK  6 active torsions:
REMARK  status: ('A' for Active; 'I' for Inactive)
REMARK    1  A    between atoms: C_1  and  O_2
REMARK    2  A    between atoms: O_2  and  C_3
REMARK    3  A    between atoms: C_3  and  C_4
REMARK    4  A    between atoms: N_6  and  C_7
REMARK    5  A    between atoms: C_10  and  N_11
REMARK    6  A    between atoms: N_14  and  C_15
REMARK                            x       y       z     vdW  Elec       q    Type
REMARK                         _______ _______ _______ _____ _____    ______ ____
ROOT
ATOM      1  C   UNL     1       2.905   7.113  18.453  0.00  0.00    +0.000 A 
ATOM      2  C   UNL     1       2.536   6.947  19.785  0.00  0.00    +0.000 A 
ATOM      3  C   UNL     1       1.648   7.830  20.402  0.00  0.00    +0.000 A 
ATOM      4  C   UNL     1       1.095   8.920  19.716  0.00  0.00    +0.000 A 
ATOM      5  C   UNL     1       1.546   9.104  18.395  0.00  0.00    +0.000 A 
ATOM      6  F   UNL     1       1.050  10.099  17.639  0.00  0.00    +0.000 F 
ATOM      7  C   UNL     1       2.449   8.238  17.772  0.00  0.00    +0.000 A 
ENDROOT
BRANCH   4   8
ATOM      8  N   UNL     1       0.180   9.734  20.351  0.00  0.00    +0.000 N 
ATOM      9  C   UNL     1      -0.612   9.285  21.507  0.00  0.00    +0.000 C 
ATOM     10  C   UNL     1      -0.339  10.177  22.731  0.00  0.00    +0.000 C 
ATOM     11  N   UNL     1      -0.535  11.599  22.395  0.00  0.00    +0.000 N 
ATOM     12  C   UNL     1       0.233  12.076  21.230  0.00  0.00    +0.000 C 
ATOM     13  C   UNL     1       0.010  11.158  20.001  0.00  0.00    +0.000 C 
BRANCH  11  14
ATOM     14  C   UNL     1      -1.476  12.384  23.026  0.00  0.00    +0.000 A 
ATOM     15  C   UNL     1      -1.187  13.700  23.418  0.00  0.00    +0.000 A 
ATOM     16  C   UNL     1      -2.125  14.488  24.092  0.00  0.00    +0.000 A 
ATOM     17  C   UNL     1      -3.384  13.978  24.386  0.00  0.00    +0.000 A 
ATOM     18  C   UNL     1      -3.703  12.681  24.001  0.00  0.00    +0.000 A 
ATOM     19  C   UNL     1      -2.759  11.901  23.329  0.00  0.00    +0.000 A 
ENDBRANCH  11  14
ENDBRANCH   4   8
BRANCH   1  22
ATOM     20  C   UNL     1       3.451   4.813  17.724  0.00  0.00    +0.000 C 
ATOM     21  O   UNL     1       2.477   4.229  18.200  0.00  0.00    +0.000 OA
ATOM     22  N   UNL     1       3.705   6.174  17.773  0.00  0.00    +0.000 N 
ATOM     23  H   UNL     1       4.448   6.528  17.181  0.00  0.00    +0.000 HD
BRANCH  20  24
ATOM     24  C   UNL     1       4.521   4.015  16.989  0.00  0.00    +0.000 C 
BRANCH  24  26
ATOM     25  C   UNL     1       6.746   4.524  17.582  0.00  0.00    +0.000 C 
ATOM     26  O   UNL     1       5.679   4.776  16.670  0.00  0.00    +0.000 OA
ENDBRANCH  24  26
ENDBRANCH  20  24
ENDBRANCH   1  22
TORSDOF 5
ENDMDL
