MODEL 1
REMARK VINA RESULT:      -9.3      0.000      0.000
REMARK  Name = 
REMARK  5 active torsions:
REMARK  status: ('A' for Active; 'I' for Inactive)
REMARK    1  A    between atoms: N_2  and  C_4
REMARK    2  A    between atoms: C_8  and  C_9
REMARK    3  A    between atoms: C_9  and  N_10
REMARK    4  A    between atoms: C_14  and  N_15
REMARK    5  A    between atoms: N_15  and  C_16
REMARK                            x       y       z     vdW  Elec       q    Type
REMARK                         _______ _______ _______ _____ _____    ______ ____
ROOT
ATOM      1  N   UNL     1       2.761   3.311  18.478  0.00  0.00    +0.000 NA
ATOM      2  C   UNL     1       2.518   2.364  19.568  0.00  0.00    +0.000 C 
ATOM      3  C   UNL     1       1.412   2.820  20.517  0.00  0.00    +0.000 C 
ATOM      4  C   UNL     1       1.737   4.194  21.090  0.00  0.00    +0.000 C 
ATOM      5  C   UNL     1       1.839   5.216  19.955  0.00  0.00    +0.000 C 
ATOM      6  C   UNL     1       2.883   4.709  18.912  0.00  0.00    +0.000 C 
ENDROOT
BRANCH   5   7
ATOM      7  N   UNL     1       2.303   6.519  20.471  0.00  0.00    +0.000 N 
ATOM      8  H   UNL     1       3.294   6.511  20.709  0.00  0.00    +0.000 HD
BRANCH   7   9
ATOM      9  C   UNL     1       1.963   7.724  19.845  0.00  0.00    +0.000 A 
ATOM     10  C   UNL     1       2.262   8.013  18.509  0.00  0.00    +0.000 A 
ATOM     11  C   UNL     1       1.826   9.186  17.873  0.00  0.00    +0.000 A 
ATOM     12  C   UNL     1       1.070  10.078  18.636  0.00  0.00    +0.000 A 
ATOM     13  N   UNL     1       0.507  11.286  18.335  0.00  0.00    +0.000 N 
ATOM     14  N   UNL     1      -0.159  11.852  19.359  0.00  0.00    +0.000 NA
ATOM     15  C   UNL     1      -0.022  10.960  20.343  0.00  0.00    +0.000 A 
ATOM     16  C   UNL     1       0.733   9.832  19.957  0.00  0.00    +0.000 A 
ATOM     17  C   UNL     1       1.162   8.635  20.561  0.00  0.00    +0.000 A 
ATOM     18  H   UNL     1       0.543  11.780  17.452  0.00  0.00    +0.000 HD
ENDBRANCH   7   9
ENDBRANCH   5   7
BRANCH   1  19
ATOM     19  C   UNL     1       3.879   2.897  17.602  0.00  0.00    +0.000 C 
BRANCH  19  24
ATOM     20  C   UNL     1       6.743   5.429  17.973  0.00  0.00    +0.000 A 
ATOM     21  C   UNL     1       6.923   5.860  16.654  0.00  0.00    +0.000 A 
ATOM     22  C   UNL     1       6.102   5.343  15.654  0.00  0.00    +0.000 A 
ATOM     23  C   UNL     1       5.114   4.404  15.968  0.00  0.00    +0.000 A 
ATOM     24  C   UNL     1       4.932   3.951  17.288  0.00  0.00    +0.000 A 
ATOM     25  C   UNL     1       5.753   4.485  18.295  0.00  0.00    +0.000 A 
BRANCH  20  27
ATOM     26  O   UNL     1       8.298   6.959  18.767  0.00  0.00    +0.000 OA
ATOM     27  N   UNL     1       7.607   5.965  19.034  0.00  0.00    +0.000 N 
ATOM     28  O   UNL     1       7.598   5.391  20.132  0.00  0.00    +0.000 OA
ENDBRANCH  20  27
ENDBRANCH  19  24
ENDBRANCH   1  19
TORSDOF 5
ENDMDL
MODEL 2
REMARK VINA RESULT:      -9.0      1.936      2.194
REMARK  Name = 
REMARK  5 active torsions:
REMARK  status: ('A' for Active; 'I' for Inactive)
REMARK    1  A    between atoms: N_2  and  C_4
REMARK    2  A    between atoms: C_8  and  C_9
REMARK    3  A    between atoms: C_9  and  N_10
REMARK    4  A    between atoms: C_14  and  N_15
REMARK    5  A    between atoms: N_15  and  C_16
REMARK                            x       y       z     vdW  Elec       q    Type
REMARK                         _______ _______ _______ _____ _____    ______ ____
ROOT
ATOM      1  N   UNL     1       3.648   3.870  19.307  0.00  0.00    +0.000 NA
ATOM      2  C   UNL     1       2.896   2.865  20.060  0.00  0.00    +0.000 C 
ATOM      3  C   UNL     1       1.415   3.211  20.200  0.00  0.00    +0.000 C 
ATOM      4  C   UNL     1       1.248   4.577  20.853  0.00  0.00    +0.000 C 
ATOM      5  C   UNL     1       1.906   5.651  19.980  0.00  0.00    +0.000 C 
ATOM      6  C   UNL     1       3.393   5.254  19.729  0.00  0.00    +0.000 C 
ENDROOT
BRANCH   5   7
ATOM      7  N   UNL     1       1.891   6.957  20.666  0.00  0.00    +0.000 N 
ATOM      8  H   UNL     1       2.695   7.083  21.278  0.00  0.00    +0.000 HD
BRANCH   7   9
ATOM      9  C   UNL     1       1.607   8.146  19.984  0.00  0.00    +0.000 A 
ATOM     10  C   UNL     1       1.985   8.386  18.659  0.00  0.00    +0.000 A 
ATOM     11  C   UNL     1       1.606   9.543  17.961  0.00  0.00    +0.000 A 
ATOM     12  C   UNL     1       0.824  10.472  18.650  0.00  0.00    +0.000 A 
ATOM     13  N   UNL     1       0.300  11.678  18.279  0.00  0.00    +0.000 N 
ATOM     14  N   UNL     1      -0.412  12.288  19.245  0.00  0.00    +0.000 NA
ATOM     15  C   UNL     1      -0.346  11.427  20.264  0.00  0.00    +0.000 A 
ATOM     16  C   UNL     1       0.409  10.275  19.958  0.00  0.00    +0.000 A 
ATOM     17  C   UNL     1       0.783   9.093  20.624  0.00  0.00    +0.000 A 
ATOM     18  H   UNL     1       0.393  12.142  17.384  0.00  0.00    +0.000 HD
ENDBRANCH   7   9
ENDBRANCH   5   7
BRANCH   1  19
ATOM     19  C   UNL     1       5.093   3.563  19.233  0.00  0.00    +0.000 C 
BRANCH  19  24
ATOM     20  C   UNL     1       6.758   5.218  16.193  0.00  0.00    +0.000 A 
ATOM     21  C   UNL     1       7.491   6.251  16.789  0.00  0.00    +0.000 A 
ATOM     22  C   UNL     1       7.459   6.393  18.175  0.00  0.00    +0.000 A 
ATOM     23  C   UNL     1       6.700   5.515  18.956  0.00  0.00    +0.000 A 
ATOM     24  C   UNL     1       5.947   4.482  18.369  0.00  0.00    +0.000 A 
ATOM     25  C   UNL     1       5.994   4.334  16.972  0.00  0.00    +0.000 A 
BRANCH  20  27
ATOM     26  O   UNL     1       7.777   5.486  14.125  0.00  0.00    +0.000 OA
ATOM     27  N   UNL     1       6.783   5.063  14.733  0.00  0.00    +0.000 N 
ATOM     28  O   UNL     1       5.807   4.523  14.192  0.00  0.00    +0.000 OA
ENDBRANCH  20  27
ENDBRANCH  19  24
ENDBRANCH   1  19
TORSDOF 5
ENDMDL
MODEL 3
REMARK VINA RESULT:      -9.0      1.825      2.157
REMARK  Name = 
REMARK  5 active torsions:
REMARK  status: ('A' for Active; 'I' for Inactive)
REMARK    1  A    between atoms: N_2  and  C_4
REMARK    2  A    between atoms: C_8  and  C_9
REMARK    3  A    between atoms: C_9  and  N_10
REMARK    4  A    between atoms: C_14  and  N_15
REMARK    5  A    between atoms: N_15  and  C_16
REMARK                            x       y       z     vdW  Elec       q    Type
REMARK                         _______ _______ _______ _____ _____    ______ ____
ROOT
ATOM      1  N   UNL     1       2.389   3.432  18.529  0.00  0.00    +0.000 NA
ATOM      2  C   UNL     1       2.470   2.547  19.692  0.00  0.00    +0.000 C 
ATOM      3  C   UNL     1       1.657   3.050  20.881  0.00  0.00    +0.000 C 
ATOM      4  C   UNL     1       2.100   4.454  21.271  0.00  0.00    +0.000 C 
ATOM      5  C   UNL     1       1.870   5.413  20.099  0.00  0.00    +0.000 C 
ATOM      6  C   UNL     1       2.599   4.853  18.839  0.00  0.00    +0.000 C 
ENDROOT
BRANCH   5   7
ATOM      7  N   UNL     1       2.432   6.744  20.400  0.00  0.00    +0.000 N 
ATOM      8  H   UNL     1       3.451   6.744  20.396  0.00  0.00    +0.000 HD
BRANCH   7   9
ATOM      9  C   UNL     1       1.944   7.906  19.792  0.00  0.00    +0.000 A 
ATOM     10  C   UNL     1       2.163   8.227  18.448  0.00  0.00    +0.000 A 
ATOM     11  C   UNL     1       1.582   9.347  17.833  0.00  0.00    +0.000 A 
ATOM     12  C   UNL     1       0.762  10.152  18.626  0.00  0.00    +0.000 A 
ATOM     13  N   UNL     1       0.063  11.294  18.350  0.00  0.00    +0.000 N 
ATOM     14  N   UNL     1      -0.623  11.784  19.399  0.00  0.00    +0.000 NA
ATOM     15  C   UNL     1      -0.358  10.911  20.374  0.00  0.00    +0.000 A 
ATOM     16  C   UNL     1       0.499   9.870  19.956  0.00  0.00    +0.000 A 
ATOM     17  C   UNL     1       1.075   8.726  20.540  0.00  0.00    +0.000 A 
ATOM     18  H   UNL     1       0.015  11.789  17.469  0.00  0.00    +0.000 HD
ENDBRANCH   7   9
ENDBRANCH   5   7
BRANCH   1  19
ATOM     19  C   UNL     1       3.234   2.974  17.403  0.00  0.00    +0.000 C 
BRANCH  19  24
ATOM     20  C   UNL     1       6.402   4.512  15.871  0.00  0.00    +0.000 A 
ATOM     21  C   UNL     1       7.098   4.938  17.008  0.00  0.00    +0.000 A 
ATOM     22  C   UNL     1       6.546   4.707  18.267  0.00  0.00    +0.000 A 
ATOM     23  C   UNL     1       5.312   4.059  18.387  0.00  0.00    +0.000 A 
ATOM     24  C   UNL     1       4.596   3.639  17.252  0.00  0.00    +0.000 A 
ATOM     25  C   UNL     1       5.162   3.862  15.986  0.00  0.00    +0.000 A 
BRANCH  20  27
ATOM     26  O   UNL     1       6.513   4.109  13.588  0.00  0.00    +0.000 OA
ATOM     27  N   UNL     1       6.974   4.755  14.540  0.00  0.00    +0.000 N 
ATOM     28  O   UNL     1       7.885   5.589  14.446  0.00  0.00    +0.000 OA
ENDBRANCH  20  27
ENDBRANCH  19  24
ENDBRANCH   1  19
TORSDOF 5
ENDMDL
MODEL 4
REMARK VINA RESULT:      -9.0      2.830      6.063
REMARK  Name = 
REMARK  5 active torsions:
REMARK  status: ('A' for Active; 'I' for Inactive)
REMARK    1  A    between atoms: N_2  and  C_4
REMARK    2  A    between atoms: C_8  and  C_9
REMARK    3  A    between atoms: C_9  and  N_10
REMARK    4  A    between atoms: C_14  and  N_15
REMARK    5  A    between atoms: N_15  and  C_16
REMARK                            x       y       z     vdW  Elec       q    Type
REMARK                         _______ _______ _______ _____ _____    ______ ____
ROOT
ATOM      1  N   UNL     1       2.342   4.122  20.213  0.00  0.00    +0.000 NA
ATOM      2  C   UNL     1       1.084   3.858  19.514  0.00  0.00    +0.000 C 
ATOM      3  C   UNL     1       1.117   2.572  18.692  0.00  0.00    +0.000 C 
ATOM      4  C   UNL     1       2.265   2.612  17.691  0.00  0.00    +0.000 C 
ATOM      5  C   UNL     1       3.597   2.733  18.436  0.00  0.00    +0.000 C 
ATOM      6  C   UNL     1       3.539   3.980  19.372  0.00  0.00    +0.000 C 
ENDROOT
BRANCH   5   7
ATOM      7  N   UNL     1       4.708   2.928  17.484  0.00  0.00    +0.000 N 
ATOM      8  H   UNL     1       4.547   2.452  16.598  0.00  0.00    +0.000 HD
BRANCH   7   9
ATOM      9  C   UNL     1       5.278   4.187  17.263  0.00  0.00    +0.000 A 
ATOM     10  C   UNL     1       4.774   5.113  16.343  0.00  0.00    +0.000 A 
ATOM     11  C   UNL     1       5.301   6.408  16.206  0.00  0.00    +0.000 A 
ATOM     12  C   UNL     1       6.372   6.747  17.035  0.00  0.00    +0.000 A 
ATOM     13  N   UNL     1       7.106   7.894  17.154  0.00  0.00    +0.000 N 
ATOM     14  N   UNL     1       8.076   7.831  18.085  0.00  0.00    +0.000 NA
ATOM     15  C   UNL     1       7.941   6.600  18.585  0.00  0.00    +0.000 A 
ATOM     16  C   UNL     1       6.897   5.873  17.973  0.00  0.00    +0.000 A 
ATOM     17  C   UNL     1       6.332   4.591  18.106  0.00  0.00    +0.000 A 
ATOM     18  H   UNL     1       6.998   8.752  16.628  0.00  0.00    +0.000 HD
ENDBRANCH   7   9
ENDBRANCH   5   7
BRANCH   1  19
ATOM     19  C   UNL     1       2.326   5.403  20.953  0.00  0.00    +0.000 C 
BRANCH  19  24
ATOM     20  C   UNL     1       1.314   8.965  19.931  0.00  0.00    +0.000 A 
ATOM     21  C   UNL     1       1.739   9.017  18.598  0.00  0.00    +0.000 A 
ATOM     22  C   UNL     1       2.333   7.890  18.031  0.00  0.00    +0.000 A 
ATOM     23  C   UNL     1       2.502   6.727  18.789  0.00  0.00    +0.000 A 
ATOM     24  C   UNL     1       2.093   6.666  20.133  0.00  0.00    +0.000 A 
ATOM     25  C   UNL     1       1.483   7.799  20.696  0.00  0.00    +0.000 A 
BRANCH  20  27
ATOM     26  O   UNL     1       1.052  10.467  21.680  0.00  0.00    +0.000 OA
ATOM     27  N   UNL     1       0.691  10.148  20.538  0.00  0.00    +0.000 N 
ATOM     28  O   UNL     1      -0.161  10.757  19.876  0.00  0.00    +0.000 OA
ENDBRANCH  20  27
ENDBRANCH  19  24
ENDBRANCH   1  19
TORSDOF 5
ENDMDL
MODEL 5
REMARK VINA RESULT:      -8.9      1.032      1.254
REMARK  Name = 
REMARK  5 active torsions:
REMARK  status: ('A' for Active; 'I' for Inactive)
REMARK    1  A    between atoms: N_2  and  C_4
REMARK    2  A    between atoms: C_8  and  C_9
REMARK    3  A    between atoms: C_9  and  N_10
REMARK    4  A    between atoms: C_14  and  N_15
REMARK    5  A    between atoms: N_15  and  C_16
REMARK                            x       y       z     vdW  Elec       q    Type
REMARK                         _______ _______ _______ _____ _____    ______ ____
ROOT
ATOM      1  N   UNL     1       2.731   3.571  18.331  0.00  0.00    +0.000 NA
ATOM      2  C   UNL     1       2.143   2.627  19.283  0.00  0.00    +0.000 C 
ATOM      3  C   UNL     1       0.953   3.210  20.041  0.00  0.00    +0.000 C 
ATOM      4  C   UNL     1       1.358   4.487  20.765  0.00  0.00    +0.000 C 
ATOM      5  C   UNL     1       1.829   5.531  19.748  0.00  0.00    +0.000 C 
ATOM      6  C   UNL     1       2.970   4.911  18.883  0.00  0.00    +0.000 C 
ENDROOT
BRANCH   5   7
ATOM      7  N   UNL     1       2.370   6.718  20.437  0.00  0.00    +0.000 N 
ATOM      8  H   UNL     1       3.357   6.868  20.234  0.00  0.00    +0.000 HD
BRANCH   7   9
ATOM      9  C   UNL     1       1.686   7.940  20.450  0.00  0.00    +0.000 A 
ATOM     10  C   UNL     1       1.507   8.738  19.315  0.00  0.00    +0.000 A 
ATOM     11  C   UNL     1       0.734   9.909  19.328  0.00  0.00    +0.000 A 
ATOM     12  C   UNL     1       0.139  10.263  20.541  0.00  0.00    +0.000 A 
ATOM     13  N   UNL     1      -0.653  11.319  20.895  0.00  0.00    +0.000 N 
ATOM     14  N   UNL     1      -1.035  11.310  22.186  0.00  0.00    +0.000 NA
ATOM     15  C   UNL     1      -0.473  10.197  22.664  0.00  0.00    +0.000 A 
ATOM     16  C   UNL     1       0.271   9.499  21.689  0.00  0.00    +0.000 A 
ATOM     17  C   UNL     1       1.031   8.316  21.640  0.00  0.00    +0.000 A 
ATOM     18  H   UNL     1      -0.966  12.080  20.305  0.00  0.00    +0.000 HD
ENDBRANCH   7   9
ENDBRANCH   5   7
BRANCH   1  19
ATOM     19  C   UNL     1       3.925   3.024  17.650  0.00  0.00    +0.000 C 
BRANCH  19  24
ATOM     20  C   UNL     1       6.906   5.443  17.778  0.00  0.00    +0.000 A 
ATOM     21  C   UNL     1       7.029   5.824  16.437  0.00  0.00    +0.000 A 
ATOM     22  C   UNL     1       6.132   5.312  15.501  0.00  0.00    +0.000 A 
ATOM     23  C   UNL     1       5.126   4.426  15.901  0.00  0.00    +0.000 A 
ATOM     24  C   UNL     1       5.000   4.023  17.243  0.00  0.00    +0.000 A 
ATOM     25  C   UNL     1       5.898   4.553  18.185  0.00  0.00    +0.000 A 
BRANCH  20  27
ATOM     26  O   UNL     1       8.245   7.140  18.624  0.00  0.00    +0.000 OA
ATOM     27  N   UNL     1       7.850   5.974  18.770  0.00  0.00    +0.000 N 
ATOM     28  O   UNL     1       8.199   5.226  19.694  0.00  0.00    +0.000 OA
ENDBRANCH  20  27
ENDBRANCH  19  24
ENDBRANCH   1  19
TORSDOF 5
ENDMDL
MODEL 6
REMARK VINA RESULT:      -8.7      3.460      4.090
REMARK  Name = 
REMARK  5 active torsions:
REMARK  status: ('A' for Active; 'I' for Inactive)
REMARK    1  A    between atoms: N_2  and  C_4
REMARK    2  A    between atoms: C_8  and  C_9
REMARK    3  A    between atoms: C_9  and  N_10
REMARK    4  A    between atoms: C_14  and  N_15
REMARK    5  A    between atoms: N_15  and  C_16
REMARK                            x       y       z     vdW  Elec       q    Type
REMARK                         _______ _______ _______ _____ _____    ______ ____
ROOT
ATOM      1  N   UNL     1       4.668   4.570  16.586  0.00  0.00    +0.000 NA
ATOM      2  C   UNL     1       4.159   3.254  16.974  0.00  0.00    +0.000 C 
ATOM      3  C   UNL     1       2.698   3.286  17.415  0.00  0.00    +0.000 C 
ATOM      4  C   UNL     1       2.511   4.270  18.563  0.00  0.00    +0.000 C 
ATOM      5  C   UNL     1       2.899   5.678  18.105  0.00  0.00    +0.000 C 
ATOM      6  C   UNL     1       4.354   5.642  17.541  0.00  0.00    +0.000 C 
ENDROOT
BRANCH   5   7
ATOM      7  N   UNL     1       2.873   6.619  19.241  0.00  0.00    +0.000 N 
ATOM      8  H   UNL     1       3.802   6.793  19.622  0.00  0.00    +0.000 HD
BRANCH   7   9
ATOM      9  C   UNL     1       2.134   7.807  19.200  0.00  0.00    +0.000 A 
ATOM     10  C   UNL     1       1.899   8.531  18.026  0.00  0.00    +0.000 A 
ATOM     11  C   UNL     1       1.073   9.665  17.988  0.00  0.00    +0.000 A 
ATOM     12  C   UNL     1       0.483  10.060  19.190  0.00  0.00    +0.000 A 
ATOM     13  N   UNL     1      -0.351  11.098  19.500  0.00  0.00    +0.000 N 
ATOM     14  N   UNL     1      -0.711  11.145  20.796  0.00  0.00    +0.000 NA
ATOM     15  C   UNL     1      -0.090  10.087  21.325  0.00  0.00    +0.000 A 
ATOM     16  C   UNL     1       0.670   9.369  20.377  0.00  0.00    +0.000 A 
ATOM     17  C   UNL     1       1.482   8.220  20.379  0.00  0.00    +0.000 A 
ATOM     18  H   UNL     1      -0.708  11.809  18.874  0.00  0.00    +0.000 HD
ENDBRANCH   7   9
ENDBRANCH   5   7
BRANCH   1  19
ATOM     19  C   UNL     1       6.102   4.544  16.225  0.00  0.00    +0.000 C 
BRANCH  19  24
ATOM     20  C   UNL     1       6.017   3.521  12.524  0.00  0.00    +0.000 A 
ATOM     21  C   UNL     1       7.038   4.309  11.981  0.00  0.00    +0.000 A 
ATOM     22  C   UNL     1       7.763   5.153  12.820  0.00  0.00    +0.000 A 
ATOM     23  C   UNL     1       7.468   5.210  14.187  0.00  0.00    +0.000 A 
ATOM     24  C   UNL     1       6.435   4.434  14.743  0.00  0.00    +0.000 A 
ATOM     25  C   UNL     1       5.716   3.575  13.895  0.00  0.00    +0.000 A 
BRANCH  20  27
ATOM     26  O   UNL     1       5.722   1.516  11.392  0.00  0.00    +0.000 OA
ATOM     27  N   UNL     1       5.245   2.631  11.646  0.00  0.00    +0.000 N 
ATOM     28  O   UNL     1       4.164   3.049  11.207  0.00  0.00    +0.000 OA
ENDBRANCH  20  27
ENDBRANCH  19  24
ENDBRANCH   1  19
TORSDOF 5
ENDMDL
MODEL 7
REMARK VINA RESULT:      -8.7      2.007      2.568
REMARK  Name = 
REMARK  5 active torsions:
REMARK  status: ('A' for Active; 'I' for Inactive)
REMARK    1  A    between atoms: N_2  and  C_4
REMARK    2  A    between atoms: C_8  and  C_9
REMARK    3  A    between atoms: C_9  and  N_10
REMARK    4  A    between atoms: C_14  and  N_15
REMARK    5  A    between atoms: N_15  and  C_16
REMARK                            x       y       z     vdW  Elec       q    Type
REMARK                         _______ _______ _______ _____ _____    ______ ____
ROOT
ATOM      1  N   UNL     1       3.453   3.921  19.130  0.00  0.00    +0.000 NA
ATOM      2  C   UNL     1       2.575   2.835  19.569  0.00  0.00    +0.000 C 
ATOM      3  C   UNL     1       1.119   3.271  19.718  0.00  0.00    +0.000 C 
ATOM      4  C   UNL     1       1.012   4.443  20.684  0.00  0.00    +0.000 C 
ATOM      5  C   UNL     1       1.810   5.633  20.144  0.00  0.00    +0.000 C 
ATOM      6  C   UNL     1       3.277   5.175  19.874  0.00  0.00    +0.000 C 
ENDROOT
BRANCH   5   7
ATOM      7  N   UNL     1       1.847   6.726  21.135  0.00  0.00    +0.000 N 
ATOM      8  H   UNL     1       2.788   6.903  21.481  0.00  0.00    +0.000 HD
BRANCH   7   9
ATOM      9  C   UNL     1       1.169   7.933  20.929  0.00  0.00    +0.000 A 
ATOM     10  C   UNL     1       0.265   8.478  21.848  0.00  0.00    +0.000 A 
ATOM     11  C   UNL     1      -0.329   9.737  21.668  0.00  0.00    +0.000 A 
ATOM     12  C   UNL     1       0.015  10.442  20.513  0.00  0.00    +0.000 A 
ATOM     13  N   UNL     1      -0.376  11.663  20.039  0.00  0.00    +0.000 N 
ATOM     14  N   UNL     1       0.189  12.002  18.865  0.00  0.00    +0.000 NA
ATOM     15  C   UNL     1       0.979  10.960  18.593  0.00  0.00    +0.000 A 
ATOM     16  C   UNL     1       0.917   9.954  19.581  0.00  0.00    +0.000 A 
ATOM     17  C   UNL     1       1.517   8.700  19.800  0.00  0.00    +0.000 A 
ATOM     18  H   UNL     1      -1.027  12.310  20.465  0.00  0.00    +0.000 HD
ENDBRANCH   7   9
ENDBRANCH   5   7
BRANCH   1  19
ATOM     19  C   UNL     1       4.873   3.509  19.053  0.00  0.00    +0.000 C 
BRANCH  19  24
ATOM     20  C   UNL     1       6.791   5.138  16.151  0.00  0.00    +0.000 A 
ATOM     21  C   UNL     1       7.499   6.153  16.804  0.00  0.00    +0.000 A 
ATOM     22  C   UNL     1       7.368   6.292  18.184  0.00  0.00    +0.000 A 
ATOM     23  C   UNL     1       6.536   5.427  18.903  0.00  0.00    +0.000 A 
ATOM     24  C   UNL     1       5.807   4.412  18.258  0.00  0.00    +0.000 A 
ATOM     25  C   UNL     1       5.953   4.268  16.868  0.00  0.00    +0.000 A 
BRANCH  20  27
ATOM     26  O   UNL     1       7.869   5.557  14.138  0.00  0.00    +0.000 OA
ATOM     27  N   UNL     1       6.920   4.987  14.696  0.00  0.00    +0.000 N 
ATOM     28  O   UNL     1       6.071   4.301  14.109  0.00  0.00    +0.000 OA
ENDBRANCH  20  27
ENDBRANCH  19  24
ENDBRANCH   1  19
TORSDOF 5
ENDMDL
MODEL 8
REMARK VINA RESULT:      -8.6      0.761      1.413
REMARK  Name = 
REMARK  5 active torsions:
REMARK  status: ('A' for Active; 'I' for Inactive)
REMARK    1  A    between atoms: N_2  and  C_4
REMARK    2  A    between atoms: C_8  and  C_9
REMARK    3  A    between atoms: C_9  and  N_10
REMARK    4  A    between atoms: C_14  and  N_15
REMARK    5  A    between atoms: N_15  and  C_16
REMARK                            x       y       z     vdW  Elec       q    Type
REMARK                         _______ _______ _______ _____ _____    ______ ____
ROOT
ATOM      1  N   UNL     1       2.736   3.630  18.440  0.00  0.00    +0.000 NA
ATOM      2  C   UNL     1       2.261   2.773  19.528  0.00  0.00    +0.000 C 
ATOM      3  C   UNL     1       1.104   3.390  20.310  0.00  0.00    +0.000 C 
ATOM      4  C   UNL     1       1.504   4.752  20.863  0.00  0.00    +0.000 C 
ATOM      5  C   UNL     1       1.854   5.697  19.710  0.00  0.00    +0.000 C 
ATOM      6  C   UNL     1       2.956   5.029  18.829  0.00  0.00    +0.000 C 
ENDROOT
BRANCH   5   7
ATOM      7  N   UNL     1       2.391   6.970  20.227  0.00  0.00    +0.000 N 
ATOM      8  H   UNL     1       3.243   7.255  19.748  0.00  0.00    +0.000 HD
BRANCH   7   9
ATOM      9  C   UNL     1       1.568   8.079  20.455  0.00  0.00    +0.000 A 
ATOM     10  C   UNL     1       1.063   8.421  21.715  0.00  0.00    +0.000 A 
ATOM     11  C   UNL     1       0.322   9.592  21.941  0.00  0.00    +0.000 A 
ATOM     12  C   UNL     1       0.095  10.421  20.841  0.00  0.00    +0.000 A 
ATOM     13  N   UNL     1      -0.576  11.605  20.714  0.00  0.00    +0.000 N 
ATOM     14  N   UNL     1      -0.572  12.107  19.465  0.00  0.00    +0.000 NA
ATOM     15  C   UNL     1       0.141  11.212  18.778  0.00  0.00    +0.000 A 
ATOM     16  C   UNL     1       0.587  10.137  19.577  0.00  0.00    +0.000 A 
ATOM     17  C   UNL     1       1.349   8.970  19.386  0.00  0.00    +0.000 A 
ATOM     18  H   UNL     1      -1.060  12.120  21.439  0.00  0.00    +0.000 HD
ENDBRANCH   7   9
ENDBRANCH   5   7
BRANCH   1  19
ATOM     19  C   UNL     1       3.901   3.056  17.730  0.00  0.00    +0.000 C 
BRANCH  19  24
ATOM     20  C   UNL     1       6.919   5.432  17.805  0.00  0.00    +0.000 A 
ATOM     21  C   UNL     1       7.046   5.783  16.457  0.00  0.00    +0.000 A 
ATOM     22  C   UNL     1       6.140   5.265  15.532  0.00  0.00    +0.000 A 
ATOM     23  C   UNL     1       5.121   4.403  15.952  0.00  0.00    +0.000 A 
ATOM     24  C   UNL     1       4.991   4.030  17.301  0.00  0.00    +0.000 A 
ATOM     25  C   UNL     1       5.898   4.566  18.231  0.00  0.00    +0.000 A 
BRANCH  20  27
ATOM     26  O   UNL     1       8.255   7.139  18.635  0.00  0.00    +0.000 OA
ATOM     27  N   UNL     1       7.871   5.970  18.786  0.00  0.00    +0.000 N 
ATOM     28  O   UNL     1       8.238   5.223  19.704  0.00  0.00    +0.000 OA
ENDBRANCH  20  27
ENDBRANCH  19  24
ENDBRANCH   1  19
TORSDOF 5
ENDMDL
MODEL 9
REMARK VINA RESULT:      -8.6      1.954      2.537
REMARK  Name = 
REMARK  5 active torsions:
REMARK  status: ('A' for Active; 'I' for Inactive)
REMARK    1  A    between atoms: N_2  and  C_4
REMARK    2  A    between atoms: C_8  and  C_9
REMARK    3  A    between atoms: C_9  and  N_10
REMARK    4  A    between atoms: C_14  and  N_15
REMARK    5  A    between atoms: N_15  and  C_16
REMARK                            x       y       z     vdW  Elec       q    Type
REMARK                         _______ _______ _______ _____ _____    ______ ____
ROOT
ATOM      1  N   UNL     1       2.300   3.683  18.497  0.00  0.00    +0.000 NA
ATOM      2  C   UNL     1       2.517   2.788  19.635  0.00  0.00    +0.000 C 
ATOM      3  C   UNL     1       1.786   3.241  20.896  0.00  0.00    +0.000 C 
ATOM      4  C   UNL     1       2.199   4.659  21.270  0.00  0.00    +0.000 C 
ATOM      5  C   UNL     1       1.829   5.620  20.137  0.00  0.00    +0.000 C 
ATOM      6  C   UNL     1       2.474   5.108  18.811  0.00  0.00    +0.000 C 
ENDROOT
BRANCH   5   7
ATOM      7  N   UNL     1       2.357   6.971  20.410  0.00  0.00    +0.000 N 
ATOM      8  H   UNL     1       3.154   7.202  19.820  0.00  0.00    +0.000 HD
BRANCH   7   9
ATOM      9  C   UNL     1       1.514   8.080  20.545  0.00  0.00    +0.000 A 
ATOM     10  C   UNL     1       0.882   8.429  21.744  0.00  0.00    +0.000 A 
ATOM     11  C   UNL     1       0.120   9.599  21.885  0.00  0.00    +0.000 A 
ATOM     12  C   UNL     1       0.006  10.421  20.762  0.00  0.00    +0.000 A 
ATOM     13  N   UNL     1      -0.650  11.603  20.558  0.00  0.00    +0.000 N 
ATOM     14  N   UNL     1      -0.518  12.096  19.313  0.00  0.00    +0.000 NA
ATOM     15  C   UNL     1       0.264  11.198  18.708  0.00  0.00    +0.000 A 
ATOM     16  C   UNL     1       0.626  10.130  19.557  0.00  0.00    +0.000 A 
ATOM     17  C   UNL     1       1.405   8.963  19.453  0.00  0.00    +0.000 A 
ATOM     18  H   UNL     1      -1.207  12.121  21.225  0.00  0.00    +0.000 HD
ENDBRANCH   7   9
ENDBRANCH   5   7
BRANCH   1  19
ATOM     19  C   UNL     1       3.065   3.277  17.298  0.00  0.00    +0.000 C 
BRANCH  19  24
ATOM     20  C   UNL     1       6.389   4.537  15.841  0.00  0.00    +0.000 A 
ATOM     21  C   UNL     1       7.108   4.862  16.996  0.00  0.00    +0.000 A 
ATOM     22  C   UNL     1       6.521   4.652  18.242  0.00  0.00    +0.000 A 
ATOM     23  C   UNL     1       5.228   4.126  18.332  0.00  0.00    +0.000 A 
ATOM     24  C   UNL     1       4.488   3.808  17.179  0.00  0.00    +0.000 A 
ATOM     25  C   UNL     1       5.089   4.009  15.925  0.00  0.00    +0.000 A 
BRANCH  20  27
ATOM     26  O   UNL     1       7.929   5.574  14.448  0.00  0.00    +0.000 OA
ATOM     27  N   UNL     1       6.998   4.758  14.523  0.00  0.00    +0.000 N 
ATOM     28  O   UNL     1       6.544   4.121  13.562  0.00  0.00    +0.000 OA
ENDBRANCH  20  27
ENDBRANCH  19  24
ENDBRANCH   1  19
TORSDOF 5
ENDMDL
