MODEL 1
REMARK VINA RESULT:      -5.9      0.000      0.000
REMARK  Name = 
REMARK  11 active torsions:
REMARK  status: ('A' for Active; 'I' for Inactive)
REMARK    1  A    between atoms: C_1  and  C_2
REMARK    2  A    between atoms: C_2  and  C_3
REMARK    3  A    between atoms: C_3  and  C_4
REMARK    4  A    between atoms: C_4  and  C_5
REMARK    5  A    between atoms: C_5  and  C_6
REMARK    6  A    between atoms: C_6  and  C_7
REMARK    7  A    between atoms: C_7  and  C_8
REMARK    8  A    between atoms: C_8  and  S_9
REMARK    9  A    between atoms: S_9  and  N_12
REMARK   10  A    between atoms: N_12  and  S_13
REMARK   11  A    between atoms: S_13  and  N_14
REMARK                            x       y       z     vdW  Elec       q    Type
REMARK                         _______ _______ _______ _____ _____    ______ ____
ROOT
ATOM      1  S   UNL     1       7.309   4.944  17.540  0.00  0.00    +0.000 S 
ATOM      2  O   UNL     1       7.521   6.313  17.112  0.00  0.00    +0.000 OA
ATOM      3  O   UNL     1       8.411   4.079  17.887  0.00  0.00    +0.000 OA
ENDROOT
BRANCH   1   4
ATOM      4  N   UNL     1       6.408   4.216  16.370  0.00  0.00    +0.000 NA
ATOM      5  H   UNL     1       5.485   3.910  16.642  0.00  0.00    +0.000 HD
BRANCH   4   6
ATOM      6  S   UNL     1       6.350   4.917  14.879  0.00  0.00    +0.000 S 
ATOM      7  O   UNL     1       7.657   5.298  14.424  0.00  0.00    +0.000 OA
ATOM      8  O   UNL     1       5.474   4.076  14.096  0.00  0.00    +0.000 OA
BRANCH   6   9
ATOM      9  N   UNL     1       5.480   6.291  15.191  0.00  0.00    +0.000 NA
ATOM     10  H   UNL     1       4.484   6.134  15.370  0.00  0.00    +0.000 HD
ATOM     11  H   UNL     1       5.708   7.093  14.613  0.00  0.00    +0.000 HD
ENDBRANCH   6   9
ENDBRANCH   4   6
ENDBRANCH   1   4
BRANCH   1  12
ATOM     12  C   UNL     1       6.186   4.983  18.931  0.00  0.00    +0.000 C 
BRANCH  12  13
ATOM     13  C   UNL     1       4.741   4.727  18.502  0.00  0.00    +0.000 C 
BRANCH  13  14
ATOM     14  C   UNL     1       3.896   6.002  18.411  0.00  0.00    +0.000 C 
BRANCH  14  15
ATOM     15  C   UNL     1       2.829   6.107  19.496  0.00  0.00    +0.000 C 
BRANCH  15  16
ATOM     16  C   UNL     1       2.709   4.836  20.325  0.00  0.00    +0.000 C 
BRANCH  16  17
ATOM     17  C   UNL     1       1.249   4.451  20.529  0.00  0.00    +0.000 C 
BRANCH  17  19
ATOM     18  C   UNL     1       1.146   2.831  18.615  0.00  0.00    +0.000 C 
ATOM     19  C   UNL     1       1.026   3.000  20.118  0.00  0.00    +0.000 C 
ENDBRANCH  17  19
ENDBRANCH  16  17
ENDBRANCH  15  16
ENDBRANCH  14  15
ENDBRANCH  13  14
ENDBRANCH  12  13
ENDBRANCH   1  12
TORSDOF 10
ENDMDL
MODEL 2
REMARK VINA RESULT:      -5.9      1.986      3.441
REMARK  Name = 
REMARK  11 active torsions:
REMARK  status: ('A' for Active; 'I' for Inactive)
REMARK    1  A    between atoms: C_1  and  C_2
REMARK    2  A    between atoms: C_2  and  C_3
REMARK    3  A    between atoms: C_3  and  C_4
REMARK    4  A    between atoms: C_4  and  C_5
REMARK    5  A    between atoms: C_5  and  C_6
REMARK    6  A    between atoms: C_6  and  C_7
REMARK    7  A    between atoms: C_7  and  C_8
REMARK    8  A    between atoms: C_8  and  S_9
REMARK    9  A    between atoms: S_9  and  N_12
REMARK   10  A    between atoms: N_12  and  S_13
REMARK   11  A    between atoms: S_13  and  N_14
REMARK                            x       y       z     vdW  Elec       q    Type
REMARK                         _______ _______ _______ _____ _____    ______ ____
ROOT
ATOM      1  S   UNL     1       4.870   4.147  17.208  0.00  0.00    +0.000 S 
ATOM      2  O   UNL     1       5.478   3.862  15.923  0.00  0.00    +0.000 OA
ATOM      3  O   UNL     1       4.126   5.360  17.443  0.00  0.00    +0.000 OA
ENDROOT
BRANCH   1   4
ATOM      4  N   UNL     1       6.066   4.029  18.334  0.00  0.00    +0.000 NA
ATOM      5  H   UNL     1       6.317   3.094  18.623  0.00  0.00    +0.000 HD
BRANCH   4   6
ATOM      6  S   UNL     1       7.425   4.938  18.127  0.00  0.00    +0.000 S 
ATOM      7  O   UNL     1       7.949   5.397  19.383  0.00  0.00    +0.000 OA
ATOM      8  O   UNL     1       8.230   4.208  17.174  0.00  0.00    +0.000 OA
BRANCH   6   9
ATOM      9  N   UNL     1       6.831   6.242  17.297  0.00  0.00    +0.000 NA
ATOM     10  H   UNL     1       6.806   7.113  17.832  0.00  0.00    +0.000 HD
ATOM     11  H   UNL     1       6.024   6.055  16.711  0.00  0.00    +0.000 HD
ENDBRANCH   6   9
ENDBRANCH   4   6
ENDBRANCH   1   4
BRANCH   1  12
ATOM     12  C   UNL     1       3.809   2.766  17.619  0.00  0.00    +0.000 C 
BRANCH  12  13
ATOM     13  C   UNL     1       2.331   3.119  17.458  0.00  0.00    +0.000 C 
BRANCH  13  14
ATOM     14  C   UNL     1       1.416   2.384  18.444  0.00  0.00    +0.000 C 
BRANCH  14  15
ATOM     15  C   UNL     1       2.000   2.266  19.848  0.00  0.00    +0.000 C 
BRANCH  15  16
ATOM     16  C   UNL     1       1.165   2.993  20.893  0.00  0.00    +0.000 C 
BRANCH  16  17
ATOM     17  C   UNL     1       0.991   4.462  20.527  0.00  0.00    +0.000 C 
BRANCH  17  19
ATOM     18  C   UNL     1       2.203   6.623  20.126  0.00  0.00    +0.000 C 
ATOM     19  C   UNL     1       2.343   5.169  20.537  0.00  0.00    +0.000 C 
ENDBRANCH  17  19
ENDBRANCH  16  17
ENDBRANCH  15  16
ENDBRANCH  14  15
ENDBRANCH  13  14
ENDBRANCH  12  13
ENDBRANCH   1  12
TORSDOF 10
ENDMDL
MODEL 3
REMARK VINA RESULT:      -5.8      2.192      3.357
REMARK  Name = 
REMARK  11 active torsions:
REMARK  status: ('A' for Active; 'I' for Inactive)
REMARK    1  A    between atoms: C_1  and  C_2
REMARK    2  A    between atoms: C_2  and  C_3
REMARK    3  A    between atoms: C_3  and  C_4
REMARK    4  A    between atoms: C_4  and  C_5
REMARK    5  A    between atoms: C_5  and  C_6
REMARK    6  A    between atoms: C_6  and  C_7
REMARK    7  A    between atoms: C_7  and  C_8
REMARK    8  A    between atoms: C_8  and  S_9
REMARK    9  A    between atoms: S_9  and  N_12
REMARK   10  A    between atoms: N_12  and  S_13
REMARK   11  A    between atoms: S_13  and  N_14
REMARK                            x       y       z     vdW  Elec       q    Type
REMARK                         _______ _______ _______ _____ _____    ______ ____
ROOT
ATOM      1  S   UNL     1       4.841   4.147  18.218  0.00  0.00    +0.000 S 
ATOM      2  O   UNL     1       4.473   5.545  18.338  0.00  0.00    +0.000 OA
ATOM      3  O   UNL     1       5.014   3.306  19.377  0.00  0.00    +0.000 OA
ENDROOT
BRANCH   1   4
ATOM      4  N   UNL     1       6.217   4.096  17.313  0.00  0.00    +0.000 NA
ATOM      5  H   UNL     1       6.106   4.256  16.322  0.00  0.00    +0.000 HD
BRANCH   4   6
ATOM      6  S   UNL     1       7.546   4.898  17.866  0.00  0.00    +0.000 S 
ATOM      7  O   UNL     1       8.683   4.029  17.967  0.00  0.00    +0.000 OA
ATOM      8  O   UNL     1       7.582   6.136  17.120  0.00  0.00    +0.000 OA
BRANCH   6   9
ATOM      9  N   UNL     1       7.069   5.319  19.396  0.00  0.00    +0.000 NA
ATOM     10  H   UNL     1       7.835   5.550  20.033  0.00  0.00    +0.000 HD
ATOM     11  H   UNL     1       6.317   4.761  19.787  0.00  0.00    +0.000 HD
ENDBRANCH   6   9
ENDBRANCH   4   6
ENDBRANCH   1   4
BRANCH   1  12
ATOM     12  C   UNL     1       3.640   3.365  17.148  0.00  0.00    +0.000 C 
BRANCH  12  13
ATOM     13  C   UNL     1       2.209   3.624  17.616  0.00  0.00    +0.000 C 
BRANCH  13  14
ATOM     14  C   UNL     1       1.571   2.425  18.326  0.00  0.00    +0.000 C 
BRANCH  14  15
ATOM     15  C   UNL     1       1.020   2.755  19.709  0.00  0.00    +0.000 C 
BRANCH  15  16
ATOM     16  C   UNL     1       2.103   2.793  20.778  0.00  0.00    +0.000 C 
BRANCH  16  17
ATOM     17  C   UNL     1       2.163   4.161  21.446  0.00  0.00    +0.000 C 
BRANCH  17  19
ATOM     18  C   UNL     1       2.006   6.433  20.391  0.00  0.00    +0.000 C 
ATOM     19  C   UNL     1       1.265   5.147  20.707  0.00  0.00    +0.000 C 
ENDBRANCH  17  19
ENDBRANCH  16  17
ENDBRANCH  15  16
ENDBRANCH  14  15
ENDBRANCH  13  14
ENDBRANCH  12  13
ENDBRANCH   1  12
TORSDOF 10
ENDMDL
MODEL 4
REMARK VINA RESULT:      -5.8      1.619      2.216
REMARK  Name = 
REMARK  11 active torsions:
REMARK  status: ('A' for Active; 'I' for Inactive)
REMARK    1  A    between atoms: C_1  and  C_2
REMARK    2  A    between atoms: C_2  and  C_3
REMARK    3  A    between atoms: C_3  and  C_4
REMARK    4  A    between atoms: C_4  and  C_5
REMARK    5  A    between atoms: C_5  and  C_6
REMARK    6  A    between atoms: C_6  and  C_7
REMARK    7  A    between atoms: C_7  and  C_8
REMARK    8  A    between atoms: C_8  and  S_9
REMARK    9  A    between atoms: S_9  and  N_12
REMARK   10  A    between atoms: N_12  and  S_13
REMARK   11  A    between atoms: S_13  and  N_14
REMARK                            x       y       z     vdW  Elec       q    Type
REMARK                         _______ _______ _______ _____ _____    ______ ____
ROOT
ATOM      1  S   UNL     1       4.920   5.770  17.505  0.00  0.00    +0.000 S 
ATOM      2  O   UNL     1       4.624   7.091  16.986  0.00  0.00    +0.000 OA
ATOM      3  O   UNL     1       5.663   5.585  18.729  0.00  0.00    +0.000 OA
ENDROOT
BRANCH   1   4
ATOM      4  N   UNL     1       5.671   4.943  16.296  0.00  0.00    +0.000 NA
ATOM      5  H   UNL     1       5.222   4.968  15.392  0.00  0.00    +0.000 HD
BRANCH   4   6
ATOM      6  S   UNL     1       7.300   5.126  16.119  0.00  0.00    +0.000 S 
ATOM      7  O   UNL     1       8.027   4.217  16.958  0.00  0.00    +0.000 OA
ATOM      8  O   UNL     1       7.521   5.208  14.693  0.00  0.00    +0.000 OA
BRANCH   6   9
ATOM      9  N   UNL     1       7.526   6.665  16.689  0.00  0.00    +0.000 NA
ATOM     10  H   UNL     1       6.690   7.098  17.090  0.00  0.00    +0.000 HD
ATOM     11  H   UNL     1       8.104   7.264  16.110  0.00  0.00    +0.000 HD
ENDBRANCH   6   9
ENDBRANCH   4   6
ENDBRANCH   1   4
BRANCH   1  12
ATOM     12  C   UNL     1       3.368   4.897  17.671  0.00  0.00    +0.000 C 
BRANCH  12  13
ATOM     13  C   UNL     1       2.261   5.802  18.212  0.00  0.00    +0.000 C 
BRANCH  13  14
ATOM     14  C   UNL     1       2.467   6.212  19.674  0.00  0.00    +0.000 C 
BRANCH  14  15
ATOM     15  C   UNL     1       1.598   5.435  20.656  0.00  0.00    +0.000 C 
BRANCH  15  16
ATOM     16  C   UNL     1       2.367   4.336  21.377  0.00  0.00    +0.000 C 
BRANCH  16  17
ATOM     17  C   UNL     1       2.266   3.015  20.626  0.00  0.00    +0.000 C 
BRANCH  17  19
ATOM     18  C   UNL     1       0.866   2.271  18.680  0.00  0.00    +0.000 C 
ATOM     19  C   UNL     1       0.850   2.819  20.095  0.00  0.00    +0.000 C 
ENDBRANCH  17  19
ENDBRANCH  16  17
ENDBRANCH  15  16
ENDBRANCH  14  15
ENDBRANCH  13  14
ENDBRANCH  12  13
ENDBRANCH   1  12
TORSDOF 10
ENDMDL
MODEL 5
REMARK VINA RESULT:      -5.8      2.025      3.283
REMARK  Name = 
REMARK  11 active torsions:
REMARK  status: ('A' for Active; 'I' for Inactive)
REMARK    1  A    between atoms: C_1  and  C_2
REMARK    2  A    between atoms: C_2  and  C_3
REMARK    3  A    between atoms: C_3  and  C_4
REMARK    4  A    between atoms: C_4  and  C_5
REMARK    5  A    between atoms: C_5  and  C_6
REMARK    6  A    between atoms: C_6  and  C_7
REMARK    7  A    between atoms: C_7  and  C_8
REMARK    8  A    between atoms: C_8  and  S_9
REMARK    9  A    between atoms: S_9  and  N_12
REMARK   10  A    between atoms: N_12  and  S_13
REMARK   11  A    between atoms: S_13  and  N_14
REMARK                            x       y       z     vdW  Elec       q    Type
REMARK                         _______ _______ _______ _____ _____    ______ ____
ROOT
ATOM      1  S   UNL     1       4.608   3.887  18.124  0.00  0.00    +0.000 S 
ATOM      2  O   UNL     1       3.622   4.889  17.770  0.00  0.00    +0.000 OA
ATOM      3  O   UNL     1       5.379   3.979  19.341  0.00  0.00    +0.000 OA
ENDROOT
BRANCH   1   4
ATOM      4  N   UNL     1       5.641   3.766  16.847  0.00  0.00    +0.000 NA
ATOM      5  H   UNL     1       5.215   3.656  15.938  0.00  0.00    +0.000 HD
BRANCH   4   6
ATOM      6  S   UNL     1       6.896   4.829  16.755  0.00  0.00    +0.000 S 
ATOM      7  O   UNL     1       7.612   4.695  15.518  0.00  0.00    +0.000 OA
ATOM      8  O   UNL     1       6.360   6.093  17.205  0.00  0.00    +0.000 OA
BRANCH   6   9
ATOM      9  N   UNL     1       7.871   4.301  17.986  0.00  0.00    +0.000 NA
ATOM     10  H   UNL     1       7.460   3.568  18.571  0.00  0.00    +0.000 HD
ATOM     11  H   UNL     1       8.388   5.024  18.475  0.00  0.00    +0.000 HD
ENDBRANCH   6   9
ENDBRANCH   4   6
ENDBRANCH   1   4
BRANCH   1  12
ATOM     12  C   UNL     1       3.787   2.298  18.116  0.00  0.00    +0.000 C 
BRANCH  12  13
ATOM     13  C   UNL     1       2.367   2.395  17.559  0.00  0.00    +0.000 C 
BRANCH  13  14
ATOM     14  C   UNL     1       1.283   2.366  18.642  0.00  0.00    +0.000 C 
BRANCH  14  15
ATOM     15  C   UNL     1       1.819   2.063  20.037  0.00  0.00    +0.000 C 
BRANCH  15  16
ATOM     16  C   UNL     1       1.294   3.030  21.089  0.00  0.00    +0.000 C 
BRANCH  16  17
ATOM     17  C   UNL     1       0.987   4.391  20.477  0.00  0.00    +0.000 C 
BRANCH  17  19
ATOM     18  C   UNL     1       1.693   6.797  20.573  0.00  0.00    +0.000 C 
ATOM     19  C   UNL     1       2.137   5.357  20.741  0.00  0.00    +0.000 C 
ENDBRANCH  17  19
ENDBRANCH  16  17
ENDBRANCH  15  16
ENDBRANCH  14  15
ENDBRANCH  13  14
ENDBRANCH  12  13
ENDBRANCH   1  12
TORSDOF 10
ENDMDL
MODEL 6
REMARK VINA RESULT:      -5.7      1.858      2.773
REMARK  Name = 
REMARK  11 active torsions:
REMARK  status: ('A' for Active; 'I' for Inactive)
REMARK    1  A    between atoms: C_1  and  C_2
REMARK    2  A    between atoms: C_2  and  C_3
REMARK    3  A    between atoms: C_3  and  C_4
REMARK    4  A    between atoms: C_4  and  C_5
REMARK    5  A    between atoms: C_5  and  C_6
REMARK    6  A    between atoms: C_6  and  C_7
REMARK    7  A    between atoms: C_7  and  C_8
REMARK    8  A    between atoms: C_8  and  S_9
REMARK    9  A    between atoms: S_9  and  N_12
REMARK   10  A    between atoms: N_12  and  S_13
REMARK   11  A    between atoms: S_13  and  N_14
REMARK                            x       y       z     vdW  Elec       q    Type
REMARK                         _______ _______ _______ _____ _____    ______ ____
ROOT
ATOM      1  S   UNL     1       5.040   4.299  17.575  0.00  0.00    +0.000 S 
ATOM      2  O   UNL     1       5.457   3.749  18.850  0.00  0.00    +0.000 OA
ATOM      3  O   UNL     1       5.299   3.614  16.332  0.00  0.00    +0.000 OA
ENDROOT
BRANCH   1   4
ATOM      4  N   UNL     1       5.668   5.819  17.487  0.00  0.00    +0.000 NA
ATOM      5  H   UNL     1       5.233   6.517  18.074  0.00  0.00    +0.000 HD
BRANCH   4   6
ATOM      6  S   UNL     1       7.306   5.991  17.530  0.00  0.00    +0.000 S 
ATOM      7  O   UNL     1       7.776   6.836  16.469  0.00  0.00    +0.000 OA
ATOM      8  O   UNL     1       7.628   6.239  18.917  0.00  0.00    +0.000 OA
BRANCH   6   9
ATOM      9  N   UNL     1       7.812   4.442  17.230  0.00  0.00    +0.000 NA
ATOM     10  H   UNL     1       8.622   4.144  17.780  0.00  0.00    +0.000 HD
ATOM     11  H   UNL     1       7.808   4.162  16.255  0.00  0.00    +0.000 HD
ENDBRANCH   6   9
ENDBRANCH   4   6
ENDBRANCH   1   4
BRANCH   1  12
ATOM     12  C   UNL     1       3.281   4.608  17.672  0.00  0.00    +0.000 C 
BRANCH  12  13
ATOM     13  C   UNL     1       2.979   6.008  18.205  0.00  0.00    +0.000 C 
BRANCH  13  14
ATOM     14  C   UNL     1       2.961   6.090  19.735  0.00  0.00    +0.000 C 
BRANCH  14  15
ATOM     15  C   UNL     1       1.786   5.356  20.374  0.00  0.00    +0.000 C 
BRANCH  15  16
ATOM     16  C   UNL     1       2.230   4.214  21.277  0.00  0.00    +0.000 C 
BRANCH  16  17
ATOM     17  C   UNL     1       1.246   3.053  21.213  0.00  0.00    +0.000 C 
BRANCH  17  19
ATOM     18  C   UNL     1       1.783   1.902  19.048  0.00  0.00    +0.000 C 
ATOM     19  C   UNL     1       0.809   2.813  19.772  0.00  0.00    +0.000 C 
ENDBRANCH  17  19
ENDBRANCH  16  17
ENDBRANCH  15  16
ENDBRANCH  14  15
ENDBRANCH  13  14
ENDBRANCH  12  13
ENDBRANCH   1  12
TORSDOF 10
ENDMDL
MODEL 7
REMARK VINA RESULT:      -5.7      1.860      2.867
REMARK  Name = 
REMARK  11 active torsions:
REMARK  status: ('A' for Active; 'I' for Inactive)
REMARK    1  A    between atoms: C_1  and  C_2
REMARK    2  A    between atoms: C_2  and  C_3
REMARK    3  A    between atoms: C_3  and  C_4
REMARK    4  A    between atoms: C_4  and  C_5
REMARK    5  A    between atoms: C_5  and  C_6
REMARK    6  A    between atoms: C_6  and  C_7
REMARK    7  A    between atoms: C_7  and  C_8
REMARK    8  A    between atoms: C_8  and  S_9
REMARK    9  A    between atoms: S_9  and  N_12
REMARK   10  A    between atoms: N_12  and  S_13
REMARK   11  A    between atoms: S_13  and  N_14
REMARK                            x       y       z     vdW  Elec       q    Type
REMARK                         _______ _______ _______ _____ _____    ______ ____
ROOT
ATOM      1  S   UNL     1       4.472   5.764  17.707  0.00  0.00    +0.000 S 
ATOM      2  O   UNL     1       3.867   4.688  16.948  0.00  0.00    +0.000 OA
ATOM      3  O   UNL     1       4.348   7.143  17.300  0.00  0.00    +0.000 OA
ENDROOT
BRANCH   1   4
ATOM      4  N   UNL     1       6.070   5.396  17.860  0.00  0.00    +0.000 NA
ATOM      5  H   UNL     1       6.284   4.487  18.244  0.00  0.00    +0.000 HD
BRANCH   4   6
ATOM      6  S   UNL     1       7.071   5.721  16.592  0.00  0.00    +0.000 S 
ATOM      7  O   UNL     1       7.679   7.015  16.718  0.00  0.00    +0.000 OA
ATOM      8  O   UNL     1       7.847   4.517  16.401  0.00  0.00    +0.000 OA
BRANCH   6   9
ATOM      9  N   UNL     1       6.003   5.762  15.327  0.00  0.00    +0.000 NA
ATOM     10  H   UNL     1       5.861   4.863  14.859  0.00  0.00    +0.000 HD
ATOM     11  H   UNL     1       6.075   6.573  14.721  0.00  0.00    +0.000 HD
ENDBRANCH   6   9
ENDBRANCH   4   6
ENDBRANCH   1   4
BRANCH   1  12
ATOM     12  C   UNL     1       3.878   5.636  19.389  0.00  0.00    +0.000 C 
BRANCH  12  13
ATOM     13  C   UNL     1       2.603   6.451  19.606  0.00  0.00    +0.000 C 
BRANCH  13  14
ATOM     14  C   UNL     1       1.633   5.814  20.606  0.00  0.00    +0.000 C 
BRANCH  14  15
ATOM     15  C   UNL     1       1.917   4.341  20.881  0.00  0.00    +0.000 C 
BRANCH  15  16
ATOM     16  C   UNL     1       0.823   3.424  20.349  0.00  0.00    +0.000 C 
BRANCH  16  17
ATOM     17  C   UNL     1       1.349   2.543  19.223  0.00  0.00    +0.000 C 
BRANCH  17  19
ATOM     18  C   UNL     1       3.451   1.608  18.221  0.00  0.00    +0.000 C 
ATOM     19  C   UNL     1       2.815   2.201  19.464  0.00  0.00    +0.000 C 
ENDBRANCH  17  19
ENDBRANCH  16  17
ENDBRANCH  15  16
ENDBRANCH  14  15
ENDBRANCH  13  14
ENDBRANCH  12  13
ENDBRANCH   1  12
TORSDOF 10
ENDMDL
MODEL 8
REMARK VINA RESULT:      -5.6      1.244      1.596
REMARK  Name = 
REMARK  11 active torsions:
REMARK  status: ('A' for Active; 'I' for Inactive)
REMARK    1  A    between atoms: C_1  and  C_2
REMARK    2  A    between atoms: C_2  and  C_3
REMARK    3  A    between atoms: C_3  and  C_4
REMARK    4  A    between atoms: C_4  and  C_5
REMARK    5  A    between atoms: C_5  and  C_6
REMARK    6  A    between atoms: C_6  and  C_7
REMARK    7  A    between atoms: C_7  and  C_8
REMARK    8  A    between atoms: C_8  and  S_9
REMARK    9  A    between atoms: S_9  and  N_12
REMARK   10  A    between atoms: N_12  and  S_13
REMARK   11  A    between atoms: S_13  and  N_14
REMARK                            x       y       z     vdW  Elec       q    Type
REMARK                         _______ _______ _______ _____ _____    ______ ____
ROOT
ATOM      1  S   UNL     1       7.266   4.899  17.239  0.00  0.00    +0.000 S 
ATOM      2  O   UNL     1       7.471   6.233  16.710  0.00  0.00    +0.000 OA
ATOM      3  O   UNL     1       8.360   4.110  17.754  0.00  0.00    +0.000 OA
ENDROOT
BRANCH   1   4
ATOM      4  N   UNL     1       6.495   4.037  16.066  0.00  0.00    +0.000 NA
ATOM      5  H   UNL     1       5.655   3.552  16.347  0.00  0.00    +0.000 HD
BRANCH   4   6
ATOM      6  S   UNL     1       6.266   4.749  14.597  0.00  0.00    +0.000 S 
ATOM      7  O   UNL     1       5.968   3.779  13.582  0.00  0.00    +0.000 OA
ATOM      8  O   UNL     1       5.413   5.887  14.854  0.00  0.00    +0.000 OA
BRANCH   6   9
ATOM      9  N   UNL     1       7.767   5.382  14.296  0.00  0.00    +0.000 NA
ATOM     10  H   UNL     1       7.759   6.307  13.857  0.00  0.00    +0.000 HD
ATOM     11  H   UNL     1       8.454   4.725  13.940  0.00  0.00    +0.000 HD
ENDBRANCH   6   9
ENDBRANCH   4   6
ENDBRANCH   1   4
BRANCH   1  12
ATOM     12  C   UNL     1       6.024   5.013  18.521  0.00  0.00    +0.000 C 
BRANCH  12  13
ATOM     13  C   UNL     1       4.622   4.738  17.978  0.00  0.00    +0.000 C 
BRANCH  13  14
ATOM     14  C   UNL     1       3.540   5.626  18.602  0.00  0.00    +0.000 C 
BRANCH  14  15
ATOM     15  C   UNL     1       2.129   5.298  18.125  0.00  0.00    +0.000 C 
BRANCH  15  16
ATOM     16  C   UNL     1       1.868   3.800  18.050  0.00  0.00    +0.000 C 
BRANCH  16  17
ATOM     17  C   UNL     1       0.975   3.343  19.197  0.00  0.00    +0.000 C 
BRANCH  17  19
ATOM     18  C   UNL     1       1.673   2.837  21.554  0.00  0.00    +0.000 C 
ATOM     19  C   UNL     1       1.737   2.385  20.107  0.00  0.00    +0.000 C 
ENDBRANCH  17  19
ENDBRANCH  16  17
ENDBRANCH  15  16
ENDBRANCH  14  15
ENDBRANCH  13  14
ENDBRANCH  12  13
ENDBRANCH   1  12
TORSDOF 10
ENDMDL
MODEL 9
REMARK VINA RESULT:      -5.6      1.501      2.333
REMARK  Name = 
REMARK  11 active torsions:
REMARK  status: ('A' for Active; 'I' for Inactive)
REMARK    1  A    between atoms: C_1  and  C_2
REMARK    2  A    between atoms: C_2  and  C_3
REMARK    3  A    between atoms: C_3  and  C_4
REMARK    4  A    between atoms: C_4  and  C_5
REMARK    5  A    between atoms: C_5  and  C_6
REMARK    6  A    between atoms: C_6  and  C_7
REMARK    7  A    between atoms: C_7  and  C_8
REMARK    8  A    between atoms: C_8  and  S_9
REMARK    9  A    between atoms: S_9  and  N_12
REMARK   10  A    between atoms: N_12  and  S_13
REMARK   11  A    between atoms: S_13  and  N_14
REMARK                            x       y       z     vdW  Elec       q    Type
REMARK                         _______ _______ _______ _____ _____    ______ ____
ROOT
ATOM      1  S   UNL     1       6.468   4.964  18.049  0.00  0.00    +0.000 S 
ATOM      2  O   UNL     1       6.086   6.316  17.692  0.00  0.00    +0.000 OA
ATOM      3  O   UNL     1       7.630   4.693  18.861  0.00  0.00    +0.000 OA
ENDROOT
BRANCH   1   4
ATOM      4  N   UNL     1       6.594   4.120  16.640  0.00  0.00    +0.000 NA
ATOM      5  H   UNL     1       6.062   3.264  16.584  0.00  0.00    +0.000 HD
BRANCH   4   6
ATOM      6  S   UNL     1       6.477   4.949  15.221  0.00  0.00    +0.000 S 
ATOM      7  O   UNL     1       5.233   5.658  15.125  0.00  0.00    +0.000 OA
ATOM      8  O   UNL     1       7.755   5.603  15.054  0.00  0.00    +0.000 OA
BRANCH   6   9
ATOM      9  N   UNL     1       6.466   3.715  14.115  0.00  0.00    +0.000 NA
ATOM     10  H   UNL     1       7.292   3.676  13.511  0.00  0.00    +0.000 HD
ATOM     11  H   UNL     1       5.574   3.543  13.662  0.00  0.00    +0.000 HD
ENDBRANCH   6   9
ENDBRANCH   4   6
ENDBRANCH   1   4
BRANCH   1  12
ATOM     12  C   UNL     1       5.058   4.197  18.839  0.00  0.00    +0.000 C 
BRANCH  12  13
ATOM     13  C   UNL     1       3.918   3.952  17.851  0.00  0.00    +0.000 C 
BRANCH  13  14
ATOM     14  C   UNL     1       3.558   2.471  17.688  0.00  0.00    +0.000 C 
BRANCH  14  15
ATOM     15  C   UNL     1       2.185   2.110  18.244  0.00  0.00    +0.000 C 
BRANCH  15  16
ATOM     16  C   UNL     1       1.300   3.330  18.458  0.00  0.00    +0.000 C 
BRANCH  16  17
ATOM     17  C   UNL     1       0.639   3.293  19.831  0.00  0.00    +0.000 C 
BRANCH  17  19
ATOM     18  C   UNL     1       2.094   3.018  21.857  0.00  0.00    +0.000 C 
ATOM     19  C   UNL     1       1.518   4.001  20.856  0.00  0.00    +0.000 C 
ENDBRANCH  17  19
ENDBRANCH  16  17
ENDBRANCH  15  16
ENDBRANCH  14  15
ENDBRANCH  13  14
ENDBRANCH  12  13
ENDBRANCH   1  12
TORSDOF 10
ENDMDL
