MODEL 1
REMARK VINA RESULT:      -9.9      0.000      0.000
REMARK  Name = 
REMARK  4 active torsions:
REMARK  status: ('A' for Active; 'I' for Inactive)
REMARK    1  A    between atoms: C_1  and  C_2
REMARK    2  A    between atoms: C_6  and  C_7
REMARK    3  A    between atoms: C_7  and  N_8
REMARK    4  A    between atoms: C_13  and  C_14
REMARK                            x       y       z     vdW  Elec       q    Type
REMARK                         _______ _______ _______ _____ _____    ______ ____
ROOT
ATOM      1  C   UNL     1       4.934   4.276  19.445  0.00  0.00    +0.000 C 
ENDROOT
BRANCH   1   7
ATOM      2  C   UNL     1       7.198   4.378  12.341  0.00  0.00    +0.000 C 
ATOM      3  C   UNL     1       6.839   4.459  13.781  0.00  0.00    +0.000 A 
ATOM      4  C   UNL     1       6.090   3.547  14.578  0.00  0.00    +0.000 A 
ATOM      5  C   UNL     1       6.070   4.101  15.833  0.00  0.00    +0.000 A 
ATOM      6  N   UNL     1       5.529   3.771  17.032  0.00  0.00    +0.000 N 
ATOM      7  C   UNL     1       5.720   4.570  18.167  0.00  0.00    +0.000 A 
ATOM      8  C   UNL     1       6.503   5.666  18.117  0.00  0.00    +0.000 A 
ATOM      9  C   UNL     1       7.130   6.093  16.842  0.00  0.00    +0.000 A 
ATOM     10  O   UNL     1       7.829   7.091  16.737  0.00  0.00    +0.000 OA
ATOM     11  N   UNL     1       6.827   5.261  15.752  0.00  0.00    +0.000 N 
ATOM     12  N   UNL     1       7.260   5.512  14.490  0.00  0.00    +0.000 NA
ATOM     13  H   UNL     1       4.989   2.918  17.192  0.00  0.00    +0.000 HD
ENDBRANCH   1   7
BRANCH   1  14
ATOM     14  N   UNL     1       3.645   3.588  19.288  0.00  0.00    +0.000 NA
ATOM     15  C   UNL     1       3.058   3.188  20.571  0.00  0.00    +0.000 C 
ATOM     16  C   UNL     1       1.719   2.451  20.425  0.00  0.00    +0.000 C 
ATOM     17  C   UNL     1       0.731   3.096  19.457  0.00  0.00    +0.000 C 
ATOM     18  C   UNL     1       1.419   3.572  18.186  0.00  0.00    +0.000 C 
ATOM     19  C   UNL     1       2.709   4.374  18.440  0.00  0.00    +0.000 C 
BRANCH  19  20
ATOM     20  C   UNL     1       2.439   5.835  18.836  0.00  0.00    +0.000 A 
ATOM     21  C   UNL     1       2.569   6.847  17.862  0.00  0.00    +0.000 A 
ATOM     22  C   UNL     1       2.285   8.189  18.154  0.00  0.00    +0.000 A 
ATOM     23  C   UNL     1       1.859   8.550  19.427  0.00  0.00    +0.000 A 
ATOM     24  C   UNL     1       1.732   7.568  20.396  0.00  0.00    +0.000 A 
ATOM     25  F   UNL     1       1.311   7.902  21.623  0.00  0.00    +0.000 F 
ATOM     26  C   UNL     1       2.022   6.233  20.116  0.00  0.00    +0.000 A 
ENDBRANCH  19  20
ENDBRANCH   1  14
TORSDOF 3
ENDMDL
MODEL 2
REMARK VINA RESULT:      -9.8      0.868      1.289
REMARK  Name = 
REMARK  4 active torsions:
REMARK  status: ('A' for Active; 'I' for Inactive)
REMARK    1  A    between atoms: C_1  and  C_2
REMARK    2  A    between atoms: C_6  and  C_7
REMARK    3  A    between atoms: C_7  and  N_8
REMARK    4  A    between atoms: C_13  and  C_14
REMARK                            x       y       z     vdW  Elec       q    Type
REMARK                         _______ _______ _______ _____ _____    ______ ____
ROOT
ATOM      1  C   UNL     1       4.903   4.225  19.364  0.00  0.00    +0.000 C 
ENDROOT
BRANCH   1   7
ATOM      2  C   UNL     1       7.224   4.394  12.279  0.00  0.00    +0.000 C 
ATOM      3  C   UNL     1       6.853   4.462  13.717  0.00  0.00    +0.000 A 
ATOM      4  C   UNL     1       6.099   3.542  14.500  0.00  0.00    +0.000 A 
ATOM      5  C   UNL     1       6.068   4.085  15.760  0.00  0.00    +0.000 A 
ATOM      6  N   UNL     1       5.518   3.743  16.952  0.00  0.00    +0.000 N 
ATOM      7  C   UNL     1       5.699   4.532  18.095  0.00  0.00    +0.000 A 
ATOM      8  C   UNL     1       6.481   5.630  18.061  0.00  0.00    +0.000 A 
ATOM      9  C   UNL     1       7.117   6.069  16.795  0.00  0.00    +0.000 A 
ATOM     10  O   UNL     1       7.815   7.068  16.705  0.00  0.00    +0.000 OA
ATOM     11  N   UNL     1       6.824   5.246  15.695  0.00  0.00    +0.000 N 
ATOM     12  N   UNL     1       7.267   5.509  14.439  0.00  0.00    +0.000 NA
ATOM     13  H   UNL     1       4.978   2.888  17.099  0.00  0.00    +0.000 HD
ENDBRANCH   1   7
BRANCH   1  14
ATOM     14  N   UNL     1       3.639   3.495  19.195  0.00  0.00    +0.000 NA
ATOM     15  C   UNL     1       3.091   3.011  20.466  0.00  0.00    +0.000 C 
ATOM     16  C   UNL     1       1.779   2.229  20.306  0.00  0.00    +0.000 C 
ATOM     17  C   UNL     1       0.750   2.880  19.387  0.00  0.00    +0.000 C 
ATOM     18  C   UNL     1       1.396   3.443  18.129  0.00  0.00    +0.000 C 
ATOM     19  C   UNL     1       2.659   4.283  18.401  0.00  0.00    +0.000 C 
BRANCH  19  20
ATOM     20  C   UNL     1       2.339   5.711  18.872  0.00  0.00    +0.000 A 
ATOM     21  C   UNL     1       1.902   5.916  20.197  0.00  0.00    +0.000 A 
ATOM     22  C   UNL     1       1.645   7.202  20.695  0.00  0.00    +0.000 A 
ATOM     23  C   UNL     1       1.824   8.314  19.880  0.00  0.00    +0.000 A 
ATOM     24  C   UNL     1       2.248   8.128  18.574  0.00  0.00    +0.000 A 
ATOM     25  F   UNL     1       2.436   9.192  17.783  0.00  0.00    +0.000 F 
ATOM     26  C   UNL     1       2.496   6.851  18.069  0.00  0.00    +0.000 A 
ENDBRANCH  19  20
ENDBRANCH   1  14
TORSDOF 3
ENDMDL
MODEL 3
REMARK VINA RESULT:      -9.2      3.722      7.197
REMARK  Name = 
REMARK  4 active torsions:
REMARK  status: ('A' for Active; 'I' for Inactive)
REMARK    1  A    between atoms: C_1  and  C_2
REMARK    2  A    between atoms: C_6  and  C_7
REMARK    3  A    between atoms: C_7  and  N_8
REMARK    4  A    between atoms: C_13  and  C_14
REMARK                            x       y       z     vdW  Elec       q    Type
REMARK                         _______ _______ _______ _____ _____    ______ ____
ROOT
ATOM      1  C   UNL     1       3.363   6.424  18.896  0.00  0.00    +0.000 C 
ENDROOT
BRANCH   1   7
ATOM      2  C   UNL     1      -1.027  10.844  22.995  0.00  0.00    +0.000 C 
ATOM      3  C   UNL     1      -0.195  10.035  22.067  0.00  0.00    +0.000 A 
ATOM      4  C   UNL     1       0.460   8.791  22.292  0.00  0.00    +0.000 A 
ATOM      5  C   UNL     1       1.075   8.488  21.103  0.00  0.00    +0.000 A 
ATOM      6  N   UNL     1       1.860   7.483  20.643  0.00  0.00    +0.000 N 
ATOM      7  C   UNL     1       2.322   7.461  19.321  0.00  0.00    +0.000 A 
ATOM      8  C   UNL     1       1.947   8.411  18.441  0.00  0.00    +0.000 A 
ATOM      9  C   UNL     1       1.090   9.544  18.868  0.00  0.00    +0.000 A 
ATOM     10  O   UNL     1       0.741  10.443  18.117  0.00  0.00    +0.000 OA
ATOM     11  N   UNL     1       0.732   9.508  20.225  0.00  0.00    +0.000 N 
ATOM     12  N   UNL     1      -0.004  10.481  20.821  0.00  0.00    +0.000 NA
ATOM     13  H   UNL     1       2.131   6.675  21.208  0.00  0.00    +0.000 HD
ENDBRANCH   1   7
BRANCH   1  14
ATOM     14  N   UNL     1       2.971   5.011  18.995  0.00  0.00    +0.000 NA
ATOM     15  C   UNL     1       1.909   4.652  18.049  0.00  0.00    +0.000 C 
ATOM     16  C   UNL     1       1.474   3.183  18.151  0.00  0.00    +0.000 C 
ATOM     17  C   UNL     1       2.618   2.176  18.222  0.00  0.00    +0.000 C 
ATOM     18  C   UNL     1       3.729   2.651  19.148  0.00  0.00    +0.000 C 
ATOM     19  C   UNL     1       4.153   4.113  18.912  0.00  0.00    +0.000 C 
BRANCH  19  20
ATOM     20  C   UNL     1       5.093   4.276  17.707  0.00  0.00    +0.000 A 
ATOM     21  C   UNL     1       6.464   4.522  17.933  0.00  0.00    +0.000 A 
ATOM     22  C   UNL     1       7.376   4.629  16.872  0.00  0.00    +0.000 A 
ATOM     23  C   UNL     1       6.939   4.487  15.560  0.00  0.00    +0.000 A 
ATOM     24  C   UNL     1       5.595   4.250  15.322  0.00  0.00    +0.000 A 
ATOM     25  F   UNL     1       5.164   4.100  14.063  0.00  0.00    +0.000 F 
ATOM     26  C   UNL     1       4.681   4.153  16.371  0.00  0.00    +0.000 A 
ENDBRANCH  19  20
ENDBRANCH   1  14
TORSDOF 3
ENDMDL
MODEL 4
REMARK VINA RESULT:      -8.6      3.374      6.672
REMARK  Name = 
REMARK  4 active torsions:
REMARK  status: ('A' for Active; 'I' for Inactive)
REMARK    1  A    between atoms: C_1  and  C_2
REMARK    2  A    between atoms: C_6  and  C_7
REMARK    3  A    between atoms: C_7  and  N_8
REMARK    4  A    between atoms: C_13  and  C_14
REMARK                            x       y       z     vdW  Elec       q    Type
REMARK                         _______ _______ _______ _____ _____    ______ ____
ROOT
ATOM      1  C   UNL     1       3.594   5.793  19.783  0.00  0.00    +0.000 C 
ENDROOT
BRANCH   1   7
ATOM      2  C   UNL     1      -1.062  11.375  21.448  0.00  0.00    +0.000 C 
ATOM      3  C   UNL     1      -0.140  10.306  20.984  0.00  0.00    +0.000 A 
ATOM      4  C   UNL     1       0.288   9.127  21.657  0.00  0.00    +0.000 A 
ATOM      5  C   UNL     1       1.122   8.490  20.773  0.00  0.00    +0.000 A 
ATOM      6  N   UNL     1       1.865   7.356  20.782  0.00  0.00    +0.000 N 
ATOM      7  C   UNL     1       2.617   6.963  19.667  0.00  0.00    +0.000 A 
ATOM      8  C   UNL     1       2.576   7.672  18.521  0.00  0.00    +0.000 A 
ATOM      9  C   UNL     1       1.786   8.925  18.433  0.00  0.00    +0.000 A 
ATOM     10  O   UNL     1       1.734   9.616  17.425  0.00  0.00    +0.000 OA
ATOM     11  N   UNL     1       1.120   9.264  19.621  0.00  0.00    +0.000 N 
ATOM     12  N   UNL     1       0.389  10.400  19.759  0.00  0.00    +0.000 NA
ATOM     13  H   UNL     1       1.897   6.709  21.573  0.00  0.00    +0.000 HD
ENDBRANCH   1   7
BRANCH   1  14
ATOM     14  N   UNL     1       3.090   4.467  19.401  0.00  0.00    +0.000 NA
ATOM     15  C   UNL     1       1.914   4.539  18.528  0.00  0.00    +0.000 C 
ATOM     16  C   UNL     1       1.362   3.161  18.135  0.00  0.00    +0.000 C 
ATOM     17  C   UNL     1       2.414   2.149  17.689  0.00  0.00    +0.000 C 
ATOM     18  C   UNL     1       3.646   2.190  18.581  0.00  0.00    +0.000 C 
ATOM     19  C   UNL     1       4.174   3.612  18.849  0.00  0.00    +0.000 C 
BRANCH  19  20
ATOM     20  C   UNL     1       5.004   4.172  17.683  0.00  0.00    +0.000 A 
ATOM     21  C   UNL     1       4.696   3.775  16.365  0.00  0.00    +0.000 A 
ATOM     22  C   UNL     1       5.387   4.294  15.260  0.00  0.00    +0.000 A 
ATOM     23  C   UNL     1       6.400   5.226  15.447  0.00  0.00    +0.000 A 
ATOM     24  C   UNL     1       6.718   5.623  16.736  0.00  0.00    +0.000 A 
ATOM     25  F   UNL     1       7.684   6.530  16.928  0.00  0.00    +0.000 F 
ATOM     26  C   UNL     1       6.042   5.104  17.840  0.00  0.00    +0.000 A 
ENDBRANCH  19  20
ENDBRANCH   1  14
TORSDOF 3
ENDMDL
MODEL 5
REMARK VINA RESULT:      -8.6      3.741      7.213
REMARK  Name = 
REMARK  4 active torsions:
REMARK  status: ('A' for Active; 'I' for Inactive)
REMARK    1  A    between atoms: C_1  and  C_2
REMARK    2  A    between atoms: C_6  and  C_7
REMARK    3  A    between atoms: C_7  and  N_8
REMARK    4  A    between atoms: C_13  and  C_14
REMARK                            x       y       z     vdW  Elec       q    Type
REMARK                         _______ _______ _______ _____ _____    ______ ____
ROOT
ATOM      1  C   UNL     1       3.109   6.413  19.331  0.00  0.00    +0.000 C 
ENDROOT
BRANCH   1   7
ATOM      2  C   UNL     1      -1.247  11.180  23.061  0.00  0.00    +0.000 C 
ATOM      3  C   UNL     1      -0.411  10.301  22.202  0.00  0.00    +0.000 A 
ATOM      4  C   UNL     1       0.160   9.030  22.496  0.00  0.00    +0.000 A 
ATOM      5  C   UNL     1       0.822   8.661  21.351  0.00  0.00    +0.000 A 
ATOM      6  N   UNL     1       1.574   7.602  20.963  0.00  0.00    +0.000 N 
ATOM      7  C   UNL     1       2.106   7.516  19.669  0.00  0.00    +0.000 A 
ATOM      8  C   UNL     1       1.833   8.460  18.746  0.00  0.00    +0.000 A 
ATOM      9  C   UNL     1       1.018   9.649  19.095  0.00  0.00    +0.000 A 
ATOM     10  O   UNL     1       0.762  10.544  18.302  0.00  0.00    +0.000 OA
ATOM     11  N   UNL     1       0.585   9.671  20.430  0.00  0.00    +0.000 N 
ATOM     12  N   UNL     1      -0.127  10.700  20.958  0.00  0.00    +0.000 NA
ATOM     13  H   UNL     1       1.768   6.797  21.562  0.00  0.00    +0.000 HD
ENDBRANCH   1   7
BRANCH   1  14
ATOM     14  N   UNL     1       2.603   5.033  19.329  0.00  0.00    +0.000 NA
ATOM     15  C   UNL     1       1.685   4.770  18.217  0.00  0.00    +0.000 C 
ATOM     16  C   UNL     1       1.131   3.337  18.210  0.00  0.00    +0.000 C 
ATOM     17  C   UNL     1       2.172   2.244  18.437  0.00  0.00    +0.000 C 
ATOM     18  C   UNL     1       3.149   2.620  19.542  0.00  0.00    +0.000 C 
ATOM     19  C   UNL     1       3.713   4.048  19.414  0.00  0.00    +0.000 C 
BRANCH  19  20
ATOM     20  C   UNL     1       4.846   4.154  18.380  0.00  0.00    +0.000 A 
ATOM     21  C   UNL     1       4.583   3.823  17.035  0.00  0.00    +0.000 A 
ATOM     22  C   UNL     1       5.564   3.950  16.041  0.00  0.00    +0.000 A 
ATOM     23  C   UNL     1       6.832   4.417  16.369  0.00  0.00    +0.000 A 
ATOM     24  C   UNL     1       7.107   4.742  17.688  0.00  0.00    +0.000 A 
ATOM     25  F   UNL     1       8.321   5.204  18.013  0.00  0.00    +0.000 F 
ATOM     26  C   UNL     1       6.139   4.608  18.683  0.00  0.00    +0.000 A 
ENDBRANCH  19  20
ENDBRANCH   1  14
TORSDOF 3
ENDMDL
MODEL 6
REMARK VINA RESULT:      -8.4      3.960      7.155
REMARK  Name = 
REMARK  4 active torsions:
REMARK  status: ('A' for Active; 'I' for Inactive)
REMARK    1  A    between atoms: C_1  and  C_2
REMARK    2  A    between atoms: C_6  and  C_7
REMARK    3  A    between atoms: C_7  and  N_8
REMARK    4  A    between atoms: C_13  and  C_14
REMARK                            x       y       z     vdW  Elec       q    Type
REMARK                         _______ _______ _______ _____ _____    ______ ____
ROOT
ATOM      1  C   UNL     1       2.998   6.728  18.408  0.00  0.00    +0.000 C 
ENDROOT
BRANCH   1   7
ATOM      2  C   UNL     1      -1.694  12.398  19.613  0.00  0.00    +0.000 C 
ATOM      3  C   UNL     1      -0.752  11.253  19.511  0.00  0.00    +0.000 A 
ATOM      4  C   UNL     1       0.011  10.807  18.394  0.00  0.00    +0.000 A 
ATOM      5  C   UNL     1       0.716   9.722  18.851  0.00  0.00    +0.000 A 
ATOM      6  N   UNL     1       1.595   8.839  18.316  0.00  0.00    +0.000 N 
ATOM      7  C   UNL     1       2.171   7.821  19.087  0.00  0.00    +0.000 A 
ATOM      8  C   UNL     1       1.916   7.724  20.407  0.00  0.00    +0.000 A 
ATOM      9  C   UNL     1       0.965   8.652  21.065  0.00  0.00    +0.000 A 
ATOM     10  O   UNL     1       0.680   8.593  22.253  0.00  0.00    +0.000 OA
ATOM     11  N   UNL     1       0.395   9.596  20.196  0.00  0.00    +0.000 N 
ATOM     12  N   UNL     1      -0.539  10.498  20.594  0.00  0.00    +0.000 NA
ATOM     13  H   UNL     1       1.916   8.879  17.347  0.00  0.00    +0.000 HD
ENDBRANCH   1   7
BRANCH   1  14
ATOM     14  N   UNL     1       2.702   5.339  18.788  0.00  0.00    +0.000 NA
ATOM     15  C   UNL     1       1.765   4.688  17.867  0.00  0.00    +0.000 C 
ATOM     16  C   UNL     1       1.430   3.242  18.260  0.00  0.00    +0.000 C 
ATOM     17  C   UNL     1       2.633   2.384  18.642  0.00  0.00    +0.000 C 
ATOM     18  C   UNL     1       3.611   3.148  19.523  0.00  0.00    +0.000 C 
ATOM     19  C   UNL     1       3.949   4.557  19.000  0.00  0.00    +0.000 C 
BRANCH  19  20
ATOM     20  C   UNL     1       4.986   4.543  17.866  0.00  0.00    +0.000 A 
ATOM     21  C   UNL     1       6.352   4.705  18.181  0.00  0.00    +0.000 A 
ATOM     22  C   UNL     1       7.346   4.649  17.193  0.00  0.00    +0.000 A 
ATOM     23  C   UNL     1       6.998   4.425  15.866  0.00  0.00    +0.000 A 
ATOM     24  C   UNL     1       5.660   4.268  15.540  0.00  0.00    +0.000 A 
ATOM     25  F   UNL     1       5.314   4.040  14.267  0.00  0.00    +0.000 F 
ATOM     26  C   UNL     1       4.665   4.333  16.516  0.00  0.00    +0.000 A 
ENDBRANCH  19  20
ENDBRANCH   1  14
TORSDOF 3
ENDMDL
MODEL 7
REMARK VINA RESULT:      -8.2      3.959      7.148
REMARK  Name = 
REMARK  4 active torsions:
REMARK  status: ('A' for Active; 'I' for Inactive)
REMARK    1  A    between atoms: C_1  and  C_2
REMARK    2  A    between atoms: C_6  and  C_7
REMARK    3  A    between atoms: C_7  and  N_8
REMARK    4  A    between atoms: C_13  and  C_14
REMARK                            x       y       z     vdW  Elec       q    Type
REMARK                         _______ _______ _______ _____ _____    ______ ____
ROOT
ATOM      1  C   UNL     1       2.762   6.889  18.555  0.00  0.00    +0.000 C 
ENDROOT
BRANCH   1   7
ATOM      2  C   UNL     1      -1.781  12.668  19.808  0.00  0.00    +0.000 C 
ATOM      3  C   UNL     1      -0.866  11.502  19.697  0.00  0.00    +0.000 A 
ATOM      4  C   UNL     1      -0.136  11.031  18.569  0.00  0.00    +0.000 A 
ATOM      5  C   UNL     1       0.555   9.935  19.020  0.00  0.00    +0.000 A 
ATOM      6  N   UNL     1       1.404   9.029  18.475  0.00  0.00    +0.000 N 
ATOM      7  C   UNL     1       1.973   8.005  19.242  0.00  0.00    +0.000 A 
ATOM      8  C   UNL     1       1.742   7.923  20.567  0.00  0.00    +0.000 A 
ATOM      9  C   UNL     1       0.825   8.877  21.237  0.00  0.00    +0.000 A 
ATOM     10  O   UNL     1       0.564   8.833  22.431  0.00  0.00    +0.000 OA
ATOM     11  N   UNL     1       0.258   9.826  20.371  0.00  0.00    +0.000 N 
ATOM     12  N   UNL     1      -0.648  10.751  20.781  0.00  0.00    +0.000 NA
ATOM     13  H   UNL     1       1.706   9.055  17.498  0.00  0.00    +0.000 HD
ENDBRANCH   1   7
BRANCH   1  14
ATOM     14  N   UNL     1       2.435   5.509  18.942  0.00  0.00    +0.000 NA
ATOM     15  C   UNL     1       1.845   4.739  17.843  0.00  0.00    +0.000 C 
ATOM     16  C   UNL     1       1.479   3.300  18.235  0.00  0.00    +0.000 C 
ATOM     17  C   UNL     1       2.555   2.553  19.018  0.00  0.00    +0.000 C 
ATOM     18  C   UNL     1       3.191   3.437  20.082  0.00  0.00    +0.000 C 
ATOM     19  C   UNL     1       3.599   4.831  19.569  0.00  0.00    +0.000 C 
BRANCH  19  20
ATOM     20  C   UNL     1       4.925   4.818  18.792  0.00  0.00    +0.000 A 
ATOM     21  C   UNL     1       4.960   4.252  17.500  0.00  0.00    +0.000 A 
ATOM     22  C   UNL     1       6.130   4.259  16.726  0.00  0.00    +0.000 A 
ATOM     23  C   UNL     1       7.292   4.838  17.224  0.00  0.00    +0.000 A 
ATOM     24  C   UNL     1       7.274   5.395  18.493  0.00  0.00    +0.000 A 
ATOM     25  F   UNL     1       8.384   5.966  18.978  0.00  0.00    +0.000 F 
ATOM     26  C   UNL     1       6.118   5.382  19.272  0.00  0.00    +0.000 A 
ENDBRANCH  19  20
ENDBRANCH   1  14
TORSDOF 3
ENDMDL
MODEL 8
REMARK VINA RESULT:      -7.9      3.436      6.924
REMARK  Name = 
REMARK  4 active torsions:
REMARK  status: ('A' for Active; 'I' for Inactive)
REMARK    1  A    between atoms: C_1  and  C_2
REMARK    2  A    between atoms: C_6  and  C_7
REMARK    3  A    between atoms: C_7  and  N_8
REMARK    4  A    between atoms: C_13  and  C_14
REMARK                            x       y       z     vdW  Elec       q    Type
REMARK                         _______ _______ _______ _____ _____    ______ ____
ROOT
ATOM      1  C   UNL     1       3.592   6.119  19.660  0.00  0.00    +0.000 C 
ENDROOT
BRANCH   1   7
ATOM      2  C   UNL     1      -1.156  11.633  21.295  0.00  0.00    +0.000 C 
ATOM      3  C   UNL     1      -0.213  10.578  20.838  0.00  0.00    +0.000 A 
ATOM      4  C   UNL     1       0.211   9.394  21.504  0.00  0.00    +0.000 A 
ATOM      5  C   UNL     1       1.071   8.778  20.630  0.00  0.00    +0.000 A 
ATOM      6  N   UNL     1       1.825   7.651  20.641  0.00  0.00    +0.000 N 
ATOM      7  C   UNL     1       2.606   7.282  19.538  0.00  0.00    +0.000 A 
ATOM      8  C   UNL     1       2.585   8.007  18.402  0.00  0.00    +0.000 A 
ATOM      9  C   UNL     1       1.786   9.254  18.313  0.00  0.00    +0.000 A 
ATOM     10  O   UNL     1       1.751   9.960  17.315  0.00  0.00    +0.000 OA
ATOM     11  N   UNL     1       1.089   9.569  19.490  0.00  0.00    +0.000 N 
ATOM     12  N   UNL     1       0.344  10.696  19.628  0.00  0.00    +0.000 NA
ATOM     13  H   UNL     1       1.844   6.992  21.422  0.00  0.00    +0.000 HD
ENDBRANCH   1   7
BRANCH   1  14
ATOM     14  N   UNL     1       4.508   5.905  18.531  0.00  0.00    +0.000 NA
ATOM     15  C   UNL     1       5.798   5.345  18.948  0.00  0.00    +0.000 C 
ATOM     16  C   UNL     1       6.775   5.132  17.783  0.00  0.00    +0.000 C 
ATOM     17  C   UNL     1       6.171   4.467  16.550  0.00  0.00    +0.000 C 
ATOM     18  C   UNL     1       4.795   5.030  16.225  0.00  0.00    +0.000 C 
ATOM     19  C   UNL     1       3.859   5.126  17.445  0.00  0.00    +0.000 C 
BRANCH  19  20
ATOM     20  C   UNL     1       3.217   3.779  17.814  0.00  0.00    +0.000 A 
ATOM     21  C   UNL     1       4.040   2.644  17.970  0.00  0.00    +0.000 A 
ATOM     22  C   UNL     1       3.515   1.403  18.357  0.00  0.00    +0.000 A 
ATOM     23  C   UNL     1       2.153   1.268  18.601  0.00  0.00    +0.000 A 
ATOM     24  C   UNL     1       1.331   2.372  18.448  0.00  0.00    +0.000 A 
ATOM     25  F   UNL     1       0.019   2.257  18.692  0.00  0.00    +0.000 F 
ATOM     26  C   UNL     1       1.844   3.607  18.054  0.00  0.00    +0.000 A 
ENDBRANCH  19  20
ENDBRANCH   1  14
TORSDOF 3
ENDMDL
MODEL 9
REMARK VINA RESULT:      -7.7      4.077      7.405
REMARK  Name = 
REMARK  4 active torsions:
REMARK  status: ('A' for Active; 'I' for Inactive)
REMARK    1  A    between atoms: C_1  and  C_2
REMARK    2  A    between atoms: C_6  and  C_7
REMARK    3  A    between atoms: C_7  and  N_8
REMARK    4  A    between atoms: C_13  and  C_14
REMARK                            x       y       z     vdW  Elec       q    Type
REMARK                         _______ _______ _______ _____ _____    ______ ____
ROOT
ATOM      1  C   UNL     1       3.178   7.036  19.074  0.00  0.00    +0.000 C 
ENDROOT
BRANCH   1   7
ATOM      2  C   UNL     1      -1.459  11.147  23.221  0.00  0.00    +0.000 C 
ATOM      3  C   UNL     1      -0.594  10.386  22.283  0.00  0.00    +0.000 A 
ATOM      4  C   UNL     1       0.232   9.253  22.532  0.00  0.00    +0.000 A 
ATOM      5  C   UNL     1       0.797   8.947  21.320  0.00  0.00    +0.000 A 
ATOM      6  N   UNL     1       1.674   8.019  20.863  0.00  0.00    +0.000 N 
ATOM      7  C   UNL     1       2.042   7.960  19.513  0.00  0.00    +0.000 A 
ATOM      8  C   UNL     1       1.485   8.790  18.608  0.00  0.00    +0.000 A 
ATOM      9  C   UNL     1       0.519   9.833  19.030  0.00  0.00    +0.000 A 
ATOM     10  O   UNL     1       0.003  10.625  18.254  0.00  0.00    +0.000 OA
ATOM     11  N   UNL     1       0.264   9.849  20.410  0.00  0.00    +0.000 N 
ATOM     12  N   UNL     1      -0.550  10.762  21.000  0.00  0.00    +0.000 NA
ATOM     13  H   UNL     1       2.087   7.294  21.454  0.00  0.00    +0.000 HD
ENDBRANCH   1   7
BRANCH   1  14
ATOM     14  N   UNL     1       3.032   5.608  19.391  0.00  0.00    +0.000 NA
ATOM     15  C   UNL     1       1.789   5.036  18.865  0.00  0.00    +0.000 C 
ATOM     16  C   UNL     1       1.611   3.548  19.204  0.00  0.00    +0.000 C 
ATOM     17  C   UNL     1       2.848   2.684  18.973  0.00  0.00    +0.000 C 
ATOM     18  C   UNL     1       4.115   3.374  19.457  0.00  0.00    +0.000 C 
ATOM     19  C   UNL     1       4.241   4.838  18.996  0.00  0.00    +0.000 C 
BRANCH  19  20
ATOM     20  C   UNL     1       4.730   4.968  17.544  0.00  0.00    +0.000 A 
ATOM     21  C   UNL     1       4.748   6.241  16.936  0.00  0.00    +0.000 A 
ATOM     22  C   UNL     1       5.232   6.426  15.633  0.00  0.00    +0.000 A 
ATOM     23  C   UNL     1       5.714   5.342  14.908  0.00  0.00    +0.000 A 
ATOM     24  C   UNL     1       5.698   4.084  15.490  0.00  0.00    +0.000 A 
ATOM     25  F   UNL     1       6.170   3.035  14.805  0.00  0.00    +0.000 F 
ATOM     26  C   UNL     1       5.209   3.891  16.782  0.00  0.00    +0.000 A 
ENDBRANCH  19  20
ENDBRANCH   1  14
TORSDOF 3
ENDMDL
