MODEL 1
REMARK VINA RESULT:      -7.5      0.000      0.000
REMARK  Name = 
REMARK  12 active torsions:
REMARK  status: ('A' for Active; 'I' for Inactive)
REMARK    1  A    between atoms: C_1  and  C_2
REMARK    2  A    between atoms: C_5  and  O_6
REMARK    3  A    between atoms: O_6  and  C_7
REMARK    4  A    between atoms: C_7  and  C_8
REMARK    5  A    between atoms: C_8  and  C_9
REMARK    6  A    between atoms: C_9  and  O_11
REMARK    7  A    between atoms: O_11  and  C_12
REMARK    8  A    between atoms: C_12  and  C_13
REMARK    9  A    between atoms: C_16  and  C_17
REMARK   10  A    between atoms: C_17  and  C_18
REMARK   11  A    between atoms: N_20  and  C_21
REMARK   12  A    between atoms: C_26  and  C_27
REMARK                            x       y       z     vdW  Elec       q    Type
REMARK                         _______ _______ _______ _____ _____    ______ ____
ROOT
ATOM      1  C   UNL     1       2.193   6.785  19.853  0.00  0.00    +0.000 A 
ATOM      2  C   UNL     1       3.048   6.505  18.803  0.00  0.00    +0.000 A 
ATOM      3  S   UNL     1       3.067   7.794  17.681  0.00  0.00    +0.000 S 
ATOM      4  C   UNL     1       1.944   8.649  18.661  0.00  0.00    +0.000 A 
ATOM      5  N   UNL     1       1.603   8.048  19.785  0.00  0.00    +0.000 NA
ENDROOT
BRANCH   1   6
ATOM      6  C   UNL     1       1.840   5.878  20.996  0.00  0.00    +0.000 C 
BRANCH   6   7
ATOM      7  O   UNL     1       1.011   4.762  20.612  0.00  0.00    +0.000 OA
BRANCH   7   8
ATOM      8  C   UNL     1       1.493   3.543  20.982  0.00  0.00    +0.000 C 
ATOM      9  O   UNL     1       2.080   3.314  22.035  0.00  0.00    +0.000 OA
BRANCH   8  10
ATOM     10  C   UNL     1       1.195   2.516  19.931  0.00  0.00    +0.000 C 
BRANCH  10  11
ATOM     11  C   UNL     1       1.522   3.084  18.555  0.00  0.00    +0.000 C 
BRANCH  11  12
ATOM     12  O   UNL     1       2.653   2.397  18.009  0.00  0.00    +0.000 OA
BRANCH  12  17
ATOM     13  C   UNL     1       7.453   5.433  17.734  0.00  0.00    +0.000 C 
ATOM     14  C   UNL     1       6.192   4.625  17.821  0.00  0.00    +0.000 A 
ATOM     15  C   UNL     1       5.464   4.289  16.675  0.00  0.00    +0.000 A 
ATOM     16  C   UNL     1       4.283   3.545  16.779  0.00  0.00    +0.000 A 
ATOM     17  C   UNL     1       3.825   3.111  18.023  0.00  0.00    +0.000 A 
ATOM     18  C   UNL     1       4.543   3.456  19.170  0.00  0.00    +0.000 A 
ATOM     19  C   UNL     1       5.719   4.206  19.068  0.00  0.00    +0.000 A 
ENDBRANCH  12  17
ENDBRANCH  11  12
ENDBRANCH  10  11
ENDBRANCH   8  10
ENDBRANCH   7   8
ENDBRANCH   6   7
ENDBRANCH   1   6
BRANCH   4  20
ATOM     20  C   UNL     1       1.367   9.943  18.197  0.00  0.00    +0.000 C 
BRANCH  20  21
ATOM     21  C   UNL     1       0.186  10.334  19.053  0.00  0.00    +0.000 C 
ATOM     22  O   UNL     1      -0.966  10.125  18.681  0.00  0.00    +0.000 OA
ATOM     23  N   UNL     1       0.543  10.941  20.249  0.00  0.00    +0.000 N 
ATOM     24  H   UNL     1       1.433  11.427  20.240  0.00  0.00    +0.000 HD
BRANCH  23  25
ATOM     25  C   UNL     1      -0.413  11.364  21.196  0.00  0.00    +0.000 A 
ATOM     26  C   UNL     1      -1.187  12.509  20.961  0.00  0.00    +0.000 A 
ATOM     27  C   UNL     1      -2.144  12.919  21.890  0.00  0.00    +0.000 A 
ATOM     28  C   UNL     1      -2.328  12.192  23.061  0.00  0.00    +0.000 A 
ATOM     29  C   UNL     1      -1.562  11.050  23.301  0.00  0.00    +0.000 A 
ATOM     30  C   UNL     1      -0.601  10.619  22.372  0.00  0.00    +0.000 A 
ATOM     31  C   UNL     1       0.257   9.429  22.698  0.00  0.00    +0.000 C 
ENDBRANCH  23  25
ENDBRANCH  20  21
ENDBRANCH   4  20
TORSDOF 10
ENDMDL
MODEL 2
REMARK VINA RESULT:      -7.2      2.392      3.420
REMARK  Name = 
REMARK  12 active torsions:
REMARK  status: ('A' for Active; 'I' for Inactive)
REMARK    1  A    between atoms: C_1  and  C_2
REMARK    2  A    between atoms: C_5  and  O_6
REMARK    3  A    between atoms: O_6  and  C_7
REMARK    4  A    between atoms: C_7  and  C_8
REMARK    5  A    between atoms: C_8  and  C_9
REMARK    6  A    between atoms: C_9  and  O_11
REMARK    7  A    between atoms: O_11  and  C_12
REMARK    8  A    between atoms: C_12  and  C_13
REMARK    9  A    between atoms: C_16  and  C_17
REMARK   10  A    between atoms: C_17  and  C_18
REMARK   11  A    between atoms: N_20  and  C_21
REMARK   12  A    between atoms: C_26  and  C_27
REMARK                            x       y       z     vdW  Elec       q    Type
REMARK                         _______ _______ _______ _____ _____    ______ ____
ROOT
ATOM      1  C   UNL     1       1.987   7.007  20.012  0.00  0.00    +0.000 A 
ATOM      2  C   UNL     1       2.359   7.313  18.716  0.00  0.00    +0.000 A 
ATOM      3  S   UNL     1       1.943   8.926  18.333  0.00  0.00    +0.000 S 
ATOM      4  C   UNL     1       1.300   9.123  19.914  0.00  0.00    +0.000 A 
ATOM      5  N   UNL     1       1.424   8.078  20.709  0.00  0.00    +0.000 NA
ENDROOT
BRANCH   1   6
ATOM      6  C   UNL     1       2.105   5.676  20.695  0.00  0.00    +0.000 C 
BRANCH   6   7
ATOM      7  O   UNL     1       1.080   4.736  20.311  0.00  0.00    +0.000 OA
BRANCH   7   8
ATOM      8  C   UNL     1       1.500   3.444  20.222  0.00  0.00    +0.000 C 
ATOM      9  O   UNL     1       0.813   2.513  19.812  0.00  0.00    +0.000 OA
BRANCH   8  10
ATOM     10  C   UNL     1       2.923   3.318  20.678  0.00  0.00    +0.000 C 
BRANCH  10  11
ATOM     11  C   UNL     1       3.797   2.883  19.508  0.00  0.00    +0.000 C 
BRANCH  11  12
ATOM     12  O   UNL     1       4.948   3.729  19.429  0.00  0.00    +0.000 OA
BRANCH  12  17
ATOM     13  C   UNL     1       7.017   4.974  14.281  0.00  0.00    +0.000 C 
ATOM     14  C   UNL     1       6.456   4.647  15.632  0.00  0.00    +0.000 A 
ATOM     15  C   UNL     1       7.149   4.966  16.805  0.00  0.00    +0.000 A 
ATOM     16  C   UNL     1       6.613   4.640  18.056  0.00  0.00    +0.000 A 
ATOM     17  C   UNL     1       5.372   4.010  18.154  0.00  0.00    +0.000 A 
ATOM     18  C   UNL     1       4.684   3.678  16.986  0.00  0.00    +0.000 A 
ATOM     19  C   UNL     1       5.223   3.997  15.734  0.00  0.00    +0.000 A 
ENDBRANCH  12  17
ENDBRANCH  11  12
ENDBRANCH  10  11
ENDBRANCH   8  10
ENDBRANCH   7   8
ENDBRANCH   6   7
ENDBRANCH   1   6
BRANCH   4  20
ATOM     20  C   UNL     1       0.594  10.381  20.292  0.00  0.00    +0.000 C 
BRANCH  20  21
ATOM     21  C   UNL     1      -0.229  10.895  19.135  0.00  0.00    +0.000 C 
ATOM     22  O   UNL     1       0.128  11.876  18.487  0.00  0.00    +0.000 OA
ATOM     23  N   UNL     1      -1.389  10.166  18.911  0.00  0.00    +0.000 N 
ATOM     24  H   UNL     1      -1.771   9.698  19.726  0.00  0.00    +0.000 HD
BRANCH  23  25
ATOM     25  C   UNL     1      -2.284  10.475  17.866  0.00  0.00    +0.000 A 
ATOM     26  C   UNL     1      -2.104   9.922  16.590  0.00  0.00    +0.000 A 
ATOM     27  C   UNL     1      -2.999  10.216  15.559  0.00  0.00    +0.000 A 
ATOM     28  C   UNL     1      -4.072  11.068  15.795  0.00  0.00    +0.000 A 
ATOM     29  C   UNL     1      -4.257  11.621  17.064  0.00  0.00    +0.000 A 
ATOM     30  C   UNL     1      -3.372  11.328  18.113  0.00  0.00    +0.000 A 
ATOM     31  C   UNL     1      -3.559  12.001  19.444  0.00  0.00    +0.000 C 
ENDBRANCH  23  25
ENDBRANCH  20  21
ENDBRANCH   4  20
TORSDOF 10
ENDMDL
MODEL 3
REMARK VINA RESULT:      -7.1      2.386      3.274
REMARK  Name = 
REMARK  12 active torsions:
REMARK  status: ('A' for Active; 'I' for Inactive)
REMARK    1  A    between atoms: C_1  and  C_2
REMARK    2  A    between atoms: C_5  and  O_6
REMARK    3  A    between atoms: O_6  and  C_7
REMARK    4  A    between atoms: C_7  and  C_8
REMARK    5  A    between atoms: C_8  and  C_9
REMARK    6  A    between atoms: C_9  and  O_11
REMARK    7  A    between atoms: O_11  and  C_12
REMARK    8  A    between atoms: C_12  and  C_13
REMARK    9  A    between atoms: C_16  and  C_17
REMARK   10  A    between atoms: C_17  and  C_18
REMARK   11  A    between atoms: N_20  and  C_21
REMARK   12  A    between atoms: C_26  and  C_27
REMARK                            x       y       z     vdW  Elec       q    Type
REMARK                         _______ _______ _______ _____ _____    ______ ____
ROOT
ATOM      1  C   UNL     1       2.258   7.228  19.596  0.00  0.00    +0.000 A 
ATOM      2  C   UNL     1       2.578   7.698  18.336  0.00  0.00    +0.000 A 
ATOM      3  S   UNL     1       1.962   9.275  18.104  0.00  0.00    +0.000 S 
ATOM      4  C   UNL     1       1.311   9.241  19.694  0.00  0.00    +0.000 A 
ATOM      5  N   UNL     1       1.571   8.150  20.388  0.00  0.00    +0.000 NA
ENDROOT
BRANCH   1   6
ATOM      6  C   UNL     1       2.547   5.864  20.152  0.00  0.00    +0.000 C 
BRANCH   6   7
ATOM      7  O   UNL     1       1.367   5.056  20.344  0.00  0.00    +0.000 OA
BRANCH   7   8
ATOM      8  C   UNL     1       1.246   4.014  19.476  0.00  0.00    +0.000 C 
ATOM      9  O   UNL     1       0.631   2.978  19.710  0.00  0.00    +0.000 OA
BRANCH   8  10
ATOM     10  C   UNL     1       1.954   4.313  18.189  0.00  0.00    +0.000 C 
BRANCH  10  11
ATOM     11  C   UNL     1       2.463   3.016  17.572  0.00  0.00    +0.000 C 
BRANCH  11  12
ATOM     12  O   UNL     1       3.789   2.750  18.038  0.00  0.00    +0.000 OA
BRANCH  12  17
ATOM     13  C   UNL     1       7.252   7.213  17.382  0.00  0.00    +0.000 C 
ATOM     14  C   UNL     1       6.347   6.031  17.568  0.00  0.00    +0.000 A 
ATOM     15  C   UNL     1       5.626   5.492  16.498  0.00  0.00    +0.000 A 
ATOM     16  C   UNL     1       4.778   4.395  16.696  0.00  0.00    +0.000 A 
ATOM     17  C   UNL     1       4.655   3.813  17.957  0.00  0.00    +0.000 A 
ATOM     18  C   UNL     1       5.364   4.356  19.030  0.00  0.00    +0.000 A 
ATOM     19  C   UNL     1       6.205   5.457  18.834  0.00  0.00    +0.000 A 
ENDBRANCH  12  17
ENDBRANCH  11  12
ENDBRANCH  10  11
ENDBRANCH   8  10
ENDBRANCH   7   8
ENDBRANCH   6   7
ENDBRANCH   1   6
BRANCH   4  20
ATOM     20  C   UNL     1       0.456  10.360  20.185  0.00  0.00    +0.000 C 
BRANCH  20  21
ATOM     21  C   UNL     1      -0.391  10.912  19.063  0.00  0.00    +0.000 C 
ATOM     22  O   UNL     1      -0.099  11.966  18.504  0.00  0.00    +0.000 OA
ATOM     23  N   UNL     1      -1.495  10.125  18.762  0.00  0.00    +0.000 N 
ATOM     24  H   UNL     1      -1.849   9.564  19.529  0.00  0.00    +0.000 HD
BRANCH  23  25
ATOM     25  C   UNL     1      -2.400  10.458  17.734  0.00  0.00    +0.000 A 
ATOM     26  C   UNL     1      -2.242   9.924  16.447  0.00  0.00    +0.000 A 
ATOM     27  C   UNL     1      -3.147  10.242  15.433  0.00  0.00    +0.000 A 
ATOM     28  C   UNL     1      -4.210  11.098  15.696  0.00  0.00    +0.000 A 
ATOM     29  C   UNL     1      -4.375  11.631  16.976  0.00  0.00    +0.000 A 
ATOM     30  C   UNL     1      -3.478  11.315  18.009  0.00  0.00    +0.000 A 
ATOM     31  C   UNL     1      -3.644  11.967  19.353  0.00  0.00    +0.000 C 
ENDBRANCH  23  25
ENDBRANCH  20  21
ENDBRANCH   4  20
TORSDOF 10
ENDMDL
MODEL 4
REMARK VINA RESULT:      -7.0      5.932      9.433
REMARK  Name = 
REMARK  12 active torsions:
REMARK  status: ('A' for Active; 'I' for Inactive)
REMARK    1  A    between atoms: C_1  and  C_2
REMARK    2  A    between atoms: C_5  and  O_6
REMARK    3  A    between atoms: O_6  and  C_7
REMARK    4  A    between atoms: C_7  and  C_8
REMARK    5  A    between atoms: C_8  and  C_9
REMARK    6  A    between atoms: C_9  and  O_11
REMARK    7  A    between atoms: O_11  and  C_12
REMARK    8  A    between atoms: C_12  and  C_13
REMARK    9  A    between atoms: C_16  and  C_17
REMARK   10  A    between atoms: C_17  and  C_18
REMARK   11  A    between atoms: N_20  and  C_21
REMARK   12  A    between atoms: C_26  and  C_27
REMARK                            x       y       z     vdW  Elec       q    Type
REMARK                         _______ _______ _______ _____ _____    ______ ____
ROOT
ATOM      1  C   UNL     1       7.881   8.093  17.841  0.00  0.00    +0.000 A 
ATOM      2  C   UNL     1       8.333   7.139  18.735  0.00  0.00    +0.000 A 
ATOM      3  S   UNL     1       7.531   5.651  18.486  0.00  0.00    +0.000 S 
ATOM      4  C   UNL     1       6.635   6.361  17.203  0.00  0.00    +0.000 A 
ATOM      5  N   UNL     1       6.939   7.615  16.929  0.00  0.00    +0.000 NA
ENDROOT
BRANCH   1   6
ATOM      6  C   UNL     1       8.278   9.539  17.787  0.00  0.00    +0.000 C 
BRANCH   6   7
ATOM      7  O   UNL     1       8.952   9.999  18.977  0.00  0.00    +0.000 OA
BRANCH   7   8
ATOM      8  C   UNL     1       9.648  11.159  18.824  0.00  0.00    +0.000 C 
ATOM      9  O   UNL     1       9.521  11.930  17.877  0.00  0.00    +0.000 OA
BRANCH   8  10
ATOM     10  C   UNL     1      10.580  11.372  19.979  0.00  0.00    +0.000 C 
BRANCH  10  11
ATOM     11  C   UNL     1       9.881  12.193  21.055  0.00  0.00    +0.000 C 
BRANCH  11  12
ATOM     12  O   UNL     1       8.961  11.363  21.770  0.00  0.00    +0.000 OA
BRANCH  12  17
ATOM     13  C   UNL     1       5.669  14.282  25.372  0.00  0.00    +0.000 C 
ATOM     14  C   UNL     1       6.546  13.505  24.435  0.00  0.00    +0.000 A 
ATOM     15  C   UNL     1       6.780  13.944  23.127  0.00  0.00    +0.000 A 
ATOM     16  C   UNL     1       7.592  13.198  22.265  0.00  0.00    +0.000 A 
ATOM     17  C   UNL     1       8.195  12.018  22.702  0.00  0.00    +0.000 A 
ATOM     18  C   UNL     1       7.953  11.571  24.002  0.00  0.00    +0.000 A 
ATOM     19  C   UNL     1       7.135  12.312  24.862  0.00  0.00    +0.000 A 
ENDBRANCH  12  17
ENDBRANCH  11  12
ENDBRANCH  10  11
ENDBRANCH   8  10
ENDBRANCH   7   8
ENDBRANCH   6   7
ENDBRANCH   1   6
BRANCH   4  20
ATOM     20  C   UNL     1       5.549   5.597  16.525  0.00  0.00    +0.000 C 
BRANCH  20  21
ATOM     21  C   UNL     1       4.328   5.513  17.409  0.00  0.00    +0.000 C 
ATOM     22  O   UNL     1       3.511   6.429  17.453  0.00  0.00    +0.000 OA
ATOM     23  N   UNL     1       4.251   4.335  18.140  0.00  0.00    +0.000 N 
ATOM     24  H   UNL     1       5.141   3.893  18.344  0.00  0.00    +0.000 HD
BRANCH  23  25
ATOM     25  C   UNL     1       3.178   4.057  19.011  0.00  0.00    +0.000 A 
ATOM     26  C   UNL     1       2.984   4.825  20.169  0.00  0.00    +0.000 A 
ATOM     27  C   UNL     1       1.913   4.559  21.023  0.00  0.00    +0.000 A 
ATOM     28  C   UNL     1       1.034   3.523  20.731  0.00  0.00    +0.000 A 
ATOM     29  C   UNL     1       1.219   2.756  19.579  0.00  0.00    +0.000 A 
ATOM     30  C   UNL     1       2.287   3.015  18.705  0.00  0.00    +0.000 A 
ATOM     31  C   UNL     1       2.499   2.121  17.515  0.00  0.00    +0.000 C 
ENDBRANCH  23  25
ENDBRANCH  20  21
ENDBRANCH   4  20
TORSDOF 10
ENDMDL
MODEL 5
REMARK VINA RESULT:      -6.9      2.753      4.273
REMARK  Name = 
REMARK  12 active torsions:
REMARK  status: ('A' for Active; 'I' for Inactive)
REMARK    1  A    between atoms: C_1  and  C_2
REMARK    2  A    between atoms: C_5  and  O_6
REMARK    3  A    between atoms: O_6  and  C_7
REMARK    4  A    between atoms: C_7  and  C_8
REMARK    5  A    between atoms: C_8  and  C_9
REMARK    6  A    between atoms: C_9  and  O_11
REMARK    7  A    between atoms: O_11  and  C_12
REMARK    8  A    between atoms: C_12  and  C_13
REMARK    9  A    between atoms: C_16  and  C_17
REMARK   10  A    between atoms: C_17  and  C_18
REMARK   11  A    between atoms: N_20  and  C_21
REMARK   12  A    between atoms: C_26  and  C_27
REMARK                            x       y       z     vdW  Elec       q    Type
REMARK                         _______ _______ _______ _____ _____    ______ ____
ROOT
ATOM      1  C   UNL     1       1.772   8.307  19.127  0.00  0.00    +0.000 A 
ATOM      2  C   UNL     1       1.422   8.280  20.465  0.00  0.00    +0.000 A 
ATOM      3  S   UNL     1       0.926   9.829  20.990  0.00  0.00    +0.000 S 
ATOM      4  C   UNL     1       1.200  10.441  19.408  0.00  0.00    +0.000 A 
ATOM      5  N   UNL     1       1.588   9.549  18.517  0.00  0.00    +0.000 NA
ENDROOT
BRANCH   1   6
ATOM      6  C   UNL     1       2.332   7.175  18.318  0.00  0.00    +0.000 C 
BRANCH   6   7
ATOM      7  O   UNL     1       3.603   7.475  17.706  0.00  0.00    +0.000 OA
BRANCH   7   8
ATOM      8  C   UNL     1       4.524   6.475  17.790  0.00  0.00    +0.000 C 
ATOM      9  O   UNL     1       5.144   6.181  18.807  0.00  0.00    +0.000 OA
BRANCH   8  10
ATOM     10  C   UNL     1       4.664   5.774  16.472  0.00  0.00    +0.000 C 
BRANCH  10  11
ATOM     11  C   UNL     1       4.829   4.277  16.705  0.00  0.00    +0.000 C 
BRANCH  11  12
ATOM     12  O   UNL     1       3.553   3.636  16.627  0.00  0.00    +0.000 OA
BRANCH  12  17
ATOM     13  C   UNL     1       1.431   2.518  21.783  0.00  0.00    +0.000 C 
ATOM     14  C   UNL     1       1.976   2.809  20.416  0.00  0.00    +0.000 A 
ATOM     15  C   UNL     1       3.339   2.675  20.133  0.00  0.00    +0.000 A 
ATOM     16  C   UNL     1       3.829   2.964  18.854  0.00  0.00    +0.000 A 
ATOM     17  C   UNL     1       2.964   3.370  17.838  0.00  0.00    +0.000 A 
ATOM     18  C   UNL     1       1.605   3.517  18.120  0.00  0.00    +0.000 A 
ATOM     19  C   UNL     1       1.116   3.236  19.401  0.00  0.00    +0.000 A 
ENDBRANCH  12  17
ENDBRANCH  11  12
ENDBRANCH  10  11
ENDBRANCH   8  10
ENDBRANCH   7   8
ENDBRANCH   6   7
ENDBRANCH   1   6
BRANCH   4  20
ATOM     20  C   UNL     1       1.065  11.899  19.128  0.00  0.00    +0.000 C 
BRANCH  20  21
ATOM     21  C   UNL     1      -0.322  12.216  18.621  0.00  0.00    +0.000 C 
ATOM     22  O   UNL     1      -0.548  13.243  17.987  0.00  0.00    +0.000 OA
ATOM     23  N   UNL     1      -1.267  11.255  18.955  0.00  0.00    +0.000 N 
ATOM     24  H   UNL     1      -1.069  10.726  19.797  0.00  0.00    +0.000 HD
BRANCH  23  25
ATOM     25  C   UNL     1      -2.617  11.357  18.560  0.00  0.00    +0.000 A 
ATOM     26  C   UNL     1      -3.529  12.093  19.330  0.00  0.00    +0.000 A 
ATOM     27  C   UNL     1      -4.862  12.207  18.932  0.00  0.00    +0.000 A 
ATOM     28  C   UNL     1      -5.292  11.581  17.768  0.00  0.00    +0.000 A 
ATOM     29  C   UNL     1      -4.389  10.849  16.995  0.00  0.00    +0.000 A 
ATOM     30  C   UNL     1      -3.043  10.732  17.377  0.00  0.00    +0.000 A 
ATOM     31  C   UNL     1      -2.118   9.873  16.562  0.00  0.00    +0.000 C 
ENDBRANCH  23  25
ENDBRANCH  20  21
ENDBRANCH   4  20
TORSDOF 10
ENDMDL
MODEL 6
REMARK VINA RESULT:      -6.8      4.299      6.620
REMARK  Name = 
REMARK  12 active torsions:
REMARK  status: ('A' for Active; 'I' for Inactive)
REMARK    1  A    between atoms: C_1  and  C_2
REMARK    2  A    between atoms: C_5  and  O_6
REMARK    3  A    between atoms: O_6  and  C_7
REMARK    4  A    between atoms: C_7  and  C_8
REMARK    5  A    between atoms: C_8  and  C_9
REMARK    6  A    between atoms: C_9  and  O_11
REMARK    7  A    between atoms: O_11  and  C_12
REMARK    8  A    between atoms: C_12  and  C_13
REMARK    9  A    between atoms: C_16  and  C_17
REMARK   10  A    between atoms: C_17  and  C_18
REMARK   11  A    between atoms: N_20  and  C_21
REMARK   12  A    between atoms: C_26  and  C_27
REMARK                            x       y       z     vdW  Elec       q    Type
REMARK                         _______ _______ _______ _____ _____    ______ ____
ROOT
ATOM      1  C   UNL     1       4.470   4.110  17.957  0.00  0.00    +0.000 A 
ATOM      2  C   UNL     1       4.680   2.783  18.287  0.00  0.00    +0.000 A 
ATOM      3  S   UNL     1       3.879   2.390  19.745  0.00  0.00    +0.000 S 
ATOM      4  C   UNL     1       3.298   4.004  19.847  0.00  0.00    +0.000 A 
ATOM      5  N   UNL     1       3.627   4.788  18.839  0.00  0.00    +0.000 NA
ENDROOT
BRANCH   1   6
ATOM      6  C   UNL     1       5.065   4.857  16.800  0.00  0.00    +0.000 C 
BRANCH   6   7
ATOM      7  O   UNL     1       6.374   5.398  17.072  0.00  0.00    +0.000 OA
BRANCH   7   8
ATOM      8  C   UNL     1       6.391   6.731  17.350  0.00  0.00    +0.000 C 
ATOM      9  O   UNL     1       5.513   7.524  17.026  0.00  0.00    +0.000 OA
BRANCH   8  10
ATOM     10  C   UNL     1       7.625   7.093  18.122  0.00  0.00    +0.000 C 
BRANCH  10  11
ATOM     11  C   UNL     1       8.280   8.316  17.493  0.00  0.00    +0.000 C 
BRANCH  11  12
ATOM     12  O   UNL     1       7.912   9.489  18.225  0.00  0.00    +0.000 OA
BRANCH  12  17
ATOM     13  C   UNL     1      12.311  12.755  19.744  0.00  0.00    +0.000 C 
ATOM     14  C   UNL     1      11.153  11.885  19.358  0.00  0.00    +0.000 A 
ATOM     15  C   UNL     1      10.813  11.680  18.016  0.00  0.00    +0.000 A 
ATOM     16  C   UNL     1       9.720  10.874  17.677  0.00  0.00    +0.000 A 
ATOM     17  C   UNL     1       8.966  10.248  18.670  0.00  0.00    +0.000 A 
ATOM     18  C   UNL     1       9.295  10.460  20.010  0.00  0.00    +0.000 A 
ATOM     19  C   UNL     1      10.382  11.272  20.349  0.00  0.00    +0.000 A 
ENDBRANCH  12  17
ENDBRANCH  11  12
ENDBRANCH  10  11
ENDBRANCH   8  10
ENDBRANCH   7   8
ENDBRANCH   6   7
ENDBRANCH   1   6
BRANCH   4  20
ATOM     20  C   UNL     1       2.539   4.459  21.047  0.00  0.00    +0.000 C 
BRANCH  20  21
ATOM     21  C   UNL     1       1.629   5.611  20.693  0.00  0.00    +0.000 C 
ATOM     22  O   UNL     1       0.434   5.433  20.469  0.00  0.00    +0.000 OA
ATOM     23  N   UNL     1       2.279   6.837  20.642  0.00  0.00    +0.000 N 
ATOM     24  H   UNL     1       3.268   6.794  20.419  0.00  0.00    +0.000 HD
BRANCH  23  25
ATOM     25  C   UNL     1       1.602   8.038  20.346  0.00  0.00    +0.000 A 
ATOM     26  C   UNL     1       0.907   8.728  21.349  0.00  0.00    +0.000 A 
ATOM     27  C   UNL     1       0.249   9.924  21.059  0.00  0.00    +0.000 A 
ATOM     28  C   UNL     1       0.276  10.434  19.766  0.00  0.00    +0.000 A 
ATOM     29  C   UNL     1       0.968   9.753  18.763  0.00  0.00    +0.000 A 
ATOM     30  C   UNL     1       1.642   8.553  19.040  0.00  0.00    +0.000 A 
ATOM     31  C   UNL     1       2.312   7.809  17.919  0.00  0.00    +0.000 C 
ENDBRANCH  23  25
ENDBRANCH  20  21
ENDBRANCH   4  20
TORSDOF 10
ENDMDL
MODEL 7
REMARK VINA RESULT:      -6.7      1.107      1.787
REMARK  Name = 
REMARK  12 active torsions:
REMARK  status: ('A' for Active; 'I' for Inactive)
REMARK    1  A    between atoms: C_1  and  C_2
REMARK    2  A    between atoms: C_5  and  O_6
REMARK    3  A    between atoms: O_6  and  C_7
REMARK    4  A    between atoms: C_7  and  C_8
REMARK    5  A    between atoms: C_8  and  C_9
REMARK    6  A    between atoms: C_9  and  O_11
REMARK    7  A    between atoms: O_11  and  C_12
REMARK    8  A    between atoms: C_12  and  C_13
REMARK    9  A    between atoms: C_16  and  C_17
REMARK   10  A    between atoms: C_17  and  C_18
REMARK   11  A    between atoms: N_20  and  C_21
REMARK   12  A    between atoms: C_26  and  C_27
REMARK                            x       y       z     vdW  Elec       q    Type
REMARK                         _______ _______ _______ _____ _____    ______ ____
ROOT
ATOM      1  C   UNL     1       2.309   6.754  19.676  0.00  0.00    +0.000 A 
ATOM      2  C   UNL     1       3.151   6.481  18.614  0.00  0.00    +0.000 A 
ATOM      3  S   UNL     1       3.165   7.781  17.505  0.00  0.00    +0.000 S 
ATOM      4  C   UNL     1       2.056   8.631  18.506  0.00  0.00    +0.000 A 
ATOM      5  N   UNL     1       1.725   8.020  19.628  0.00  0.00    +0.000 NA
ENDROOT
BRANCH   1   6
ATOM      6  C   UNL     1       1.964   5.836  20.813  0.00  0.00    +0.000 C 
BRANCH   6   7
ATOM      7  O   UNL     1       0.799   5.022  20.565  0.00  0.00    +0.000 OA
BRANCH   7   8
ATOM      8  C   UNL     1       1.054   3.848  19.924  0.00  0.00    +0.000 C 
ATOM      9  O   UNL     1       0.878   3.654  18.725  0.00  0.00    +0.000 OA
BRANCH   8  10
ATOM     10  C   UNL     1       1.592   2.828  20.883  0.00  0.00    +0.000 C 
BRANCH  10  11
ATOM     11  C   UNL     1       3.107   2.746  20.743  0.00  0.00    +0.000 C 
BRANCH  11  12
ATOM     12  O   UNL     1       3.443   2.236  19.449  0.00  0.00    +0.000 OA
BRANCH  12  17
ATOM     13  C   UNL     1       6.758   5.473  16.154  0.00  0.00    +0.000 C 
ATOM     14  C   UNL     1       5.896   4.618  17.034  0.00  0.00    +0.000 A 
ATOM     15  C   UNL     1       4.837   3.870  16.509  0.00  0.00    +0.000 A 
ATOM     16  C   UNL     1       4.037   3.088  17.350  0.00  0.00    +0.000 A 
ATOM     17  C   UNL     1       4.295   3.026  18.719  0.00  0.00    +0.000 A 
ATOM     18  C   UNL     1       5.344   3.781  19.248  0.00  0.00    +0.000 A 
ATOM     19  C   UNL     1       6.139   4.569  18.410  0.00  0.00    +0.000 A 
ENDBRANCH  12  17
ENDBRANCH  11  12
ENDBRANCH  10  11
ENDBRANCH   8  10
ENDBRANCH   7   8
ENDBRANCH   6   7
ENDBRANCH   1   6
BRANCH   4  20
ATOM     20  C   UNL     1       1.480   9.933  18.062  0.00  0.00    +0.000 C 
BRANCH  20  21
ATOM     21  C   UNL     1       0.979  10.723  19.247  0.00  0.00    +0.000 C 
ATOM     22  O   UNL     1       1.623  11.665  19.703  0.00  0.00    +0.000 OA
ATOM     23  N   UNL     1      -0.236  10.269  19.744  0.00  0.00    +0.000 N 
ATOM     24  H   UNL     1      -0.429   9.286  19.583  0.00  0.00    +0.000 HD
BRANCH  23  25
ATOM     25  C   UNL     1      -0.881  10.883  20.837  0.00  0.00    +0.000 A 
ATOM     26  C   UNL     1      -0.622  10.455  22.147  0.00  0.00    +0.000 A 
ATOM     27  C   UNL     1      -1.248  11.073  23.230  0.00  0.00    +0.000 A 
ATOM     28  C   UNL     1      -2.142  12.115  23.011  0.00  0.00    +0.000 A 
ATOM     29  C   UNL     1      -2.402  12.548  21.710  0.00  0.00    +0.000 A 
ATOM     30  C   UNL     1      -1.773  11.943  20.610  0.00  0.00    +0.000 A 
ATOM     31  C   UNL     1      -2.136  12.384  19.219  0.00  0.00    +0.000 C 
ENDBRANCH  23  25
ENDBRANCH  20  21
ENDBRANCH   4  20
TORSDOF 10
ENDMDL
MODEL 8
REMARK VINA RESULT:      -6.7      2.884      3.891
REMARK  Name = 
REMARK  12 active torsions:
REMARK  status: ('A' for Active; 'I' for Inactive)
REMARK    1  A    between atoms: C_1  and  C_2
REMARK    2  A    between atoms: C_5  and  O_6
REMARK    3  A    between atoms: O_6  and  C_7
REMARK    4  A    between atoms: C_7  and  C_8
REMARK    5  A    between atoms: C_8  and  C_9
REMARK    6  A    between atoms: C_9  and  O_11
REMARK    7  A    between atoms: O_11  and  C_12
REMARK    8  A    between atoms: C_12  and  C_13
REMARK    9  A    between atoms: C_16  and  C_17
REMARK   10  A    between atoms: C_17  and  C_18
REMARK   11  A    between atoms: N_20  and  C_21
REMARK   12  A    between atoms: C_26  and  C_27
REMARK                            x       y       z     vdW  Elec       q    Type
REMARK                         _______ _______ _______ _____ _____    ______ ____
ROOT
ATOM      1  C   UNL     1       2.016   7.659  19.593  0.00  0.00    +0.000 A 
ATOM      2  C   UNL     1       2.314   8.055  18.302  0.00  0.00    +0.000 A 
ATOM      3  S   UNL     1       1.716   9.627  17.999  0.00  0.00    +0.000 S 
ATOM      4  C   UNL     1       1.102   9.690  19.603  0.00  0.00    +0.000 A 
ATOM      5  N   UNL     1       1.362   8.633  20.349  0.00  0.00    +0.000 NA
ENDROOT
BRANCH   1   6
ATOM      6  C   UNL     1       2.298   6.323  20.215  0.00  0.00    +0.000 C 
BRANCH   6   7
ATOM      7  O   UNL     1       1.901   5.207  19.392  0.00  0.00    +0.000 OA
BRANCH   7   8
ATOM      8  C   UNL     1       2.867   4.265  19.207  0.00  0.00    +0.000 C 
ATOM      9  O   UNL     1       3.777   4.034  19.997  0.00  0.00    +0.000 OA
BRANCH   8  10
ATOM     10  C   UNL     1       2.656   3.539  17.912  0.00  0.00    +0.000 C 
BRANCH  10  11
ATOM     11  C   UNL     1       3.990   3.009  17.400  0.00  0.00    +0.000 C 
BRANCH  11  12
ATOM     12  O   UNL     1       4.475   3.859  16.357  0.00  0.00    +0.000 OA
BRANCH  12  17
ATOM     13  C   UNL     1       8.015   8.013  17.954  0.00  0.00    +0.000 C 
ATOM     14  C   UNL     1       7.094   6.907  17.532  0.00  0.00    +0.000 A 
ATOM     15  C   UNL     1       5.883   7.176  16.886  0.00  0.00    +0.000 A 
ATOM     16  C   UNL     1       5.032   6.129  16.511  0.00  0.00    +0.000 A 
ATOM     17  C   UNL     1       5.388   4.803  16.758  0.00  0.00    +0.000 A 
ATOM     18  C   UNL     1       6.590   4.532  17.413  0.00  0.00    +0.000 A 
ATOM     19  C   UNL     1       7.437   5.578  17.795  0.00  0.00    +0.000 A 
ENDBRANCH  12  17
ENDBRANCH  11  12
ENDBRANCH  10  11
ENDBRANCH   8  10
ENDBRANCH   7   8
ENDBRANCH   6   7
ENDBRANCH   1   6
BRANCH   4  20
ATOM     20  C   UNL     1       0.276  10.847  20.052  0.00  0.00    +0.000 C 
BRANCH  20  21
ATOM     21  C   UNL     1       1.086  12.121  20.020  0.00  0.00    +0.000 C 
ATOM     22  O   UNL     1       1.774  12.462  20.979  0.00  0.00    +0.000 OA
ATOM     23  N   UNL     1       0.956  12.832  18.835  0.00  0.00    +0.000 N 
ATOM     24  H   UNL     1       0.082  12.694  18.340  0.00  0.00    +0.000 HD
BRANCH  23  25
ATOM     25  C   UNL     1       1.646  14.040  18.601  0.00  0.00    +0.000 A 
ATOM     26  C   UNL     1       2.971  14.024  18.141  0.00  0.00    +0.000 A 
ATOM     27  C   UNL     1       3.648  15.219  17.895  0.00  0.00    +0.000 A 
ATOM     28  C   UNL     1       3.010  16.435  18.112  0.00  0.00    +0.000 A 
ATOM     29  C   UNL     1       1.690  16.458  18.567  0.00  0.00    +0.000 A 
ATOM     30  C   UNL     1       0.991  15.264  18.812  0.00  0.00    +0.000 A 
ATOM     31  C   UNL     1      -0.401  15.328  19.374  0.00  0.00    +0.000 C 
ENDBRANCH  23  25
ENDBRANCH  20  21
ENDBRANCH   4  20
TORSDOF 10
ENDMDL
MODEL 9
REMARK VINA RESULT:      -6.7      6.040      9.658
REMARK  Name = 
REMARK  12 active torsions:
REMARK  status: ('A' for Active; 'I' for Inactive)
REMARK    1  A    between atoms: C_1  and  C_2
REMARK    2  A    between atoms: C_5  and  O_6
REMARK    3  A    between atoms: O_6  and  C_7
REMARK    4  A    between atoms: C_7  and  C_8
REMARK    5  A    between atoms: C_8  and  C_9
REMARK    6  A    between atoms: C_9  and  O_11
REMARK    7  A    between atoms: O_11  and  C_12
REMARK    8  A    between atoms: C_12  and  C_13
REMARK    9  A    between atoms: C_16  and  C_17
REMARK   10  A    between atoms: C_17  and  C_18
REMARK   11  A    between atoms: N_20  and  C_21
REMARK   12  A    between atoms: C_26  and  C_27
REMARK                            x       y       z     vdW  Elec       q    Type
REMARK                         _______ _______ _______ _____ _____    ______ ____
ROOT
ATOM      1  C   UNL     1       7.828   7.991  17.804  0.00  0.00    +0.000 A 
ATOM      2  C   UNL     1       8.147   6.908  18.603  0.00  0.00    +0.000 A 
ATOM      3  S   UNL     1       7.130   5.580  18.253  0.00  0.00    +0.000 S 
ATOM      4  C   UNL     1       6.331   6.521  17.058  0.00  0.00    +0.000 A 
ATOM      5  N   UNL     1       6.813   7.736  16.881  0.00  0.00    +0.000 NA
ENDROOT
BRANCH   1   6
ATOM      6  C   UNL     1       8.432   9.363  17.861  0.00  0.00    +0.000 C 
BRANCH   6   7
ATOM      7  O   UNL     1       8.915   9.729  19.170  0.00  0.00    +0.000 OA
BRANCH   7   8
ATOM      8  C   UNL     1       9.466  10.972  19.245  0.00  0.00    +0.000 C 
ATOM      9  O   UNL     1       9.646  11.716  18.286  0.00  0.00    +0.000 OA
BRANCH   8  10
ATOM     10  C   UNL     1       9.806  11.314  20.665  0.00  0.00    +0.000 C 
BRANCH  10  11
ATOM     11  C   UNL     1       8.980  12.513  21.114  0.00  0.00    +0.000 C 
BRANCH  11  12
ATOM     12  O   UNL     1       9.421  12.943  22.406  0.00  0.00    +0.000 OA
BRANCH  12  17
ATOM     13  C   UNL     1       5.563  12.670  26.574  0.00  0.00    +0.000 C 
ATOM     14  C   UNL     1       6.585  12.726  25.478  0.00  0.00    +0.000 A 
ATOM     15  C   UNL     1       7.156  13.939  25.078  0.00  0.00    +0.000 A 
ATOM     16  C   UNL     1       8.099  13.971  24.044  0.00  0.00    +0.000 A 
ATOM     17  C   UNL     1       8.498  12.793  23.411  0.00  0.00    +0.000 A 
ATOM     18  C   UNL     1       7.921  11.583  23.800  0.00  0.00    +0.000 A 
ATOM     19  C   UNL     1       6.972  11.551  24.827  0.00  0.00    +0.000 A 
ENDBRANCH  12  17
ENDBRANCH  11  12
ENDBRANCH  10  11
ENDBRANCH   8  10
ENDBRANCH   7   8
ENDBRANCH   6   7
ENDBRANCH   1   6
BRANCH   4  20
ATOM     20  C   UNL     1       5.135   5.984  16.347  0.00  0.00    +0.000 C 
BRANCH  20  21
ATOM     21  C   UNL     1       4.063   5.592  17.336  0.00  0.00    +0.000 C 
ATOM     22  O   UNL     1       3.509   6.433  18.040  0.00  0.00    +0.000 OA
ATOM     23  N   UNL     1       3.799   4.229  17.359  0.00  0.00    +0.000 N 
ATOM     24  H   UNL     1       4.572   3.634  17.082  0.00  0.00    +0.000 HD
BRANCH  23  25
ATOM     25  C   UNL     1       2.819   3.665  18.201  0.00  0.00    +0.000 A 
ATOM     26  C   UNL     1       1.460   3.755  17.870  0.00  0.00    +0.000 A 
ATOM     27  C   UNL     1       0.491   3.183  18.695  0.00  0.00    +0.000 A 
ATOM     28  C   UNL     1       0.873   2.525  19.859  0.00  0.00    +0.000 A 
ATOM     29  C   UNL     1       2.225   2.429  20.194  0.00  0.00    +0.000 A 
ATOM     30  C   UNL     1       3.213   2.992  19.369  0.00  0.00    +0.000 A 
ATOM     31  C   UNL     1       4.652   2.936  19.800  0.00  0.00    +0.000 C 
ENDBRANCH  23  25
ENDBRANCH  20  21
ENDBRANCH   4  20
TORSDOF 10
ENDMDL
