MODEL 1
REMARK VINA RESULT:      -7.2      0.000      0.000
REMARK  Name = 
REMARK  4 active torsions:
REMARK  status: ('A' for Active; 'I' for Inactive)
REMARK    1  A    between atoms: C_1  and  N_2
REMARK    2  A    between atoms: N_16  and  C_17
REMARK    3  A    between atoms: C_17  and  C_18
REMARK    4  A    between atoms: C_18  and  C_19
REMARK                            x       y       z     vdW  Elec       q    Type
REMARK                         _______ _______ _______ _____ _____    ______ ____
ROOT
ATOM      1  C   UNL     1       2.663   2.081  21.763  0.00  0.00    +0.000 C 
ATOM      2  N   UNL     1       2.335   2.917  20.612  0.00  0.00    +0.000 NA
ATOM      3  C   UNL     1       3.533   3.165  19.775  0.00  0.00    +0.000 C 
ATOM      4  C   UNL     1       3.287   4.157  18.614  0.00  0.00    +0.000 C 
ATOM      5  N   UNL     1       2.594   5.369  19.070  0.00  0.00    +0.000 N 
ATOM      6  C   UNL     1       2.837   6.545  18.394  0.00  0.00    +0.000 C 
ATOM      7  O   UNL     1       3.516   6.542  17.364  0.00  0.00    +0.000 OA
ATOM      8  N   UNL     1       2.323   7.728  18.890  0.00  0.00    +0.000 N 
ATOM      9  C   UNL     1       2.393   8.916  18.047  0.00  0.00    +0.000 C 
ATOM     10  C   UNL     1       1.033   9.608  18.024  0.00  0.00    +0.000 C 
ATOM     11  C   UNL     1       0.462   9.910  19.437  0.00  0.00    +0.000 C 
ATOM     12  C   UNL     1       1.172  11.062  20.170  0.00  0.00    +0.000 C 
ATOM     13  C   UNL     1       1.020  12.395  19.465  0.00  0.00    +0.000 C 
ATOM     14  C   UNL     1      -0.358  12.700  18.911  0.00  0.00    +0.000 C 
ATOM     15  O   UNL     1      -0.648  13.858  18.610  0.00  0.00    +0.000 OA
ATOM     16  N   UNL     1      -1.169  11.614  18.600  0.00  0.00    +0.000 N 
ATOM     17  C   UNL     1      -1.007  10.335  19.283  0.00  0.00    +0.000 C 
ATOM     18  C   UNL     1       0.564   8.628  20.312  0.00  0.00    +0.000 C 
ATOM     19  C   UNL     1       1.975   8.028  20.277  0.00  0.00    +0.000 C 
ATOM     20  C   UNL     1       1.378   5.038  19.813  0.00  0.00    +0.000 C 
ATOM     21  C   UNL     1       1.749   4.200  21.045  0.00  0.00    +0.000 C 
ENDROOT
BRANCH  16  22
ATOM     22  C   UNL     1      -2.100  11.769  17.471  0.00  0.00    +0.000 C 
BRANCH  22  23
ATOM     23  C   UNL     1      -3.365  10.915  17.488  0.00  0.00    +0.000 C 
BRANCH  23  24
ATOM     24  C   UNL     1      -4.577  11.688  17.945  0.00  0.00    +0.000 A 
ATOM     25  C   UNL     1      -5.612  11.991  17.054  0.00  0.00    +0.000 A 
ATOM     26  C   UNL     1      -6.720  12.677  17.528  0.00  0.00    +0.000 A 
ATOM     27  N   UNL     1      -6.861  13.083  18.807  0.00  0.00    +0.000 NA
ATOM     28  C   UNL     1      -5.843  12.799  19.646  0.00  0.00    +0.000 A 
ATOM     29  C   UNL     1      -4.696  12.116  19.269  0.00  0.00    +0.000 A 
ENDBRANCH  23  24
ENDBRANCH  22  23
ENDBRANCH  16  22
TORSDOF 3
ENDMDL
MODEL 2
REMARK VINA RESULT:      -7.1      3.102      5.378
REMARK  Name = 
REMARK  4 active torsions:
REMARK  status: ('A' for Active; 'I' for Inactive)
REMARK    1  A    between atoms: C_1  and  N_2
REMARK    2  A    between atoms: N_16  and  C_17
REMARK    3  A    between atoms: C_17  and  C_18
REMARK    4  A    between atoms: C_18  and  C_19
REMARK                            x       y       z     vdW  Elec       q    Type
REMARK                         _______ _______ _______ _____ _____    ______ ____
ROOT
ATOM      1  C   UNL     1       6.193   4.223  15.245  0.00  0.00    +0.000 C 
ATOM      2  N   UNL     1       5.894   4.919  16.494  0.00  0.00    +0.000 NA
ATOM      3  C   UNL     1       5.259   4.005  17.474  0.00  0.00    +0.000 C 
ATOM      4  C   UNL     1       4.790   4.711  18.769  0.00  0.00    +0.000 C 
ATOM      5  N   UNL     1       4.025   5.930  18.479  0.00  0.00    +0.000 N 
ATOM      6  C   UNL     1       3.055   6.314  19.380  0.00  0.00    +0.000 C 
ATOM      7  O   UNL     1       2.933   5.717  20.453  0.00  0.00    +0.000 OA
ATOM      8  N   UNL     1       2.215   7.365  19.064  0.00  0.00    +0.000 N 
ATOM      9  C   UNL     1       1.358   7.902  20.114  0.00  0.00    +0.000 C 
ATOM     10  C   UNL     1       1.463   9.424  20.132  0.00  0.00    +0.000 C 
ATOM     11  C   UNL     1       1.201  10.085  18.750  0.00  0.00    +0.000 C 
ATOM     12  C   UNL     1      -0.274  10.070  18.314  0.00  0.00    +0.000 C 
ATOM     13  C   UNL     1      -1.171  10.872  19.235  0.00  0.00    +0.000 C 
ATOM     14  C   UNL     1      -0.622  12.207  19.700  0.00  0.00    +0.000 C 
ATOM     15  O   UNL     1      -1.387  13.044  20.180  0.00  0.00    +0.000 OA
ATOM     16  N   UNL     1       0.761  12.347  19.725  0.00  0.00    +0.000 N 
ATOM     17  C   UNL     1       1.612  11.562  18.837  0.00  0.00    +0.000 C 
ATOM     18  C   UNL     1       2.045   9.353  17.668  0.00  0.00    +0.000 C 
ATOM     19  C   UNL     1       1.849   7.832  17.728  0.00  0.00    +0.000 C 
ATOM     20  C   UNL     1       4.758   6.816  17.574  0.00  0.00    +0.000 C 
ATOM     21  C   UNL     1       5.020   6.083  16.250  0.00  0.00    +0.000 C 
ENDROOT
BRANCH  16  22
ATOM     22  C   UNL     1       1.332  13.215  20.768  0.00  0.00    +0.000 C 
BRANCH  22  23
ATOM     23  C   UNL     1       2.717  13.801  20.506  0.00  0.00    +0.000 C 
BRANCH  23  24
ATOM     24  C   UNL     1       2.679  14.964  19.547  0.00  0.00    +0.000 A 
ATOM     25  C   UNL     1       1.643  15.903  19.600  0.00  0.00    +0.000 A 
ATOM     26  C   UNL     1       1.668  16.972  18.716  0.00  0.00    +0.000 A 
ATOM     27  N   UNL     1       2.634  17.161  17.793  0.00  0.00    +0.000 NA
ATOM     28  C   UNL     1       3.612  16.233  17.744  0.00  0.00    +0.000 A 
ATOM     29  C   UNL     1       3.677  15.131  18.585  0.00  0.00    +0.000 A 
ENDBRANCH  23  24
ENDBRANCH  22  23
ENDBRANCH  16  22
TORSDOF 3
ENDMDL
MODEL 3
REMARK VINA RESULT:      -6.8      3.019      5.625
REMARK  Name = 
REMARK  4 active torsions:
REMARK  status: ('A' for Active; 'I' for Inactive)
REMARK    1  A    between atoms: C_1  and  N_2
REMARK    2  A    between atoms: N_16  and  C_17
REMARK    3  A    between atoms: C_17  and  C_18
REMARK    4  A    between atoms: C_18  and  C_19
REMARK                            x       y       z     vdW  Elec       q    Type
REMARK                         _______ _______ _______ _____ _____    ______ ____
ROOT
ATOM      1  C   UNL     1       6.004   4.002  15.655  0.00  0.00    +0.000 C 
ATOM      2  N   UNL     1       5.687   4.737  16.876  0.00  0.00    +0.000 NA
ATOM      3  C   UNL     1       4.976   3.872  17.848  0.00  0.00    +0.000 C 
ATOM      4  C   UNL     1       4.488   4.624  19.109  0.00  0.00    +0.000 C 
ATOM      5  N   UNL     1       3.787   5.868  18.764  0.00  0.00    +0.000 N 
ATOM      6  C   UNL     1       2.800   6.311  19.618  0.00  0.00    +0.000 C 
ATOM      7  O   UNL     1       2.610   5.744  20.697  0.00  0.00    +0.000 OA
ATOM      8  N   UNL     1       2.019   7.390  19.248  0.00  0.00    +0.000 N 
ATOM      9  C   UNL     1       1.145   7.985  20.251  0.00  0.00    +0.000 C 
ATOM     10  C   UNL     1       1.315   9.502  20.243  0.00  0.00    +0.000 C 
ATOM     11  C   UNL     1       1.135  10.142  18.839  0.00  0.00    +0.000 C 
ATOM     12  C   UNL     1      -0.321  10.180  18.345  0.00  0.00    +0.000 C 
ATOM     13  C   UNL     1      -1.218  11.040  19.213  0.00  0.00    +0.000 C 
ATOM     14  C   UNL     1      -0.631  12.360  19.672  0.00  0.00    +0.000 C 
ATOM     15  O   UNL     1      -1.378  13.239  20.104  0.00  0.00    +0.000 OA
ATOM     16  N   UNL     1       0.755  12.442  19.750  0.00  0.00    +0.000 N 
ATOM     17  C   UNL     1       1.606  11.603  18.913  0.00  0.00    +0.000 C 
ATOM     18  C   UNL     1       1.989   9.352  17.806  0.00  0.00    +0.000 C 
ATOM     19  C   UNL     1       1.726   7.843  17.889  0.00  0.00    +0.000 C 
ATOM     20  C   UNL     1       4.592   6.702  17.872  0.00  0.00    +0.000 C 
ATOM     21  C   UNL     1       4.874   5.930  16.574  0.00  0.00    +0.000 C 
ENDROOT
BRANCH  16  22
ATOM     22  C   UNL     1       1.321  13.307  20.797  0.00  0.00    +0.000 C 
BRANCH  22  23
ATOM     23  C   UNL     1       1.565  14.771  20.436  0.00  0.00    +0.000 C 
BRANCH  23  24
ATOM     24  C   UNL     1       2.806  14.960  19.600  0.00  0.00    +0.000 A 
ATOM     25  C   UNL     1       2.712  15.243  18.233  0.00  0.00    +0.000 A 
ATOM     26  C   UNL     1       3.880  15.439  17.512  0.00  0.00    +0.000 A 
ATOM     27  N   UNL     1       5.115  15.363  18.049  0.00  0.00    +0.000 NA
ATOM     28  C   UNL     1       5.185  15.068  19.363  0.00  0.00    +0.000 A 
ATOM     29  C   UNL     1       4.076  14.858  20.170  0.00  0.00    +0.000 A 
ENDBRANCH  23  24
ENDBRANCH  22  23
ENDBRANCH  16  22
TORSDOF 3
ENDMDL
MODEL 4
REMARK VINA RESULT:      -6.6      3.033      4.561
REMARK  Name = 
REMARK  4 active torsions:
REMARK  status: ('A' for Active; 'I' for Inactive)
REMARK    1  A    between atoms: C_1  and  N_2
REMARK    2  A    between atoms: N_16  and  C_17
REMARK    3  A    between atoms: C_17  and  C_18
REMARK    4  A    between atoms: C_18  and  C_19
REMARK                            x       y       z     vdW  Elec       q    Type
REMARK                         _______ _______ _______ _____ _____    ______ ____
ROOT
ATOM      1  C   UNL     1       6.634   4.415  15.464  0.00  0.00    +0.000 C 
ATOM      2  N   UNL     1       6.211   5.052  16.708  0.00  0.00    +0.000 NA
ATOM      3  C   UNL     1       5.537   4.080  17.602  0.00  0.00    +0.000 C 
ATOM      4  C   UNL     1       4.941   4.719  18.879  0.00  0.00    +0.000 C 
ATOM      5  N   UNL     1       4.153   5.919  18.571  0.00  0.00    +0.000 N 
ATOM      6  C   UNL     1       3.101   6.233  19.404  0.00  0.00    +0.000 C 
ATOM      7  O   UNL     1       2.918   5.593  20.443  0.00  0.00    +0.000 OA
ATOM      8  N   UNL     1       2.249   7.265  19.058  0.00  0.00    +0.000 N 
ATOM      9  C   UNL     1       1.291   7.731  20.054  0.00  0.00    +0.000 C 
ATOM     10  C   UNL     1       1.335   9.254  20.133  0.00  0.00    +0.000 C 
ATOM     11  C   UNL     1       1.157   9.956  18.758  0.00  0.00    +0.000 C 
ATOM     12  C   UNL     1      -0.278   9.904  18.206  0.00  0.00    +0.000 C 
ATOM     13  C   UNL     1      -1.275  10.639  19.079  0.00  0.00    +0.000 C 
ATOM     14  C   UNL     1      -0.817  11.974  19.632  0.00  0.00    +0.000 C 
ATOM     15  O   UNL     1      -1.650  12.764  20.077  0.00  0.00    +0.000 OA
ATOM     16  N   UNL     1       0.553  12.163  19.772  0.00  0.00    +0.000 N 
ATOM     17  C   UNL     1       1.502  11.443  18.929  0.00  0.00    +0.000 C 
ATOM     18  C   UNL     1       2.112   9.296  17.723  0.00  0.00    +0.000 C 
ATOM     19  C   UNL     1       1.971   7.769  17.715  0.00  0.00    +0.000 C 
ATOM     20  C   UNL     1       4.920   6.864  17.758  0.00  0.00    +0.000 C 
ATOM     21  C   UNL     1       5.314   6.191  16.435  0.00  0.00    +0.000 C 
ENDROOT
BRANCH  16  22
ATOM     22  C   UNL     1       1.006  13.011  20.887  0.00  0.00    +0.000 C 
BRANCH  22  23
ATOM     23  C   UNL     1       1.688  14.329  20.528  0.00  0.00    +0.000 C 
BRANCH  23  24
ATOM     24  C   UNL     1       0.713  15.368  20.034  0.00  0.00    +0.000 A 
ATOM     25  C   UNL     1       0.816  15.890  18.740  0.00  0.00    +0.000 A 
ATOM     26  C   UNL     1      -0.122  16.821  18.321  0.00  0.00    +0.000 A 
ATOM     27  N   UNL     1      -1.135  17.266  19.093  0.00  0.00    +0.000 NA
ATOM     28  C   UNL     1      -1.206  16.766  20.344  0.00  0.00    +0.000 A 
ATOM     29  C   UNL     1      -0.317  15.830  20.855  0.00  0.00    +0.000 A 
ENDBRANCH  23  24
ENDBRANCH  22  23
ENDBRANCH  16  22
TORSDOF 3
ENDMDL
MODEL 5
REMARK VINA RESULT:      -6.6      3.598      9.623
REMARK  Name = 
REMARK  4 active torsions:
REMARK  status: ('A' for Active; 'I' for Inactive)
REMARK    1  A    between atoms: C_1  and  N_2
REMARK    2  A    between atoms: N_16  and  C_17
REMARK    3  A    between atoms: C_17  and  C_18
REMARK    4  A    between atoms: C_18  and  C_19
REMARK                            x       y       z     vdW  Elec       q    Type
REMARK                         _______ _______ _______ _____ _____    ______ ____
ROOT
ATOM      1  C   UNL     1      -4.475  16.708  24.826  0.00  0.00    +0.000 C 
ATOM      2  N   UNL     1      -3.201  15.999  24.741  0.00  0.00    +0.000 NA
ATOM      3  C   UNL     1      -2.094  16.931  24.415  0.00  0.00    +0.000 C 
ATOM      4  C   UNL     1      -0.739  16.225  24.174  0.00  0.00    +0.000 C 
ATOM      5  N   UNL     1      -0.873  15.084  23.260  0.00  0.00    +0.000 N 
ATOM      6  C   UNL     1       0.212  14.753  22.476  0.00  0.00    +0.000 C 
ATOM      7  O   UNL     1       1.294  15.323  22.639  0.00  0.00    +0.000 OA
ATOM      8  N   UNL     1       0.071  13.786  21.499  0.00  0.00    +0.000 N 
ATOM      9  C   UNL     1       1.274  13.289  20.843  0.00  0.00    +0.000 C 
ATOM     10  C   UNL     1       1.248  11.763  20.815  0.00  0.00    +0.000 C 
ATOM     11  C   UNL     1      -0.053  11.172  20.205  0.00  0.00    +0.000 C 
ATOM     12  C   UNL     1      -0.159  11.323  18.678  0.00  0.00    +0.000 C 
ATOM     13  C   UNL     1       0.923  10.568  17.932  0.00  0.00    +0.000 C 
ATOM     14  C   UNL     1       1.240   9.178  18.448  0.00  0.00    +0.000 C 
ATOM     15  O   UNL     1       1.862   8.392  17.733  0.00  0.00    +0.000 OA
ATOM     16  N   UNL     1       0.963   8.923  19.787  0.00  0.00    +0.000 N 
ATOM     17  C   UNL     1      -0.078   9.663  20.494  0.00  0.00    +0.000 C 
ATOM     18  C   UNL     1      -1.283  11.865  20.859  0.00  0.00    +0.000 C 
ATOM     19  C   UNL     1      -1.160  13.394  20.815  0.00  0.00    +0.000 C 
ATOM     20  C   UNL     1      -1.927  14.170  23.701  0.00  0.00    +0.000 C 
ATOM     21  C   UNL     1      -3.266  14.921  23.736  0.00  0.00    +0.000 C 
ENDROOT
BRANCH  16  22
ATOM     22  C   UNL     1       1.846   7.978  20.489  0.00  0.00    +0.000 C 
BRANCH  22  23
ATOM     23  C   UNL     1       1.224   6.669  20.971  0.00  0.00    +0.000 C 
BRANCH  23  24
ATOM     24  C   UNL     1       1.975   5.458  20.480  0.00  0.00    +0.000 A 
ATOM     25  C   UNL     1       1.526   4.167  20.778  0.00  0.00    +0.000 A 
ATOM     26  C   UNL     1       2.234   3.084  20.278  0.00  0.00    +0.000 A 
ATOM     27  N   UNL     1       3.344   3.198  19.521  0.00  0.00    +0.000 NA
ATOM     28  C   UNL     1       3.772   4.450  19.262  0.00  0.00    +0.000 A 
ATOM     29  C   UNL     1       3.134   5.596  19.713  0.00  0.00    +0.000 A 
ENDBRANCH  23  24
ENDBRANCH  22  23
ENDBRANCH  16  22
TORSDOF 3
ENDMDL
MODEL 6
REMARK VINA RESULT:      -6.6      3.698      6.929
REMARK  Name = 
REMARK  4 active torsions:
REMARK  status: ('A' for Active; 'I' for Inactive)
REMARK    1  A    between atoms: C_1  and  N_2
REMARK    2  A    between atoms: N_16  and  C_17
REMARK    3  A    between atoms: C_17  and  C_18
REMARK    4  A    between atoms: C_18  and  C_19
REMARK                            x       y       z     vdW  Elec       q    Type
REMARK                         _______ _______ _______ _____ _____    ______ ____
ROOT
ATOM      1  C   UNL     1       2.580   3.837  17.719  0.00  0.00    +0.000 C 
ATOM      2  N   UNL     1       2.768   4.930  18.668  0.00  0.00    +0.000 NA
ATOM      3  C   UNL     1       1.850   4.794  19.825  0.00  0.00    +0.000 C 
ATOM      4  C   UNL     1       1.900   5.992  20.802  0.00  0.00    +0.000 C 
ATOM      5  N   UNL     1       1.812   7.276  20.094  0.00  0.00    +0.000 N 
ATOM      6  C   UNL     1       1.235   8.340  20.755  0.00  0.00    +0.000 C 
ATOM      7  O   UNL     1       0.925   8.239  21.945  0.00  0.00    +0.000 OA
ATOM      8  N   UNL     1       0.998   9.515  20.068  0.00  0.00    +0.000 N 
ATOM      9  C   UNL     1       0.607  10.694  20.832  0.00  0.00    +0.000 C 
ATOM     10  C   UNL     1       1.449  11.890  20.395  0.00  0.00    +0.000 C 
ATOM     11  C   UNL     1       1.431  12.139  18.862  0.00  0.00    +0.000 C 
ATOM     12  C   UNL     1       0.109  12.721  18.333  0.00  0.00    +0.000 C 
ATOM     13  C   UNL     1      -0.197  14.097  18.891  0.00  0.00    +0.000 C 
ATOM     14  C   UNL     1       0.975  15.056  18.971  0.00  0.00    +0.000 C 
ATOM     15  O   UNL     1       0.763  16.261  19.110  0.00  0.00    +0.000 OA
ATOM     16  N   UNL     1       2.244  14.497  19.064  0.00  0.00    +0.000 N 
ATOM     17  C   UNL     1       2.522  13.168  18.528  0.00  0.00    +0.000 C 
ATOM     18  C   UNL     1       1.712  10.798  18.125  0.00  0.00    +0.000 C 
ATOM     19  C   UNL     1       0.799   9.672  18.628  0.00  0.00    +0.000 C 
ATOM     20  C   UNL     1       2.807   7.364  19.025  0.00  0.00    +0.000 C 
ATOM     21  C   UNL     1       2.562   6.235  18.013  0.00  0.00    +0.000 C 
ENDROOT
BRANCH  16  22
ATOM     22  C   UNL     1       3.253  15.240  19.837  0.00  0.00    +0.000 C 
BRANCH  22  23
ATOM     23  C   UNL     1       4.274  16.055  19.047  0.00  0.00    +0.000 C 
BRANCH  23  24
ATOM     24  C   UNL     1       5.602  15.352  18.922  0.00  0.00    +0.000 A 
ATOM     25  C   UNL     1       6.521  15.363  19.977  0.00  0.00    +0.000 A 
ATOM     26  C   UNL     1       7.716  14.676  19.826  0.00  0.00    +0.000 A 
ATOM     27  N   UNL     1       8.057  13.997  18.711  0.00  0.00    +0.000 NA
ATOM     28  C   UNL     1       7.166  14.015  17.698  0.00  0.00    +0.000 A 
ATOM     29  C   UNL     1       5.944  14.670  17.752  0.00  0.00    +0.000 A 
ENDBRANCH  23  24
ENDBRANCH  22  23
ENDBRANCH  16  22
TORSDOF 3
ENDMDL
MODEL 7
REMARK VINA RESULT:      -6.6      2.926      9.440
REMARK  Name = 
REMARK  4 active torsions:
REMARK  status: ('A' for Active; 'I' for Inactive)
REMARK    1  A    between atoms: C_1  and  N_2
REMARK    2  A    between atoms: N_16  and  C_17
REMARK    3  A    between atoms: C_17  and  C_18
REMARK    4  A    between atoms: C_18  and  C_19
REMARK                            x       y       z     vdW  Elec       q    Type
REMARK                         _______ _______ _______ _____ _____    ______ ____
ROOT
ATOM      1  C   UNL     1      -5.637  15.401  23.427  0.00  0.00    +0.000 C 
ATOM      2  N   UNL     1      -4.335  14.774  23.640  0.00  0.00    +0.000 NA
ATOM      3  C   UNL     1      -3.253  15.787  23.655  0.00  0.00    +0.000 C 
ATOM      4  C   UNL     1      -1.833  15.178  23.739  0.00  0.00    +0.000 C 
ATOM      5  N   UNL     1      -1.646  14.094  22.766  0.00  0.00    +0.000 N 
ATOM      6  C   UNL     1      -0.377  13.879  22.273  0.00  0.00    +0.000 C 
ATOM      7  O   UNL     1       0.584  14.498  22.738  0.00  0.00    +0.000 OA
ATOM      8  N   UNL     1      -0.195  12.972  21.247  0.00  0.00    +0.000 N 
ATOM      9  C   UNL     1       1.169  12.589  20.900  0.00  0.00    +0.000 C 
ATOM     10  C   UNL     1       1.262  11.069  20.791  0.00  0.00    +0.000 C 
ATOM     11  C   UNL     1       0.205  10.445  19.839  0.00  0.00    +0.000 C 
ATOM     12  C   UNL     1       0.480  10.691  18.345  0.00  0.00    +0.000 C 
ATOM     13  C   UNL     1       1.768  10.050  17.868  0.00  0.00    +0.000 C 
ATOM     14  C   UNL     1       2.043   8.650  18.380  0.00  0.00    +0.000 C 
ATOM     15  O   UNL     1       2.882   7.950  17.812  0.00  0.00    +0.000 OA
ATOM     16  N   UNL     1       1.454   8.292  19.588  0.00  0.00    +0.000 N 
ATOM     17  C   UNL     1       0.218   8.922  20.037  0.00  0.00    +0.000 C 
ATOM     18  C   UNL     1      -1.197  11.022  20.187  0.00  0.00    +0.000 C 
ATOM     19  C   UNL     1      -1.180  12.555  20.250  0.00  0.00    +0.000 C 
ATOM     20  C   UNL     1      -2.709  13.094  22.875  0.00  0.00    +0.000 C 
ATOM     21  C   UNL     1      -4.064  13.762  22.601  0.00  0.00    +0.000 C 
ENDROOT
BRANCH  16  22
ATOM     22  C   UNL     1       2.196   7.355  20.447  0.00  0.00    +0.000 C 
BRANCH  22  23
ATOM     23  C   UNL     1       1.737   5.899  20.449  0.00  0.00    +0.000 C 
BRANCH  23  24
ATOM     24  C   UNL     1       2.488   5.055  19.450  0.00  0.00    +0.000 A 
ATOM     25  C   UNL     1       3.882   4.950  19.506  0.00  0.00    +0.000 A 
ATOM     26  C   UNL     1       4.526   4.138  18.584  0.00  0.00    +0.000 A 
ATOM     27  N   UNL     1       3.887   3.441  17.621  0.00  0.00    +0.000 NA
ATOM     28  C   UNL     1       2.545   3.572  17.572  0.00  0.00    +0.000 A 
ATOM     29  C   UNL     1       1.810   4.357  18.449  0.00  0.00    +0.000 A 
ENDBRANCH  23  24
ENDBRANCH  22  23
ENDBRANCH  16  22
TORSDOF 3
ENDMDL
MODEL 8
REMARK VINA RESULT:      -6.5      6.003     10.755
REMARK  Name = 
REMARK  4 active torsions:
REMARK  status: ('A' for Active; 'I' for Inactive)
REMARK    1  A    between atoms: C_1  and  N_2
REMARK    2  A    between atoms: N_16  and  C_17
REMARK    3  A    between atoms: C_17  and  C_18
REMARK    4  A    between atoms: C_18  and  C_19
REMARK                            x       y       z     vdW  Elec       q    Type
REMARK                         _______ _______ _______ _____ _____    ______ ____
ROOT
ATOM      1  C   UNL     1      -3.389  11.360  17.656  0.00  0.00    +0.000 C 
ATOM      2  N   UNL     1      -2.185  11.375  18.481  0.00  0.00    +0.000 NA
ATOM      3  C   UNL     1      -2.469  11.931  19.827  0.00  0.00    +0.000 C 
ATOM      4  C   UNL     1      -1.208  12.104  20.707  0.00  0.00    +0.000 C 
ATOM      5  N   UNL     1      -0.124  12.778  19.979  0.00  0.00    +0.000 N 
ATOM      6  C   UNL     1       0.764  13.541  20.706  0.00  0.00    +0.000 C 
ATOM      7  O   UNL     1       0.717  13.545  21.939  0.00  0.00    +0.000 OA
ATOM      8  N   UNL     1       1.700  14.308  20.038  0.00  0.00    +0.000 N 
ATOM      9  C   UNL     1       2.770  14.921  20.816  0.00  0.00    +0.000 C 
ATOM     10  C   UNL     1       4.112  14.658  20.138  0.00  0.00    +0.000 C 
ATOM     11  C   UNL     1       4.146  15.075  18.641  0.00  0.00    +0.000 C 
ATOM     12  C   UNL     1       4.190  16.595  18.411  0.00  0.00    +0.000 C 
ATOM     13  C   UNL     1       5.447  17.241  18.959  0.00  0.00    +0.000 C 
ATOM     14  C   UNL     1       6.740  16.488  18.716  0.00  0.00    +0.000 C 
ATOM     15  O   UNL     1       7.816  17.074  18.843  0.00  0.00    +0.000 OA
ATOM     16  N   UNL     1       6.646  15.113  18.534  0.00  0.00    +0.000 N 
ATOM     17  C   UNL     1       5.427  14.505  18.012  0.00  0.00    +0.000 C 
ATOM     18  C   UNL     1       2.891  14.500  17.923  0.00  0.00    +0.000 C 
ATOM     19  C   UNL     1       1.601  14.839  18.680  0.00  0.00    +0.000 C 
ATOM     20  C   UNL     1       0.151  12.117  18.703  0.00  0.00    +0.000 C 
ATOM     21  C   UNL     1      -1.113  12.153  17.831  0.00  0.00    +0.000 C 
ENDROOT
BRANCH  16  22
ATOM     22  C   UNL     1       7.771  14.292  19.012  0.00  0.00    +0.000 C 
BRANCH  22  23
ATOM     23  C   UNL     1       8.487  13.423  17.980  0.00  0.00    +0.000 C 
BRANCH  23  24
ATOM     24  C   UNL     1       9.740  12.790  18.530  0.00  0.00    +0.000 A 
ATOM     25  C   UNL     1       9.910  12.616  19.908  0.00  0.00    +0.000 A 
ATOM     26  C   UNL     1      11.066  12.001  20.363  0.00  0.00    +0.000 A 
ATOM     27  N   UNL     1      12.052  11.561  19.554  0.00  0.00    +0.000 NA
ATOM     28  C   UNL     1      11.879  11.756  18.231  0.00  0.00    +0.000 A 
ATOM     29  C   UNL     1      10.758  12.359  17.677  0.00  0.00    +0.000 A 
ENDBRANCH  23  24
ENDBRANCH  22  23
ENDBRANCH  16  22
TORSDOF 3
ENDMDL
MODEL 9
REMARK VINA RESULT:      -6.5      4.465      8.072
REMARK  Name = 
REMARK  4 active torsions:
REMARK  status: ('A' for Active; 'I' for Inactive)
REMARK    1  A    between atoms: C_1  and  N_2
REMARK    2  A    between atoms: N_16  and  C_17
REMARK    3  A    between atoms: C_17  and  C_18
REMARK    4  A    between atoms: C_18  and  C_19
REMARK                            x       y       z     vdW  Elec       q    Type
REMARK                         _______ _______ _______ _____ _____    ______ ____
ROOT
ATOM      1  C   UNL     1       7.173   3.367  10.926  0.00  0.00    +0.000 C 
ATOM      2  N   UNL     1       6.840   4.238  12.050  0.00  0.00    +0.000 NA
ATOM      3  C   UNL     1       8.063   4.672  12.767  0.00  0.00    +0.000 C 
ATOM      4  C   UNL     1       7.775   5.485  14.052  0.00  0.00    +0.000 C 
ATOM      5  N   UNL     1       6.766   4.831  14.896  0.00  0.00    +0.000 N 
ATOM      6  C   UNL     1       6.836   5.031  16.258  0.00  0.00    +0.000 C 
ATOM      7  O   UNL     1       7.644   5.837  16.728  0.00  0.00    +0.000 OA
ATOM      8  N   UNL     1       6.000   4.312  17.091  0.00  0.00    +0.000 N 
ATOM      9  C   UNL     1       5.925   4.700  18.494  0.00  0.00    +0.000 C 
ATOM     10  C   UNL     1       4.463   4.798  18.920  0.00  0.00    +0.000 C 
ATOM     11  C   UNL     1       3.634   3.521  18.608  0.00  0.00    +0.000 C 
ATOM     12  C   UNL     1       3.948   2.327  19.525  0.00  0.00    +0.000 C 
ATOM     13  C   UNL     1       3.607   2.590  20.978  0.00  0.00    +0.000 C 
ATOM     14  C   UNL     1       2.294   3.305  21.232  0.00  0.00    +0.000 C 
ATOM     15  O   UNL     1       1.798   3.280  22.359  0.00  0.00    +0.000 OA
ATOM     16  N   UNL     1       1.804   4.110  20.210  0.00  0.00    +0.000 N 
ATOM     17  C   UNL     1       2.148   3.848  18.816  0.00  0.00    +0.000 C 
ATOM     18  C   UNL     1       3.891   3.096  17.134  0.00  0.00    +0.000 C 
ATOM     19  C   UNL     1       5.390   3.011  16.821  0.00  0.00    +0.000 C 
ATOM     20  C   UNL     1       5.559   4.514  14.132  0.00  0.00    +0.000 C 
ATOM     21  C   UNL     1       5.922   3.560  12.985  0.00  0.00    +0.000 C 
ENDROOT
BRANCH  16  22
ATOM     22  C   UNL     1       1.041   5.306  20.602  0.00  0.00    +0.000 C 
BRANCH  22  23
ATOM     23  C   UNL     1       1.841   6.539  21.015  0.00  0.00    +0.000 C 
BRANCH  23  24
ATOM     24  C   UNL     1       1.732   7.661  20.012  0.00  0.00    +0.000 A 
ATOM     25  C   UNL     1       2.297   7.540  18.738  0.00  0.00    +0.000 A 
ATOM     26  C   UNL     1       2.145   8.586  17.841  0.00  0.00    +0.000 A 
ATOM     27  N   UNL     1       1.486   9.729  18.124  0.00  0.00    +0.000 NA
ATOM     28  C   UNL     1       0.967   9.834  19.364  0.00  0.00    +0.000 A 
ATOM     29  C   UNL     1       1.064   8.844  20.332  0.00  0.00    +0.000 A 
ENDBRANCH  23  24
ENDBRANCH  22  23
ENDBRANCH  16  22
TORSDOF 3
ENDMDL
