MODEL 1
REMARK VINA RESULT:      -8.6      0.000      0.000
REMARK  Name = 
REMARK  11 active torsions:
REMARK  status: ('A' for Active; 'I' for Inactive)
REMARK    1  A    between atoms: C_1  and  C_2
REMARK    2  A    between atoms: C_2  and  O_4
REMARK    3  A    between atoms: O_4  and  C_5
REMARK    4  A    between atoms: C_8  and  C_9
REMARK    5  A    between atoms: C_9  and  C_18
REMARK    6  A    between atoms: C_10  and  C_11
REMARK    7  A    between atoms: C_10  and  C_12
REMARK    8  A    between atoms: C_21  and  O_22
REMARK    9  A    between atoms: O_22  and  C_23
REMARK   10  A    between atoms: C_23  and  C_24
REMARK   11  A    between atoms: C_24  and  N_25
REMARK                            x       y       z     vdW  Elec       q    Type
REMARK                         _______ _______ _______ _____ _____    ______ ____
ROOT
ATOM      1  C   UNL     1       2.766   6.108  18.860  0.00  0.00    +0.000 C 
ATOM      2  C   UNL     1       2.182   5.008  19.409  0.00  0.00    +0.000 C 
ATOM      3  C   UNL     1       0.883   5.000  20.194  0.00  0.00    +0.000 C 
ENDROOT
BRANCH   1   7
ATOM      4  C   UNL     1       6.419   5.848  16.618  0.00  0.00    +0.000 A 
ATOM      5  C   UNL     1       5.221   6.147  15.968  0.00  0.00    +0.000 A 
ATOM      6  C   UNL     1       4.033   6.244  16.702  0.00  0.00    +0.000 A 
ATOM      7  C   UNL     1       4.032   6.022  18.086  0.00  0.00    +0.000 A 
ATOM      8  C   UNL     1       5.247   5.740  18.727  0.00  0.00    +0.000 A 
ATOM      9  C   UNL     1       6.439   5.641  17.994  0.00  0.00    +0.000 A 
BRANCH   4  10
ATOM     10  O   UNL     1       7.551   5.686  15.785  0.00  0.00    +0.000 OA
BRANCH  10  12
ATOM     11  C   UNL     1       6.587   4.000  14.443  0.00  0.00    +0.000 C 
ATOM     12  C   UNL     1       7.456   5.224  14.475  0.00  0.00    +0.000 C 
ATOM     13  O   UNL     1       7.980   5.713  13.480  0.00  0.00    +0.000 OA
ENDBRANCH  10  12
ENDBRANCH   4  10
ENDBRANCH   1   7
BRANCH   2  14
ATOM     14  C   UNL     1       2.750   3.644  19.347  0.00  0.00    +0.000 A 
ATOM     15  C   UNL     1       2.609   2.882  18.178  0.00  0.00    +0.000 A 
ATOM     16  C   UNL     1       3.304   1.679  18.032  0.00  0.00    +0.000 A 
ATOM     17  C   UNL     1       4.140   1.230  19.054  0.00  0.00    +0.000 A 
ATOM     18  C   UNL     1       4.267   1.971  20.228  0.00  0.00    +0.000 A 
ATOM     19  C   UNL     1       3.571   3.172  20.377  0.00  0.00    +0.000 A 
ENDBRANCH   2  14
BRANCH   1  20
ATOM     20  C   UNL     1       2.128   7.419  19.131  0.00  0.00    +0.000 A 
ATOM     21  C   UNL     1       1.938   8.303  18.065  0.00  0.00    +0.000 A 
ATOM     22  C   UNL     1       1.432   9.579  18.292  0.00  0.00    +0.000 A 
ATOM     23  C   UNL     1       1.063   9.973  19.582  0.00  0.00    +0.000 A 
ATOM     24  C   UNL     1       1.276   9.106  20.653  0.00  0.00    +0.000 A 
ATOM     25  C   UNL     1       1.805   7.829  20.430  0.00  0.00    +0.000 A 
BRANCH  23  26
ATOM     26  O   UNL     1       0.477  11.181  19.882  0.00  0.00    +0.000 OA
BRANCH  26  27
ATOM     27  C   UNL     1      -0.955  11.119  19.957  0.00  0.00    +0.000 C 
BRANCH  27  28
ATOM     28  C   UNL     1      -1.590  11.491  18.610  0.00  0.00    +0.000 C 
BRANCH  28  29
ATOM     29  N   UNL     1      -2.490  10.430  18.110  0.00  0.00    +0.000 NA
ATOM     30  C   UNL     1      -2.044   9.915  16.807  0.00  0.00    +0.000 C 
ATOM     31  C   UNL     1      -2.717  10.810  15.785  0.00  0.00    +0.000 C 
ATOM     32  C   UNL     1      -4.086  11.036  16.389  0.00  0.00    +0.000 C 
ATOM     33  C   UNL     1      -3.871  10.906  17.890  0.00  0.00    +0.000 C 
ENDBRANCH  28  29
ENDBRANCH  27  28
ENDBRANCH  26  27
ENDBRANCH  23  26
ENDBRANCH   1  20
TORSDOF 9
ENDMDL
MODEL 2
REMARK VINA RESULT:      -8.5      0.541      1.059
REMARK  Name = 
REMARK  11 active torsions:
REMARK  status: ('A' for Active; 'I' for Inactive)
REMARK    1  A    between atoms: C_1  and  C_2
REMARK    2  A    between atoms: C_2  and  O_4
REMARK    3  A    between atoms: O_4  and  C_5
REMARK    4  A    between atoms: C_8  and  C_9
REMARK    5  A    between atoms: C_9  and  C_18
REMARK    6  A    between atoms: C_10  and  C_11
REMARK    7  A    between atoms: C_10  and  C_12
REMARK    8  A    between atoms: C_21  and  O_22
REMARK    9  A    between atoms: O_22  and  C_23
REMARK   10  A    between atoms: C_23  and  C_24
REMARK   11  A    between atoms: C_24  and  N_25
REMARK                            x       y       z     vdW  Elec       q    Type
REMARK                         _______ _______ _______ _____ _____    ______ ____
ROOT
ATOM      1  C   UNL     1       2.861   6.246  18.733  0.00  0.00    +0.000 C 
ATOM      2  C   UNL     1       2.284   5.173  19.339  0.00  0.00    +0.000 C 
ATOM      3  C   UNL     1       1.034   5.215  20.199  0.00  0.00    +0.000 C 
ENDROOT
BRANCH   1   7
ATOM      4  C   UNL     1       6.365   5.846  16.284  0.00  0.00    +0.000 A 
ATOM      5  C   UNL     1       5.190   6.369  15.741  0.00  0.00    +0.000 A 
ATOM      6  C   UNL     1       4.052   6.511  16.544  0.00  0.00    +0.000 A 
ATOM      7  C   UNL     1       4.076   6.111  17.888  0.00  0.00    +0.000 A 
ATOM      8  C   UNL     1       5.269   5.605  18.422  0.00  0.00    +0.000 A 
ATOM      9  C   UNL     1       6.410   5.461  17.620  0.00  0.00    +0.000 A 
BRANCH   4  10
ATOM     10  O   UNL     1       7.435   5.661  15.378  0.00  0.00    +0.000 OA
BRANCH  10  12
ATOM     11  C   UNL     1       8.109   5.541  13.118  0.00  0.00    +0.000 C 
ATOM     12  C   UNL     1       7.311   4.901  14.218  0.00  0.00    +0.000 C 
ATOM     13  O   UNL     1       6.664   3.869  14.078  0.00  0.00    +0.000 OA
ENDBRANCH  10  12
ENDBRANCH   4  10
ENDBRANCH   1   7
BRANCH   2  14
ATOM     14  C   UNL     1       2.813   3.793  19.274  0.00  0.00    +0.000 A 
ATOM     15  C   UNL     1       2.599   3.017  18.125  0.00  0.00    +0.000 A 
ATOM     16  C   UNL     1       3.255   1.794  17.968  0.00  0.00    +0.000 A 
ATOM     17  C   UNL     1       4.126   1.339  18.957  0.00  0.00    +0.000 A 
ATOM     18  C   UNL     1       4.326   2.095  20.113  0.00  0.00    +0.000 A 
ATOM     19  C   UNL     1       3.668   3.316  20.273  0.00  0.00    +0.000 A 
ENDBRANCH   2  14
BRANCH   1  20
ATOM     20  C   UNL     1       2.272   7.578  19.012  0.00  0.00    +0.000 A 
ATOM     21  C   UNL     1       1.861   7.868  20.316  0.00  0.00    +0.000 A 
ATOM     22  C   UNL     1       1.215   9.067  20.599  0.00  0.00    +0.000 A 
ATOM     23  C   UNL     1       1.015  10.017  19.592  0.00  0.00    +0.000 A 
ATOM     24  C   UNL     1       1.398   9.722  18.284  0.00  0.00    +0.000 A 
ATOM     25  C   UNL     1       2.029   8.505  17.992  0.00  0.00    +0.000 A 
BRANCH  23  26
ATOM     26  O   UNL     1       0.464  11.259  19.801  0.00  0.00    +0.000 OA
BRANCH  26  27
ATOM     27  C   UNL     1      -0.959  11.230  19.981  0.00  0.00    +0.000 C 
BRANCH  27  28
ATOM     28  C   UNL     1      -1.683  11.654  18.696  0.00  0.00    +0.000 C 
BRANCH  28  29
ATOM     29  N   UNL     1      -2.630  10.621  18.225  0.00  0.00    +0.000 NA
ATOM     30  C   UNL     1      -2.142   9.957  17.008  0.00  0.00    +0.000 C 
ATOM     31  C   UNL     1      -2.673  10.800  15.867  0.00  0.00    +0.000 C 
ATOM     32  C   UNL     1      -4.056  11.181  16.347  0.00  0.00    +0.000 C 
ATOM     33  C   UNL     1      -3.951  11.174  17.866  0.00  0.00    +0.000 C 
ENDBRANCH  28  29
ENDBRANCH  27  28
ENDBRANCH  26  27
ENDBRANCH  23  26
ENDBRANCH   1  20
TORSDOF 9
ENDMDL
MODEL 3
REMARK VINA RESULT:      -8.3      1.954      2.880
REMARK  Name = 
REMARK  11 active torsions:
REMARK  status: ('A' for Active; 'I' for Inactive)
REMARK    1  A    between atoms: C_1  and  C_2
REMARK    2  A    between atoms: C_2  and  O_4
REMARK    3  A    between atoms: O_4  and  C_5
REMARK    4  A    between atoms: C_8  and  C_9
REMARK    5  A    between atoms: C_9  and  C_18
REMARK    6  A    between atoms: C_10  and  C_11
REMARK    7  A    between atoms: C_10  and  C_12
REMARK    8  A    between atoms: C_21  and  O_22
REMARK    9  A    between atoms: O_22  and  C_23
REMARK   10  A    between atoms: C_23  and  C_24
REMARK   11  A    between atoms: C_24  and  N_25
REMARK                            x       y       z     vdW  Elec       q    Type
REMARK                         _______ _______ _______ _____ _____    ______ ____
ROOT
ATOM      1  C   UNL     1       2.704   6.200  19.070  0.00  0.00    +0.000 C 
ATOM      2  C   UNL     1       2.077   5.072  19.500  0.00  0.00    +0.000 C 
ATOM      3  C   UNL     1       0.789   5.033  20.303  0.00  0.00    +0.000 C 
ENDROOT
BRANCH   1   7
ATOM      4  C   UNL     1       6.310   6.035  16.745  0.00  0.00    +0.000 A 
ATOM      5  C   UNL     1       5.135   6.530  16.176  0.00  0.00    +0.000 A 
ATOM      6  C   UNL     1       3.963   6.595  16.939  0.00  0.00    +0.000 A 
ATOM      7  C   UNL     1       3.954   6.147  18.268  0.00  0.00    +0.000 A 
ATOM      8  C   UNL     1       5.147   5.671  18.829  0.00  0.00    +0.000 A 
ATOM      9  C   UNL     1       6.322   5.603  18.067  0.00  0.00    +0.000 A 
BRANCH   4  10
ATOM     10  O   UNL     1       7.420   5.928  15.874  0.00  0.00    +0.000 OA
BRANCH  10  12
ATOM     11  C   UNL     1       6.523   3.992  14.862  0.00  0.00    +0.000 C 
ATOM     12  C   UNL     1       7.365   5.222  14.676  0.00  0.00    +0.000 C 
ATOM     13  O   UNL     1       7.902   5.524  13.616  0.00  0.00    +0.000 OA
ENDBRANCH  10  12
ENDBRANCH   4  10
ENDBRANCH   1   7
BRANCH   2  14
ATOM     14  C   UNL     1       2.579   3.699  19.274  0.00  0.00    +0.000 A 
ATOM     15  C   UNL     1       2.342   3.064  18.046  0.00  0.00    +0.000 A 
ATOM     16  C   UNL     1       2.974   1.856  17.744  0.00  0.00    +0.000 A 
ATOM     17  C   UNL     1       3.844   1.275  18.666  0.00  0.00    +0.000 A 
ATOM     18  C   UNL     1       4.066   1.890  19.898  0.00  0.00    +0.000 A 
ATOM     19  C   UNL     1       3.433   3.097  20.203  0.00  0.00    +0.000 A 
ENDBRANCH   2  14
BRANCH   1  20
ATOM     20  C   UNL     1       2.131   7.499  19.499  0.00  0.00    +0.000 A 
ATOM     21  C   UNL     1       1.824   7.680  20.852  0.00  0.00    +0.000 A 
ATOM     22  C   UNL     1       1.196   8.845  21.279  0.00  0.00    +0.000 A 
ATOM     23  C   UNL     1       0.909   9.868  20.370  0.00  0.00    +0.000 A 
ATOM     24  C   UNL     1       1.187   9.682  19.016  0.00  0.00    +0.000 A 
ATOM     25  C   UNL     1       1.799   8.500  18.579  0.00  0.00    +0.000 A 
BRANCH  23  26
ATOM     26  O   UNL     1       0.369  11.084  20.720  0.00  0.00    +0.000 OA
BRANCH  26  27
ATOM     27  C   UNL     1      -0.393  11.694  19.668  0.00  0.00    +0.000 C 
BRANCH  27  28
ATOM     28  C   UNL     1       0.079  13.132  19.414  0.00  0.00    +0.000 C 
BRANCH  28  29
ATOM     29  N   UNL     1       1.513  13.309  19.729  0.00  0.00    +0.000 NA
ATOM     30  C   UNL     1       1.793  14.666  20.220  0.00  0.00    +0.000 C 
ATOM     31  C   UNL     1       2.084  15.477  18.973  0.00  0.00    +0.000 C 
ATOM     32  C   UNL     1       2.872  14.509  18.120  0.00  0.00    +0.000 C 
ATOM     33  C   UNL     1       2.385  13.132  18.550  0.00  0.00    +0.000 C 
ENDBRANCH  28  29
ENDBRANCH  27  28
ENDBRANCH  26  27
ENDBRANCH  23  26
ENDBRANCH   1  20
TORSDOF 9
ENDMDL
MODEL 4
REMARK VINA RESULT:      -8.1      0.660      1.266
REMARK  Name = 
REMARK  11 active torsions:
REMARK  status: ('A' for Active; 'I' for Inactive)
REMARK    1  A    between atoms: C_1  and  C_2
REMARK    2  A    between atoms: C_2  and  O_4
REMARK    3  A    between atoms: O_4  and  C_5
REMARK    4  A    between atoms: C_8  and  C_9
REMARK    5  A    between atoms: C_9  and  C_18
REMARK    6  A    between atoms: C_10  and  C_11
REMARK    7  A    between atoms: C_10  and  C_12
REMARK    8  A    between atoms: C_21  and  O_22
REMARK    9  A    between atoms: O_22  and  C_23
REMARK   10  A    between atoms: C_23  and  C_24
REMARK   11  A    between atoms: C_24  and  N_25
REMARK                            x       y       z     vdW  Elec       q    Type
REMARK                         _______ _______ _______ _____ _____    ______ ____
ROOT
ATOM      1  C   UNL     1       2.644   6.185  19.048  0.00  0.00    +0.000 C 
ATOM      2  C   UNL     1       2.081   5.055  19.557  0.00  0.00    +0.000 C 
ATOM      3  C   UNL     1       0.828   5.004  20.411  0.00  0.00    +0.000 C 
ENDROOT
BRANCH   1   7
ATOM      4  C   UNL     1       6.175   6.073  16.608  0.00  0.00    +0.000 A 
ATOM      5  C   UNL     1       6.233   5.660  17.939  0.00  0.00    +0.000 A 
ATOM      6  C   UNL     1       5.079   5.685  18.731  0.00  0.00    +0.000 A 
ATOM      7  C   UNL     1       3.864   6.142  18.200  0.00  0.00    +0.000 A 
ATOM      8  C   UNL     1       3.818   6.536  16.856  0.00  0.00    +0.000 A 
ATOM      9  C   UNL     1       4.973   6.513  16.061  0.00  0.00    +0.000 A 
BRANCH   4  10
ATOM     10  O   UNL     1       7.406   6.094  15.912  0.00  0.00    +0.000 OA
BRANCH  10  12
ATOM     11  C   UNL     1       6.706   4.220  14.659  0.00  0.00    +0.000 C 
ATOM     12  C   UNL     1       7.594   5.430  14.703  0.00  0.00    +0.000 C 
ATOM     13  O   UNL     1       8.353   5.752  13.795  0.00  0.00    +0.000 OA
ENDBRANCH  10  12
ENDBRANCH   4  10
ENDBRANCH   1   7
BRANCH   2  14
ATOM     14  C   UNL     1       2.632   3.694  19.377  0.00  0.00    +0.000 A 
ATOM     15  C   UNL     1       2.378   2.990  18.190  0.00  0.00    +0.000 A 
ATOM     16  C   UNL     1       3.049   1.795  17.922  0.00  0.00    +0.000 A 
ATOM     17  C   UNL     1       3.974   1.295  18.839  0.00  0.00    +0.000 A 
ATOM     18  C   UNL     1       4.214   1.978  20.031  0.00  0.00    +0.000 A 
ATOM     19  C   UNL     1       3.542   3.172  20.302  0.00  0.00    +0.000 A 
ENDBRANCH   2  14
BRANCH   1  20
ATOM     20  C   UNL     1       2.033   7.478  19.437  0.00  0.00    +0.000 A 
ATOM     21  C   UNL     1       1.911   8.479  18.467  0.00  0.00    +0.000 A 
ATOM     22  C   UNL     1       1.434   9.739  18.814  0.00  0.00    +0.000 A 
ATOM     23  C   UNL     1       1.025  10.003  20.126  0.00  0.00    +0.000 A 
ATOM     24  C   UNL     1       1.170   9.019  21.102  0.00  0.00    +0.000 A 
ATOM     25  C   UNL     1       1.671   7.756  20.760  0.00  0.00    +0.000 A 
BRANCH  23  26
ATOM     26  O   UNL     1       0.463  11.190  20.534  0.00  0.00    +0.000 OA
BRANCH  26  27
ATOM     27  C   UNL     1      -0.091  11.961  19.457  0.00  0.00    +0.000 C 
BRANCH  27  28
ATOM     28  C   UNL     1      -1.603  11.727  19.339  0.00  0.00    +0.000 C 
BRANCH  28  29
ATOM     29  N   UNL     1      -2.025  11.522  17.936  0.00  0.00    +0.000 NA
ATOM     30  C   UNL     1      -3.451  11.825  17.752  0.00  0.00    +0.000 C 
ATOM     31  C   UNL     1      -4.165  10.519  18.037  0.00  0.00    +0.000 C 
ATOM     32  C   UNL     1      -3.243   9.492  17.418  0.00  0.00    +0.000 C 
ATOM     33  C   UNL     1      -1.860  10.124  17.486  0.00  0.00    +0.000 C 
ENDBRANCH  28  29
ENDBRANCH  27  28
ENDBRANCH  26  27
ENDBRANCH  23  26
ENDBRANCH   1  20
TORSDOF 9
ENDMDL
MODEL 5
REMARK VINA RESULT:      -8.1      2.075      2.863
REMARK  Name = 
REMARK  11 active torsions:
REMARK  status: ('A' for Active; 'I' for Inactive)
REMARK    1  A    between atoms: C_1  and  C_2
REMARK    2  A    between atoms: C_2  and  O_4
REMARK    3  A    between atoms: O_4  and  C_5
REMARK    4  A    between atoms: C_8  and  C_9
REMARK    5  A    between atoms: C_9  and  C_18
REMARK    6  A    between atoms: C_10  and  C_11
REMARK    7  A    between atoms: C_10  and  C_12
REMARK    8  A    between atoms: C_21  and  O_22
REMARK    9  A    between atoms: O_22  and  C_23
REMARK   10  A    between atoms: C_23  and  C_24
REMARK   11  A    between atoms: C_24  and  N_25
REMARK                            x       y       z     vdW  Elec       q    Type
REMARK                         _______ _______ _______ _____ _____    ______ ____
ROOT
ATOM      1  C   UNL     1       2.651   6.216  19.163  0.00  0.00    +0.000 C 
ATOM      2  C   UNL     1       2.023   5.071  19.546  0.00  0.00    +0.000 C 
ATOM      3  C   UNL     1       0.736   4.999  20.348  0.00  0.00    +0.000 C 
ENDROOT
BRANCH   1   7
ATOM      4  C   UNL     1       6.256   6.145  16.831  0.00  0.00    +0.000 A 
ATOM      5  C   UNL     1       5.066   6.605  16.264  0.00  0.00    +0.000 A 
ATOM      6  C   UNL     1       3.895   6.640  17.029  0.00  0.00    +0.000 A 
ATOM      7  C   UNL     1       3.901   6.195  18.359  0.00  0.00    +0.000 A 
ATOM      8  C   UNL     1       5.107   5.752  18.919  0.00  0.00    +0.000 A 
ATOM      9  C   UNL     1       6.282   5.716  18.155  0.00  0.00    +0.000 A 
BRANCH   4  10
ATOM     10  O   UNL     1       7.366   6.065  15.959  0.00  0.00    +0.000 OA
BRANCH  10  12
ATOM     11  C   UNL     1       6.576   4.021  15.081  0.00  0.00    +0.000 C 
ATOM     12  C   UNL     1       7.364   5.271  14.815  0.00  0.00    +0.000 C 
ATOM     13  O   UNL     1       7.906   5.520  13.743  0.00  0.00    +0.000 OA
ENDBRANCH  10  12
ENDBRANCH   4  10
ENDBRANCH   1   7
BRANCH   2  14
ATOM     14  C   UNL     1       2.524   3.709  19.262  0.00  0.00    +0.000 A 
ATOM     15  C   UNL     1       2.255   3.112  18.021  0.00  0.00    +0.000 A 
ATOM     16  C   UNL     1       2.883   1.917  17.663  0.00  0.00    +0.000 A 
ATOM     17  C   UNL     1       3.780   1.310  18.542  0.00  0.00    +0.000 A 
ATOM     18  C   UNL     1       4.034   1.886  19.787  0.00  0.00    +0.000 A 
ATOM     19  C   UNL     1       3.404   3.080  20.148  0.00  0.00    +0.000 A 
ENDBRANCH   2  14
BRANCH   1  20
ATOM     20  C   UNL     1       2.080   7.495  19.647  0.00  0.00    +0.000 A 
ATOM     21  C   UNL     1       1.809   7.633  21.012  0.00  0.00    +0.000 A 
ATOM     22  C   UNL     1       1.183   8.780  21.492  0.00  0.00    +0.000 A 
ATOM     23  C   UNL     1       0.863   9.827  20.622  0.00  0.00    +0.000 A 
ATOM     24  C   UNL     1       1.105   9.683  19.256  0.00  0.00    +0.000 A 
ATOM     25  C   UNL     1       1.715   8.521  18.767  0.00  0.00    +0.000 A 
BRANCH  23  26
ATOM     26  O   UNL     1       0.323  11.026  21.023  0.00  0.00    +0.000 OA
BRANCH  26  27
ATOM     27  C   UNL     1      -0.685  10.888  22.036  0.00  0.00    +0.000 C 
BRANCH  27  28
ATOM     28  C   UNL     1      -0.914  12.218  22.766  0.00  0.00    +0.000 C 
BRANCH  28  29
ATOM     29  N   UNL     1      -1.806  13.121  22.009  0.00  0.00    +0.000 NA
ATOM     30  C   UNL     1      -1.983  14.407  22.698  0.00  0.00    +0.000 C 
ATOM     31  C   UNL     1      -3.169  14.194  23.618  0.00  0.00    +0.000 C 
ATOM     32  C   UNL     1      -4.094  13.340  22.780  0.00  0.00    +0.000 C 
ATOM     33  C   UNL     1      -3.169  12.575  21.843  0.00  0.00    +0.000 C 
ENDBRANCH  28  29
ENDBRANCH  27  28
ENDBRANCH  26  27
ENDBRANCH  23  26
ENDBRANCH   1  20
TORSDOF 9
ENDMDL
MODEL 6
REMARK VINA RESULT:      -7.9      1.869      2.709
REMARK  Name = 
REMARK  11 active torsions:
REMARK  status: ('A' for Active; 'I' for Inactive)
REMARK    1  A    between atoms: C_1  and  C_2
REMARK    2  A    between atoms: C_2  and  O_4
REMARK    3  A    between atoms: O_4  and  C_5
REMARK    4  A    between atoms: C_8  and  C_9
REMARK    5  A    between atoms: C_9  and  C_18
REMARK    6  A    between atoms: C_10  and  C_11
REMARK    7  A    between atoms: C_10  and  C_12
REMARK    8  A    between atoms: C_21  and  O_22
REMARK    9  A    between atoms: O_22  and  C_23
REMARK   10  A    between atoms: C_23  and  C_24
REMARK   11  A    between atoms: C_24  and  N_25
REMARK                            x       y       z     vdW  Elec       q    Type
REMARK                         _______ _______ _______ _____ _____    ______ ____
ROOT
ATOM      1  C   UNL     1       2.747   6.208  18.947  0.00  0.00    +0.000 C 
ATOM      2  C   UNL     1       2.147   5.095  19.451  0.00  0.00    +0.000 C 
ATOM      3  C   UNL     1       0.870   5.080  20.271  0.00  0.00    +0.000 C 
ENDROOT
BRANCH   1   7
ATOM      4  C   UNL     1       6.330   5.974  16.591  0.00  0.00    +0.000 A 
ATOM      5  C   UNL     1       5.164   6.507  16.039  0.00  0.00    +0.000 A 
ATOM      6  C   UNL     1       4.001   6.594  16.811  0.00  0.00    +0.000 A 
ATOM      7  C   UNL     1       3.989   6.131  18.135  0.00  0.00    +0.000 A 
ATOM      8  C   UNL     1       5.172   5.614  18.681  0.00  0.00    +0.000 A 
ATOM      9  C   UNL     1       6.340   5.525  17.908  0.00  0.00    +0.000 A 
BRANCH   4  10
ATOM     10  O   UNL     1       7.429   5.847  15.711  0.00  0.00    +0.000 OA
BRANCH  10  12
ATOM     11  C   UNL     1       6.495   3.975  14.617  0.00  0.00    +0.000 C 
ATOM     12  C   UNL     1       7.328   5.217  14.474  0.00  0.00    +0.000 C 
ATOM     13  O   UNL     1       7.824   5.586  13.415  0.00  0.00    +0.000 OA
ENDBRANCH  10  12
ENDBRANCH   4  10
ENDBRANCH   1   7
BRANCH   2  14
ATOM     14  C   UNL     1       2.674   3.721  19.301  0.00  0.00    +0.000 A 
ATOM     15  C   UNL     1       2.477   3.027  18.098  0.00  0.00    +0.000 A 
ATOM     16  C   UNL     1       3.133   1.816  17.868  0.00  0.00    +0.000 A 
ATOM     17  C   UNL     1       3.987   1.291  18.838  0.00  0.00    +0.000 A 
ATOM     18  C   UNL     1       4.170   1.965  20.045  0.00  0.00    +0.000 A 
ATOM     19  C   UNL     1       3.512   3.175  20.278  0.00  0.00    +0.000 A 
ENDBRANCH   2  14
BRANCH   1  20
ATOM     20  C   UNL     1       2.153   7.518  19.305  0.00  0.00    +0.000 A 
ATOM     21  C   UNL     1       1.825   7.761  20.643  0.00  0.00    +0.000 A 
ATOM     22  C   UNL     1       1.177   8.937  21.005  0.00  0.00    +0.000 A 
ATOM     23  C   UNL     1       0.892   9.912  20.043  0.00  0.00    +0.000 A 
ATOM     24  C   UNL     1       1.192   9.664  18.704  0.00  0.00    +0.000 A 
ATOM     25  C   UNL     1       1.824   8.470  18.333  0.00  0.00    +0.000 A 
BRANCH  23  26
ATOM     26  O   UNL     1       0.333  11.136  20.327  0.00  0.00    +0.000 OA
BRANCH  26  27
ATOM     27  C   UNL     1      -0.022  11.887  19.156  0.00  0.00    +0.000 C 
BRANCH  27  28
ATOM     28  C   UNL     1      -0.752  13.182  19.537  0.00  0.00    +0.000 C 
BRANCH  28  29
ATOM     29  N   UNL     1      -0.201  14.358  18.830  0.00  0.00    +0.000 NA
ATOM     30  C   UNL     1       1.268  14.318  18.780  0.00  0.00    +0.000 C 
ATOM     31  C   UNL     1       1.719  15.013  20.049  0.00  0.00    +0.000 C 
ATOM     32  C   UNL     1       0.724  16.145  20.181  0.00  0.00    +0.000 C 
ATOM     33  C   UNL     1      -0.535  15.635  19.493  0.00  0.00    +0.000 C 
ENDBRANCH  28  29
ENDBRANCH  27  28
ENDBRANCH  26  27
ENDBRANCH  23  26
ENDBRANCH   1  20
TORSDOF 9
ENDMDL
MODEL 7
REMARK VINA RESULT:      -7.9      3.396     10.664
REMARK  Name = 
REMARK  11 active torsions:
REMARK  status: ('A' for Active; 'I' for Inactive)
REMARK    1  A    between atoms: C_1  and  C_2
REMARK    2  A    between atoms: C_2  and  O_4
REMARK    3  A    between atoms: O_4  and  C_5
REMARK    4  A    between atoms: C_8  and  C_9
REMARK    5  A    between atoms: C_9  and  C_18
REMARK    6  A    between atoms: C_10  and  C_11
REMARK    7  A    between atoms: C_10  and  C_12
REMARK    8  A    between atoms: C_21  and  O_22
REMARK    9  A    between atoms: O_22  and  C_23
REMARK   10  A    between atoms: C_23  and  C_24
REMARK   11  A    between atoms: C_24  and  N_25
REMARK                            x       y       z     vdW  Elec       q    Type
REMARK                         _______ _______ _______ _____ _____    ______ ____
ROOT
ATOM      1  C   UNL     1      -0.303  11.478  19.098  0.00  0.00    +0.000 C 
ATOM      2  C   UNL     1       0.320  12.603  19.542  0.00  0.00    +0.000 C 
ATOM      3  C   UNL     1       1.730  12.667  20.101  0.00  0.00    +0.000 C 
ENDROOT
BRANCH   1   7
ATOM      4  C   UNL     1      -4.291  11.554  17.509  0.00  0.00    +0.000 A 
ATOM      5  C   UNL     1      -4.066  11.885  18.846  0.00  0.00    +0.000 A 
ATOM      6  C   UNL     1      -2.764  11.872  19.360  0.00  0.00    +0.000 A 
ATOM      7  C   UNL     1      -1.682  11.508  18.545  0.00  0.00    +0.000 A 
ATOM      8  C   UNL     1      -1.923  11.196  17.200  0.00  0.00    +0.000 A 
ATOM      9  C   UNL     1      -3.226  11.207  16.683  0.00  0.00    +0.000 A 
BRANCH   4  10
ATOM     10  O   UNL     1      -5.645  11.511  17.102  0.00  0.00    +0.000 OA
BRANCH  10  12
ATOM     11  C   UNL     1      -6.636  13.648  16.934  0.00  0.00    +0.000 C 
ATOM     12  C   UNL     1      -6.620  12.333  17.661  0.00  0.00    +0.000 C 
ATOM     13  O   UNL     1      -7.367  12.063  18.595  0.00  0.00    +0.000 OA
ENDBRANCH  10  12
ENDBRANCH   4  10
ENDBRANCH   1   7
BRANCH   2  14
ATOM     14  C   UNL     1      -0.305  13.944  19.577  0.00  0.00    +0.000 A 
ATOM     15  C   UNL     1      -0.924  14.394  20.753  0.00  0.00    +0.000 A 
ATOM     16  C   UNL     1      -1.340  15.722  20.866  0.00  0.00    +0.000 A 
ATOM     17  C   UNL     1      -1.143  16.607  19.806  0.00  0.00    +0.000 A 
ATOM     18  C   UNL     1      -0.549  16.160  18.625  0.00  0.00    +0.000 A 
ATOM     19  C   UNL     1      -0.135  14.831  18.509  0.00  0.00    +0.000 A 
ENDBRANCH   2  14
BRANCH   1  20
ATOM     20  C   UNL     1       0.424  10.195  19.258  0.00  0.00    +0.000 A 
ATOM     21  C   UNL     1       0.388   9.556  20.501  0.00  0.00    +0.000 A 
ATOM     22  C   UNL     1       1.135   8.403  20.720  0.00  0.00    +0.000 A 
ATOM     23  C   UNL     1       1.891   7.843  19.685  0.00  0.00    +0.000 A 
ATOM     24  C   UNL     1       1.953   8.491  18.452  0.00  0.00    +0.000 A 
ATOM     25  C   UNL     1       1.219   9.665  18.235  0.00  0.00    +0.000 A 
BRANCH  23  26
ATOM     26  O   UNL     1       2.589   6.663  19.790  0.00  0.00    +0.000 OA
BRANCH  26  27
ATOM     27  C   UNL     1       3.182   6.238  18.554  0.00  0.00    +0.000 C 
BRANCH  27  28
ATOM     28  C   UNL     1       4.546   5.579  18.799  0.00  0.00    +0.000 C 
BRANCH  28  29
ATOM     29  N   UNL     1       5.383   5.567  17.580  0.00  0.00    +0.000 NA
ATOM     30  C   UNL     1       6.576   4.725  17.754  0.00  0.00    +0.000 C 
ATOM     31  C   UNL     1       7.626   5.655  18.328  0.00  0.00    +0.000 C 
ATOM     32  C   UNL     1       7.377   6.945  17.578  0.00  0.00    +0.000 C 
ATOM     33  C   UNL     1       5.897   6.905  17.223  0.00  0.00    +0.000 C 
ENDBRANCH  28  29
ENDBRANCH  27  28
ENDBRANCH  26  27
ENDBRANCH  23  26
ENDBRANCH   1  20
TORSDOF 9
ENDMDL
MODEL 8
REMARK VINA RESULT:      -7.9      3.276     10.432
REMARK  Name = 
REMARK  11 active torsions:
REMARK  status: ('A' for Active; 'I' for Inactive)
REMARK    1  A    between atoms: C_1  and  C_2
REMARK    2  A    between atoms: C_2  and  O_4
REMARK    3  A    between atoms: O_4  and  C_5
REMARK    4  A    between atoms: C_8  and  C_9
REMARK    5  A    between atoms: C_9  and  C_18
REMARK    6  A    between atoms: C_10  and  C_11
REMARK    7  A    between atoms: C_10  and  C_12
REMARK    8  A    between atoms: C_21  and  O_22
REMARK    9  A    between atoms: O_22  and  C_23
REMARK   10  A    between atoms: C_23  and  C_24
REMARK   11  A    between atoms: C_24  and  N_25
REMARK                            x       y       z     vdW  Elec       q    Type
REMARK                         _______ _______ _______ _____ _____    ______ ____
ROOT
ATOM      1  C   UNL     1      -0.095  11.249  18.996  0.00  0.00    +0.000 C 
ATOM      2  C   UNL     1       0.547  12.371  19.419  0.00  0.00    +0.000 C 
ATOM      3  C   UNL     1       1.996  12.439  19.868  0.00  0.00    +0.000 C 
ENDROOT
BRANCH   1   7
ATOM      4  C   UNL     1      -4.197  11.315  17.727  0.00  0.00    +0.000 A 
ATOM      5  C   UNL     1      -3.825  11.939  18.919  0.00  0.00    +0.000 A 
ATOM      6  C   UNL     1      -2.485  11.928  19.325  0.00  0.00    +0.000 A 
ATOM      7  C   UNL     1      -1.514  11.275  18.553  0.00  0.00    +0.000 A 
ATOM      8  C   UNL     1      -1.901  10.669  17.350  0.00  0.00    +0.000 A 
ATOM      9  C   UNL     1      -3.242  10.678  16.940  0.00  0.00    +0.000 A 
BRANCH   4  10
ATOM     10  O   UNL     1      -5.582  11.304  17.442  0.00  0.00    +0.000 OA
BRANCH  10  12
ATOM     11  C   UNL     1      -7.336  12.215  18.732  0.00  0.00    +0.000 C 
ATOM     12  C   UNL     1      -6.541  10.986  18.399  0.00  0.00    +0.000 C 
ATOM     13  O   UNL     1      -6.737   9.889  18.911  0.00  0.00    +0.000 OA
ENDBRANCH  10  12
ENDBRANCH   4  10
ENDBRANCH   1   7
BRANCH   2  14
ATOM     14  C   UNL     1      -0.087  13.702  19.536  0.00  0.00    +0.000 A 
ATOM     15  C   UNL     1      -0.552  14.146  20.783  0.00  0.00    +0.000 A 
ATOM     16  C   UNL     1      -0.969  15.468  20.950  0.00  0.00    +0.000 A 
ATOM     17  C   UNL     1      -0.928  16.353  19.872  0.00  0.00    +0.000 A 
ATOM     18  C   UNL     1      -0.488  15.912  18.624  0.00  0.00    +0.000 A 
ATOM     19  C   UNL     1      -0.073  14.589  18.455  0.00  0.00    +0.000 A 
ENDBRANCH   2  14
BRANCH   1  20
ATOM     20  C   UNL     1       0.655   9.972  19.067  0.00  0.00    +0.000 A 
ATOM     21  C   UNL     1       0.701   9.289  20.286  0.00  0.00    +0.000 A 
ATOM     22  C   UNL     1       1.474   8.140  20.420  0.00  0.00    +0.000 A 
ATOM     23  C   UNL     1       2.174   7.628  19.323  0.00  0.00    +0.000 A 
ATOM     24  C   UNL     1       2.155   8.320  18.112  0.00  0.00    +0.000 A 
ATOM     25  C   UNL     1       1.395   9.489  17.981  0.00  0.00    +0.000 A 
BRANCH  23  26
ATOM     26  O   UNL     1       2.892   6.455  19.344  0.00  0.00    +0.000 OA
BRANCH  26  27
ATOM     27  C   UNL     1       2.826   5.722  18.112  0.00  0.00    +0.000 C 
BRANCH  27  28
ATOM     28  C   UNL     1       4.061   4.829  17.939  0.00  0.00    +0.000 C 
BRANCH  28  29
ATOM     29  N   UNL     1       5.266   5.610  17.585  0.00  0.00    +0.000 NA
ATOM     30  C   UNL     1       5.112   6.279  16.286  0.00  0.00    +0.000 C 
ATOM     31  C   UNL     1       5.607   5.270  15.269  0.00  0.00    +0.000 C 
ATOM     32  C   UNL     1       6.792   4.644  15.969  0.00  0.00    +0.000 C 
ATOM     33  C   UNL     1       6.475   4.772  17.453  0.00  0.00    +0.000 C 
ENDBRANCH  28  29
ENDBRANCH  27  28
ENDBRANCH  26  27
ENDBRANCH  23  26
ENDBRANCH   1  20
TORSDOF 9
ENDMDL
MODEL 9
REMARK VINA RESULT:      -7.9      3.348     10.485
REMARK  Name = 
REMARK  11 active torsions:
REMARK  status: ('A' for Active; 'I' for Inactive)
REMARK    1  A    between atoms: C_1  and  C_2
REMARK    2  A    between atoms: C_2  and  O_4
REMARK    3  A    between atoms: O_4  and  C_5
REMARK    4  A    between atoms: C_8  and  C_9
REMARK    5  A    between atoms: C_9  and  C_18
REMARK    6  A    between atoms: C_10  and  C_11
REMARK    7  A    between atoms: C_10  and  C_12
REMARK    8  A    between atoms: C_21  and  O_22
REMARK    9  A    between atoms: O_22  and  C_23
REMARK   10  A    between atoms: C_23  and  C_24
REMARK   11  A    between atoms: C_24  and  N_25
REMARK                            x       y       z     vdW  Elec       q    Type
REMARK                         _______ _______ _______ _____ _____    ______ ____
ROOT
ATOM      1  C   UNL     1      -0.132  11.617  19.136  0.00  0.00    +0.000 C 
ATOM      2  C   UNL     1       0.463  12.769  19.548  0.00  0.00    +0.000 C 
ATOM      3  C   UNL     1       1.884  12.887  20.069  0.00  0.00    +0.000 C 
ENDROOT
BRANCH   1   7
ATOM      4  C   UNL     1      -4.154  11.563  17.632  0.00  0.00    +0.000 A 
ATOM      5  C   UNL     1      -3.092  11.213  16.797  0.00  0.00    +0.000 A 
ATOM      6  C   UNL     1      -1.783  11.219  17.292  0.00  0.00    +0.000 A 
ATOM      7  C   UNL     1      -1.525  11.594  18.618  0.00  0.00    +0.000 A 
ATOM      8  C   UNL     1      -2.605  11.926  19.449  0.00  0.00    +0.000 A 
ATOM      9  C   UNL     1      -3.918  11.921  18.956  0.00  0.00    +0.000 A 
BRANCH   4  10
ATOM     10  O   UNL     1      -5.429  11.612  17.023  0.00  0.00    +0.000 OA
BRANCH  10  12
ATOM     11  C   UNL     1      -6.578  13.674  17.036  0.00  0.00    +0.000 C 
ATOM     12  C   UNL     1      -6.507  12.282  17.595  0.00  0.00    +0.000 C 
ATOM     13  O   UNL     1      -7.296  11.841  18.423  0.00  0.00    +0.000 OA
ENDBRANCH  10  12
ENDBRANCH   4  10
ENDBRANCH   1   7
BRANCH   2  14
ATOM     14  C   UNL     1      -0.205  14.088  19.581  0.00  0.00    +0.000 A 
ATOM     15  C   UNL     1      -0.850  14.515  20.752  0.00  0.00    +0.000 A 
ATOM     16  C   UNL     1      -1.310  15.828  20.864  0.00  0.00    +0.000 A 
ATOM     17  C   UNL     1      -1.131  16.722  19.808  0.00  0.00    +0.000 A 
ATOM     18  C   UNL     1      -0.511  16.298  18.633  0.00  0.00    +0.000 A 
ATOM     19  C   UNL     1      -0.053  14.984  18.517  0.00  0.00    +0.000 A 
ENDBRANCH   2  14
BRANCH   1  20
ATOM     20  C   UNL     1       0.640  10.361  19.294  0.00  0.00    +0.000 A 
ATOM     21  C   UNL     1       1.365   9.878  18.200  0.00  0.00    +0.000 A 
ATOM     22  C   UNL     1       2.023   8.655  18.277  0.00  0.00    +0.000 A 
ATOM     23  C   UNL     1       2.008   7.919  19.467  0.00  0.00    +0.000 A 
ATOM     24  C   UNL     1       1.265   8.382  20.552  0.00  0.00    +0.000 A 
ATOM     25  C   UNL     1       0.583   9.603  20.469  0.00  0.00    +0.000 A 
BRANCH  23  26
ATOM     26  O   UNL     1       2.701   6.746  19.657  0.00  0.00    +0.000 OA
BRANCH  26  27
ATOM     27  C   UNL     1       3.462   6.340  18.509  0.00  0.00    +0.000 C 
BRANCH  27  28
ATOM     28  C   UNL     1       4.017   4.921  18.695  0.00  0.00    +0.000 C 
BRANCH  28  29
ATOM     29  N   UNL     1       3.013   4.004  19.277  0.00  0.00    +0.000 NA
ATOM     30  C   UNL     1       3.623   2.734  19.695  0.00  0.00    +0.000 C 
ATOM     31  C   UNL     1       3.553   1.847  18.468  0.00  0.00    +0.000 C 
ATOM     32  C   UNL     1       2.204   2.197  17.879  0.00  0.00    +0.000 C 
ATOM     33  C   UNL     1       1.952   3.632  18.319  0.00  0.00    +0.000 C 
ENDBRANCH  28  29
ENDBRANCH  27  28
ENDBRANCH  26  27
ENDBRANCH  23  26
ENDBRANCH   1  20
TORSDOF 9
ENDMDL
