MODEL 1
REMARK VINA RESULT:      -7.8      0.000      0.000
REMARK  Name = 
REMARK  8 active torsions:
REMARK  status: ('A' for Active; 'I' for Inactive)
REMARK    1  A    between atoms: C_1  and  O_2
REMARK    2  A    between atoms: O_2  and  C_3
REMARK    3  A    between atoms: C_6  and  C_7
REMARK    4  A    between atoms: C_14  and  C_15
REMARK    5  A    between atoms: C_15  and  C_16
REMARK    6  A    between atoms: C_25  and  C_26
REMARK    7  A    between atoms: C_29  and  O_30
REMARK    8  A    between atoms: O_30  and  C_31
REMARK                            x       y       z     vdW  Elec       q    Type
REMARK                         _______ _______ _______ _____ _____    ______ ____
ROOT
ATOM      1  C   UNL     1       0.001  10.498  20.073  0.00  0.00    +0.000 A 
ATOM      2  O   UNL     1       0.393  10.999  21.285  0.00  0.00    +0.000 OA
ATOM      3  C   UNL     1      -0.539  11.880  21.717  0.00  0.00    +0.000 A 
ATOM      4  N   UNL     1      -0.431  12.523  22.922  0.00  0.00    +0.000 NA
ATOM      5  C   UNL     1      -1.419  13.316  23.227  0.00  0.00    +0.000 A 
ATOM      6  N   UNL     1      -2.508  13.501  22.371  0.00  0.00    +0.000 N 
ATOM      7  N   UNL     1      -3.535  14.315  22.645  0.00  0.00    +0.000 NA
ATOM      8  C   UNL     1      -4.301  14.143  21.554  0.00  0.00    +0.000 A 
ATOM      9  N   UNL     1      -3.765  13.280  20.595  0.00  0.00    +0.000 NA
ATOM     10  C   UNL     1      -2.641  12.889  21.152  0.00  0.00    +0.000 A 
ATOM     11  C   UNL     1      -1.545  11.968  20.760  0.00  0.00    +0.000 A 
ATOM     12  C   UNL     1      -1.193  11.119  19.668  0.00  0.00    +0.000 A 
ENDROOT
BRANCH   1  16
ATOM     13  C   UNL     1       2.632   7.384  18.656  0.00  0.00    +0.000 A 
ATOM     14  C   UNL     1       2.237   8.418  17.808  0.00  0.00    +0.000 A 
ATOM     15  C   UNL     1       1.378   9.432  18.258  0.00  0.00    +0.000 A 
ATOM     16  C   UNL     1       0.913   9.452  19.578  0.00  0.00    +0.000 A 
ATOM     17  C   UNL     1       1.308   8.393  20.416  0.00  0.00    +0.000 A 
ATOM     18  C   UNL     1       2.156   7.367  19.963  0.00  0.00    +0.000 A 
BRANCH  13  20
ATOM     19  C   UNL     1       3.715   5.279  18.853  0.00  0.00    +0.000 C 
ATOM     20  O   UNL     1       3.430   6.437  18.079  0.00  0.00    +0.000 OA
ENDBRANCH  13  20
ENDBRANCH   1  16
BRANCH  12  21
ATOM     21  C   UNL     1      -1.872  10.860  18.399  0.00  0.00    +0.000 A 
ATOM     22  C   UNL     1      -2.590   9.675  18.183  0.00  0.00    +0.000 A 
ATOM     23  C   UNL     1      -3.309   9.472  17.000  0.00  0.00    +0.000 A 
ATOM     24  C   UNL     1      -3.289  10.428  15.988  0.00  0.00    +0.000 A 
ATOM     25  C   UNL     1      -2.536  11.587  16.166  0.00  0.00    +0.000 A 
ATOM     26  C   UNL     1      -1.839  11.803  17.365  0.00  0.00    +0.000 A 
BRANCH  24  27
ATOM     27  O   UNL     1      -4.002  10.096  14.870  0.00  0.00    +0.000 OA
ATOM     28  C   UNL     1      -3.261   9.953  13.665  0.00  0.00    +0.000 C 
ENDBRANCH  24  27
ENDBRANCH  12  21
BRANCH   8  29
ATOM     29  C   UNL     1      -5.542  14.951  21.354  0.00  0.00    +0.000 C 
BRANCH  29  30
ATOM     30  C   UNL     1      -6.282  14.389  20.161  0.00  0.00    +0.000 A 
ATOM     31  C   UNL     1      -6.913  13.135  20.219  0.00  0.00    +0.000 A 
ATOM     32  C   UNL     1      -7.640  12.651  19.127  0.00  0.00    +0.000 A 
ATOM     33  C   UNL     1      -7.744  13.412  17.965  0.00  0.00    +0.000 A 
ATOM     34  C   UNL     1      -7.120  14.656  17.892  0.00  0.00    +0.000 A 
ATOM     35  C   UNL     1      -6.393  15.140  18.982  0.00  0.00    +0.000 A 
ENDBRANCH  29  30
ENDBRANCH   8  29
TORSDOF 6
ENDMDL
MODEL 2
REMARK VINA RESULT:      -7.6      0.506      1.058
REMARK  Name = 
REMARK  8 active torsions:
REMARK  status: ('A' for Active; 'I' for Inactive)
REMARK    1  A    between atoms: C_1  and  O_2
REMARK    2  A    between atoms: O_2  and  C_3
REMARK    3  A    between atoms: C_6  and  C_7
REMARK    4  A    between atoms: C_14  and  C_15
REMARK    5  A    between atoms: C_15  and  C_16
REMARK    6  A    between atoms: C_25  and  C_26
REMARK    7  A    between atoms: C_29  and  O_30
REMARK    8  A    between atoms: O_30  and  C_31
REMARK                            x       y       z     vdW  Elec       q    Type
REMARK                         _______ _______ _______ _____ _____    ______ ____
ROOT
ATOM      1  C   UNL     1      -0.062  10.594  20.039  0.00  0.00    +0.000 A 
ATOM      2  O   UNL     1       0.353  11.103  21.241  0.00  0.00    +0.000 OA
ATOM      3  C   UNL     1      -0.596  11.947  21.709  0.00  0.00    +0.000 A 
ATOM      4  N   UNL     1      -0.471  12.587  22.914  0.00  0.00    +0.000 NA
ATOM      5  C   UNL     1      -1.477  13.341  23.257  0.00  0.00    +0.000 A 
ATOM      6  N   UNL     1      -2.601  13.489  22.440  0.00  0.00    +0.000 N 
ATOM      7  N   UNL     1      -3.647  14.263  22.753  0.00  0.00    +0.000 NA
ATOM      8  C   UNL     1      -4.444  14.067  21.688  0.00  0.00    +0.000 A 
ATOM      9  N   UNL     1      -3.909  13.230  20.706  0.00  0.00    +0.000 NA
ATOM     10  C   UNL     1      -2.752  12.878  21.222  0.00  0.00    +0.000 A 
ATOM     11  C   UNL     1      -1.637  12.001  20.788  0.00  0.00    +0.000 A 
ATOM     12  C   UNL     1      -1.291  11.171  19.679  0.00  0.00    +0.000 A 
ENDROOT
BRANCH   1  16
ATOM     13  C   UNL     1       2.629   7.588  18.506  0.00  0.00    +0.000 A 
ATOM     14  C   UNL     1       2.294   8.699  17.734  0.00  0.00    +0.000 A 
ATOM     15  C   UNL     1       1.417   9.679  18.222  0.00  0.00    +0.000 A 
ATOM     16  C   UNL     1       0.871   9.585  19.507  0.00  0.00    +0.000 A 
ATOM     17  C   UNL     1       1.206   8.450  20.267  0.00  0.00    +0.000 A 
ATOM     18  C   UNL     1       2.073   7.458  19.775  0.00  0.00    +0.000 A 
BRANCH  13  20
ATOM     19  C   UNL     1       3.940   5.616  18.694  0.00  0.00    +0.000 C 
ATOM     20  O   UNL     1       3.454   6.686  17.895  0.00  0.00    +0.000 OA
ENDBRANCH  13  20
ENDBRANCH   1  16
BRANCH  12  21
ATOM     21  C   UNL     1      -2.003  10.893  18.432  0.00  0.00    +0.000 A 
ATOM     22  C   UNL     1      -3.198  11.554  18.111  0.00  0.00    +0.000 A 
ATOM     23  C   UNL     1      -3.828  11.348  16.879  0.00  0.00    +0.000 A 
ATOM     24  C   UNL     1      -3.303  10.443  15.960  0.00  0.00    +0.000 A 
ATOM     25  C   UNL     1      -2.147   9.738  16.288  0.00  0.00    +0.000 A 
ATOM     26  C   UNL     1      -1.499   9.968  17.512  0.00  0.00    +0.000 A 
BRANCH  24  27
ATOM     27  O   UNL     1      -4.030  10.305  14.810  0.00  0.00    +0.000 OA
ATOM     28  C   UNL     1      -3.314   9.894  13.653  0.00  0.00    +0.000 C 
ENDBRANCH  24  27
ENDBRANCH  12  21
BRANCH   8  29
ATOM     29  C   UNL     1      -5.720  14.829  21.536  0.00  0.00    +0.000 C 
BRANCH  29  30
ATOM     30  C   UNL     1      -6.425  14.321  20.298  0.00  0.00    +0.000 A 
ATOM     31  C   UNL     1      -6.446  15.074  19.111  0.00  0.00    +0.000 A 
ATOM     32  C   UNL     1      -7.054  14.569  17.958  0.00  0.00    +0.000 A 
ATOM     33  C   UNL     1      -7.649  13.310  17.975  0.00  0.00    +0.000 A 
ATOM     34  C   UNL     1      -7.638  12.554  19.146  0.00  0.00    +0.000 A 
ATOM     35  C   UNL     1      -7.032  13.057  20.300  0.00  0.00    +0.000 A 
ENDBRANCH  29  30
ENDBRANCH   8  29
TORSDOF 6
ENDMDL
MODEL 3
REMARK VINA RESULT:      -7.5      0.196      1.162
REMARK  Name = 
REMARK  8 active torsions:
REMARK  status: ('A' for Active; 'I' for Inactive)
REMARK    1  A    between atoms: C_1  and  O_2
REMARK    2  A    between atoms: O_2  and  C_3
REMARK    3  A    between atoms: C_6  and  C_7
REMARK    4  A    between atoms: C_14  and  C_15
REMARK    5  A    between atoms: C_15  and  C_16
REMARK    6  A    between atoms: C_25  and  C_26
REMARK    7  A    between atoms: C_29  and  O_30
REMARK    8  A    between atoms: O_30  and  C_31
REMARK                            x       y       z     vdW  Elec       q    Type
REMARK                         _______ _______ _______ _____ _____    ______ ____
ROOT
ATOM      1  C   UNL     1      -0.078  10.450  20.060  0.00  0.00    +0.000 A 
ATOM      2  O   UNL     1       0.336  10.956  21.263  0.00  0.00    +0.000 OA
ATOM      3  C   UNL     1      -0.586  11.841  21.707  0.00  0.00    +0.000 A 
ATOM      4  N   UNL     1      -0.455  12.490  22.907  0.00  0.00    +0.000 NA
ATOM      5  C   UNL     1      -1.436  13.286  23.225  0.00  0.00    +0.000 A 
ATOM      6  N   UNL     1      -2.540  13.470  22.387  0.00  0.00    +0.000 N 
ATOM      7  N   UNL     1      -3.559  14.289  22.674  0.00  0.00    +0.000 NA
ATOM      8  C   UNL     1      -4.345  14.113  21.598  0.00  0.00    +0.000 A 
ATOM      9  N   UNL     1      -3.827  13.244  20.634  0.00  0.00    +0.000 NA
ATOM     10  C   UNL     1      -2.695  12.853  21.173  0.00  0.00    +0.000 A 
ATOM     11  C   UNL     1      -1.608  11.927  20.767  0.00  0.00    +0.000 A 
ATOM     12  C   UNL     1      -1.277  11.072  19.673  0.00  0.00    +0.000 A 
ENDROOT
BRANCH   1  16
ATOM     13  C   UNL     1       2.590   7.419  18.539  0.00  0.00    +0.000 A 
ATOM     14  C   UNL     1       2.281   7.473  19.898  0.00  0.00    +0.000 A 
ATOM     15  C   UNL     1       1.418   8.457  20.402  0.00  0.00    +0.000 A 
ATOM     16  C   UNL     1       0.822   9.398  19.554  0.00  0.00    +0.000 A 
ATOM     17  C   UNL     1       1.156   9.339  18.190  0.00  0.00    +0.000 A 
ATOM     18  C   UNL     1       2.033   8.364  17.684  0.00  0.00    +0.000 A 
BRANCH  13  20
ATOM     19  C   UNL     1       3.546   5.301  19.033  0.00  0.00    +0.000 C 
ATOM     20  O   UNL     1       3.479   6.442  18.188  0.00  0.00    +0.000 OA
ENDBRANCH  13  20
ENDBRANCH   1  16
BRANCH  12  21
ATOM     21  C   UNL     1      -1.979  10.809  18.418  0.00  0.00    +0.000 A 
ATOM     22  C   UNL     1      -2.808   9.687  18.265  0.00  0.00    +0.000 A 
ATOM     23  C   UNL     1      -3.544   9.488  17.092  0.00  0.00    +0.000 A 
ATOM     24  C   UNL     1      -3.434  10.380  16.028  0.00  0.00    +0.000 A 
ATOM     25  C   UNL     1      -2.572  11.469  16.144  0.00  0.00    +0.000 A 
ATOM     26  C   UNL     1      -1.857  11.684  17.333  0.00  0.00    +0.000 A 
BRANCH  24  27
ATOM     27  O   UNL     1      -4.176  10.055  14.927  0.00  0.00    +0.000 OA
ATOM     28  C   UNL     1      -3.500  10.084  13.676  0.00  0.00    +0.000 C 
ENDBRANCH  24  27
ENDBRANCH  12  21
BRANCH   8  29
ATOM     29  C   UNL     1      -5.587  14.924  21.416  0.00  0.00    +0.000 C 
BRANCH  29  30
ATOM     30  C   UNL     1      -6.399  14.296  20.305  0.00  0.00    +0.000 A 
ATOM     31  C   UNL     1      -6.552  14.935  19.063  0.00  0.00    +0.000 A 
ATOM     32  C   UNL     1      -7.259  14.319  18.027  0.00  0.00    +0.000 A 
ATOM     33  C   UNL     1      -7.823  13.059  18.218  0.00  0.00    +0.000 A 
ATOM     34  C   UNL     1      -7.681  12.415  19.445  0.00  0.00    +0.000 A 
ATOM     35  C   UNL     1      -6.975  13.030  20.482  0.00  0.00    +0.000 A 
ENDBRANCH  29  30
ENDBRANCH   8  29
TORSDOF 6
ENDMDL
MODEL 4
REMARK VINA RESULT:      -7.4      1.128      1.917
REMARK  Name = 
REMARK  8 active torsions:
REMARK  status: ('A' for Active; 'I' for Inactive)
REMARK    1  A    between atoms: C_1  and  O_2
REMARK    2  A    between atoms: O_2  and  C_3
REMARK    3  A    between atoms: C_6  and  C_7
REMARK    4  A    between atoms: C_14  and  C_15
REMARK    5  A    between atoms: C_15  and  C_16
REMARK    6  A    between atoms: C_25  and  C_26
REMARK    7  A    between atoms: C_29  and  O_30
REMARK    8  A    between atoms: O_30  and  C_31
REMARK                            x       y       z     vdW  Elec       q    Type
REMARK                         _______ _______ _______ _____ _____    ______ ____
ROOT
ATOM      1  C   UNL     1      -0.029  10.639  20.070  0.00  0.00    +0.000 A 
ATOM      2  O   UNL     1       0.415  11.155  21.259  0.00  0.00    +0.000 OA
ATOM      3  C   UNL     1      -0.516  12.011  21.739  0.00  0.00    +0.000 A 
ATOM      4  N   UNL     1      -0.360  12.661  22.934  0.00  0.00    +0.000 NA
ATOM      5  C   UNL     1      -1.352  13.428  23.291  0.00  0.00    +0.000 A 
ATOM      6  N   UNL     1      -2.491  13.580  22.495  0.00  0.00    +0.000 N 
ATOM      7  N   UNL     1      -3.523  14.367  22.823  0.00  0.00    +0.000 NA
ATOM      8  C   UNL     1      -4.342  14.169  21.776  0.00  0.00    +0.000 A 
ATOM      9  N   UNL     1      -3.836  13.318  20.791  0.00  0.00    +0.000 NA
ATOM     10  C   UNL     1      -2.672  12.960  21.287  0.00  0.00    +0.000 A 
ATOM     11  C   UNL     1      -1.574  12.068  20.838  0.00  0.00    +0.000 A 
ATOM     12  C   UNL     1      -1.259  11.225  19.730  0.00  0.00    +0.000 A 
ENDROOT
BRANCH   1  16
ATOM     13  C   UNL     1       2.603   7.592  18.515  0.00  0.00    +0.000 A 
ATOM     14  C   UNL     1       2.208   8.664  17.714  0.00  0.00    +0.000 A 
ATOM     15  C   UNL     1       1.350   9.656  18.210  0.00  0.00    +0.000 A 
ATOM     16  C   UNL     1       0.884   9.615  19.529  0.00  0.00    +0.000 A 
ATOM     17  C   UNL     1       1.278   8.520  20.318  0.00  0.00    +0.000 A 
ATOM     18  C   UNL     1       2.126   7.516  19.819  0.00  0.00    +0.000 A 
BRANCH  13  20
ATOM     19  C   UNL     1       3.526   5.403  18.525  0.00  0.00    +0.000 C 
ATOM     20  O   UNL     1       3.401   6.672  17.895  0.00  0.00    +0.000 OA
ENDBRANCH  13  20
ENDBRANCH   1  16
BRANCH  12  21
ATOM     21  C   UNL     1      -1.999  10.943  18.501  0.00  0.00    +0.000 A 
ATOM     22  C   UNL     1      -1.899  11.780  17.379  0.00  0.00    +0.000 A 
ATOM     23  C   UNL     1      -2.541  11.458  16.179  0.00  0.00    +0.000 A 
ATOM     24  C   UNL     1      -3.334  10.317  16.085  0.00  0.00    +0.000 A 
ATOM     25  C   UNL     1      -3.486   9.504  17.206  0.00  0.00    +0.000 A 
ATOM     26  C   UNL     1      -2.818   9.813  18.402  0.00  0.00    +0.000 A 
BRANCH  24  27
ATOM     27  O   UNL     1      -3.934  10.133  14.871  0.00  0.00    +0.000 OA
ATOM     28  C   UNL     1      -3.070   9.930  13.760  0.00  0.00    +0.000 C 
ENDBRANCH  24  27
ENDBRANCH  12  21
BRANCH   8  29
ATOM     29  C   UNL     1      -5.614  14.942  21.643  0.00  0.00    +0.000 C 
BRANCH  29  30
ATOM     30  C   UNL     1      -5.393  16.040  20.626  0.00  0.00    +0.000 A 
ATOM     31  C   UNL     1      -4.324  16.944  20.750  0.00  0.00    +0.000 A 
ATOM     32  C   UNL     1      -4.098  17.919  19.775  0.00  0.00    +0.000 A 
ATOM     33  C   UNL     1      -4.937  18.006  18.665  0.00  0.00    +0.000 A 
ATOM     34  C   UNL     1      -6.002  17.118  18.532  0.00  0.00    +0.000 A 
ATOM     35  C   UNL     1      -6.230  16.143  19.506  0.00  0.00    +0.000 A 
ENDBRANCH  29  30
ENDBRANCH   8  29
TORSDOF 6
ENDMDL
MODEL 5
REMARK VINA RESULT:      -7.2      0.513      1.230
REMARK  Name = 
REMARK  8 active torsions:
REMARK  status: ('A' for Active; 'I' for Inactive)
REMARK    1  A    between atoms: C_1  and  O_2
REMARK    2  A    between atoms: O_2  and  C_3
REMARK    3  A    between atoms: C_6  and  C_7
REMARK    4  A    between atoms: C_14  and  C_15
REMARK    5  A    between atoms: C_15  and  C_16
REMARK    6  A    between atoms: C_25  and  C_26
REMARK    7  A    between atoms: C_29  and  O_30
REMARK    8  A    between atoms: O_30  and  C_31
REMARK                            x       y       z     vdW  Elec       q    Type
REMARK                         _______ _______ _______ _____ _____    ______ ____
ROOT
ATOM      1  C   UNL     1       0.006  10.704  20.080  0.00  0.00    +0.000 A 
ATOM      2  O   UNL     1       0.477  11.302  21.218  0.00  0.00    +0.000 OA
ATOM      3  C   UNL     1      -0.431  12.210  21.644  0.00  0.00    +0.000 A 
ATOM      4  N   UNL     1      -0.244  12.948  22.783  0.00  0.00    +0.000 NA
ATOM      5  C   UNL     1      -1.217  13.758  23.093  0.00  0.00    +0.000 A 
ATOM      6  N   UNL     1      -2.365  13.869  22.304  0.00  0.00    +0.000 N 
ATOM      7  N   UNL     1      -3.378  14.698  22.585  0.00  0.00    +0.000 NA
ATOM      8  C   UNL     1      -4.217  14.437  21.568  0.00  0.00    +0.000 A 
ATOM      9  N   UNL     1      -3.741  13.503  20.645  0.00  0.00    +0.000 NA
ATOM     10  C   UNL     1      -2.577  13.161  21.150  0.00  0.00    +0.000 A 
ATOM     11  C   UNL     1      -1.502  12.217  20.756  0.00  0.00    +0.000 A 
ATOM     12  C   UNL     1      -1.219  11.285  19.712  0.00  0.00    +0.000 A 
ENDROOT
BRANCH   1  16
ATOM     13  C   UNL     1       2.642   7.593  18.665  0.00  0.00    +0.000 A 
ATOM     14  C   UNL     1       2.076   7.518  19.938  0.00  0.00    +0.000 A 
ATOM     15  C   UNL     1       1.222   8.527  20.408  0.00  0.00    +0.000 A 
ATOM     16  C   UNL     1       0.891   9.625  19.606  0.00  0.00    +0.000 A 
ATOM     17  C   UNL     1       1.482   9.693  18.331  0.00  0.00    +0.000 A 
ATOM     18  C   UNL     1       2.351   8.692  17.864  0.00  0.00    +0.000 A 
BRANCH  13  20
ATOM     19  C   UNL     1       4.306   6.744  17.198  0.00  0.00    +0.000 C 
ATOM     20  O   UNL     1       3.492   6.571  18.350  0.00  0.00    +0.000 OA
ENDBRANCH  13  20
ENDBRANCH   1  16
BRANCH  12  21
ATOM     21  C   UNL     1      -1.983  10.923  18.519  0.00  0.00    +0.000 A 
ATOM     22  C   UNL     1      -1.669  11.459  17.260  0.00  0.00    +0.000 A 
ATOM     23  C   UNL     1      -2.348  11.042  16.110  0.00  0.00    +0.000 A 
ATOM     24  C   UNL     1      -3.385  10.117  16.197  0.00  0.00    +0.000 A 
ATOM     25  C   UNL     1      -3.744   9.618  17.447  0.00  0.00    +0.000 A 
ATOM     26  C   UNL     1      -3.043  10.014  18.597  0.00  0.00    +0.000 A 
BRANCH  24  27
ATOM     27  O   UNL     1      -3.990   9.820  15.008  0.00  0.00    +0.000 OA
ATOM     28  C   UNL     1      -3.262  10.136  13.829  0.00  0.00    +0.000 C 
ENDBRANCH  24  27
ENDBRANCH  12  21
BRANCH   8  29
ATOM     29  C   UNL     1      -5.477  15.221  21.393  0.00  0.00    +0.000 C 
BRANCH  29  30
ATOM     30  C   UNL     1      -6.259  14.606  20.254  0.00  0.00    +0.000 A 
ATOM     31  C   UNL     1      -6.952  13.394  20.414  0.00  0.00    +0.000 A 
ATOM     32  C   UNL     1      -7.715  12.865  19.370  0.00  0.00    +0.000 A 
ATOM     33  C   UNL     1      -7.794  13.538  18.152  0.00  0.00    +0.000 A 
ATOM     34  C   UNL     1      -7.110  14.739  17.978  0.00  0.00    +0.000 A 
ATOM     35  C   UNL     1      -6.346  15.269  19.021  0.00  0.00    +0.000 A 
ENDBRANCH  29  30
ENDBRANCH   8  29
TORSDOF 6
ENDMDL
MODEL 6
REMARK VINA RESULT:      -7.1      2.638      8.220
REMARK  Name = 
REMARK  8 active torsions:
REMARK  status: ('A' for Active; 'I' for Inactive)
REMARK    1  A    between atoms: C_1  and  O_2
REMARK    2  A    between atoms: O_2  and  C_3
REMARK    3  A    between atoms: C_6  and  C_7
REMARK    4  A    between atoms: C_14  and  C_15
REMARK    5  A    between atoms: C_15  and  C_16
REMARK    6  A    between atoms: C_25  and  C_26
REMARK    7  A    between atoms: C_29  and  O_30
REMARK    8  A    between atoms: O_30  and  C_31
REMARK                            x       y       z     vdW  Elec       q    Type
REMARK                         _______ _______ _______ _____ _____    ______ ____
ROOT
ATOM      1  C   UNL     1      -1.921  11.732  21.164  0.00  0.00    +0.000 A 
ATOM      2  O   UNL     1      -1.275  11.440  22.336  0.00  0.00    +0.000 OA
ATOM      3  C   UNL     1      -0.342  10.490  22.097  0.00  0.00    +0.000 A 
ATOM      4  N   UNL     1       0.484  10.017  23.082  0.00  0.00    +0.000 NA
ATOM      5  C   UNL     1       1.360   9.130  22.702  0.00  0.00    +0.000 A 
ATOM      6  N   UNL     1       1.438   8.688  21.378  0.00  0.00    +0.000 N 
ATOM      7  N   UNL     1       2.316   7.770  20.955  0.00  0.00    +0.000 NA
ATOM      8  C   UNL     1       2.006   7.699  19.648  0.00  0.00    +0.000 A 
ATOM      9  N   UNL     1       0.940   8.511  19.256  0.00  0.00    +0.000 NA
ATOM     10  C   UNL     1       0.617   9.126  20.373  0.00  0.00    +0.000 A 
ATOM     11  C   UNL     1      -0.394  10.144  20.751  0.00  0.00    +0.000 A 
ATOM     12  C   UNL     1      -1.440  10.900  20.139  0.00  0.00    +0.000 A 
ENDROOT
BRANCH   1  16
ATOM     13  C   UNL     1      -4.696  15.007  21.602  0.00  0.00    +0.000 A 
ATOM     14  C   UNL     1      -5.020  13.906  20.810  0.00  0.00    +0.000 A 
ATOM     15  C   UNL     1      -4.122  12.839  20.658  0.00  0.00    +0.000 A 
ATOM     16  C   UNL     1      -2.887  12.835  21.316  0.00  0.00    +0.000 A 
ATOM     17  C   UNL     1      -2.569  13.960  22.098  0.00  0.00    +0.000 A 
ATOM     18  C   UNL     1      -3.460  15.038  22.239  0.00  0.00    +0.000 A 
BRANCH  13  20
ATOM     19  C   UNL     1      -6.911  15.686  21.075  0.00  0.00    +0.000 C 
ATOM     20  O   UNL     1      -5.638  15.997  21.626  0.00  0.00    +0.000 OA
ENDBRANCH  13  20
ENDBRANCH   1  16
BRANCH  12  21
ATOM     21  C   UNL     1      -1.939  10.905  18.765  0.00  0.00    +0.000 A 
ATOM     22  C   UNL     1      -1.595  11.926  17.866  0.00  0.00    +0.000 A 
ATOM     23  C   UNL     1      -2.005  11.879  16.529  0.00  0.00    +0.000 A 
ATOM     24  C   UNL     1      -2.806  10.836  16.072  0.00  0.00    +0.000 A 
ATOM     25  C   UNL     1      -3.202   9.844  16.966  0.00  0.00    +0.000 A 
ATOM     26  C   UNL     1      -2.765   9.876  18.300  0.00  0.00    +0.000 A 
BRANCH  24  27
ATOM     27  O   UNL     1      -3.168  10.924  14.757  0.00  0.00    +0.000 OA
ATOM     28  C   UNL     1      -2.891   9.790  13.946  0.00  0.00    +0.000 C 
ENDBRANCH  24  27
ENDBRANCH  12  21
BRANCH   8  29
ATOM     29  C   UNL     1       2.672   6.700  18.757  0.00  0.00    +0.000 C 
BRANCH  29  30
ATOM     30  C   UNL     1       2.076   5.341  19.048  0.00  0.00    +0.000 A 
ATOM     31  C   UNL     1       1.691   4.976  20.349  0.00  0.00    +0.000 A 
ATOM     32  C   UNL     1       1.091   3.738  20.595  0.00  0.00    +0.000 A 
ATOM     33  C   UNL     1       0.869   2.849  19.545  0.00  0.00    +0.000 A 
ATOM     34  C   UNL     1       1.248   3.197  18.250  0.00  0.00    +0.000 A 
ATOM     35  C   UNL     1       1.848   4.433  18.003  0.00  0.00    +0.000 A 
ENDBRANCH  29  30
ENDBRANCH   8  29
TORSDOF 6
ENDMDL
MODEL 7
REMARK VINA RESULT:      -7.1      2.671      8.210
REMARK  Name = 
REMARK  8 active torsions:
REMARK  status: ('A' for Active; 'I' for Inactive)
REMARK    1  A    between atoms: C_1  and  O_2
REMARK    2  A    between atoms: O_2  and  C_3
REMARK    3  A    between atoms: C_6  and  C_7
REMARK    4  A    between atoms: C_14  and  C_15
REMARK    5  A    between atoms: C_15  and  C_16
REMARK    6  A    between atoms: C_25  and  C_26
REMARK    7  A    between atoms: C_29  and  O_30
REMARK    8  A    between atoms: O_30  and  C_31
REMARK                            x       y       z     vdW  Elec       q    Type
REMARK                         _______ _______ _______ _____ _____    ______ ____
ROOT
ATOM      1  C   UNL     1      -1.948  11.817  21.097  0.00  0.00    +0.000 A 
ATOM      2  O   UNL     1      -1.374  11.523  22.305  0.00  0.00    +0.000 OA
ATOM      3  C   UNL     1      -0.441  10.560  22.123  0.00  0.00    +0.000 A 
ATOM      4  N   UNL     1       0.321  10.081  23.156  0.00  0.00    +0.000 NA
ATOM      5  C   UNL     1       1.207   9.181  22.830  0.00  0.00    +0.000 A 
ATOM      6  N   UNL     1       1.354   8.733  21.514  0.00  0.00    +0.000 N 
ATOM      7  N   UNL     1       2.243   7.803  21.145  0.00  0.00    +0.000 NA
ATOM      8  C   UNL     1       2.009   7.729  19.824  0.00  0.00    +0.000 A 
ATOM      9  N   UNL     1       0.977   8.553  19.368  0.00  0.00    +0.000 NA
ATOM     10  C   UNL     1       0.598   9.176  20.462  0.00  0.00    +0.000 A 
ATOM     11  C   UNL     1      -0.421  10.209  20.778  0.00  0.00    +0.000 A 
ATOM     12  C   UNL     1      -1.420  10.975  20.104  0.00  0.00    +0.000 A 
ENDROOT
BRANCH   1  16
ATOM     13  C   UNL     1      -4.711  15.124  21.332  0.00  0.00    +0.000 A 
ATOM     14  C   UNL     1      -5.166  13.841  21.029  0.00  0.00    +0.000 A 
ATOM     15  C   UNL     1      -4.275  12.761  20.946  0.00  0.00    +0.000 A 
ATOM     16  C   UNL     1      -2.907  12.932  21.189  0.00  0.00    +0.000 A 
ATOM     17  C   UNL     1      -2.463  14.235  21.478  0.00  0.00    +0.000 A 
ATOM     18  C   UNL     1      -3.351  15.322  21.546  0.00  0.00    +0.000 A 
BRANCH  13  20
ATOM     19  C   UNL     1      -6.629  16.047  22.387  0.00  0.00    +0.000 C 
ATOM     20  O   UNL     1      -5.675  16.092  21.334  0.00  0.00    +0.000 OA
ENDBRANCH  13  20
ENDBRANCH   1  16
BRANCH  12  21
ATOM     21  C   UNL     1      -1.840  10.980  18.704  0.00  0.00    +0.000 A 
ATOM     22  C   UNL     1      -2.578   9.919  18.158  0.00  0.00    +0.000 A 
ATOM     23  C   UNL     1      -3.050   9.970  16.843  0.00  0.00    +0.000 A 
ATOM     24  C   UNL     1      -2.758  11.061  16.028  0.00  0.00    +0.000 A 
ATOM     25  C   UNL     1      -1.979  12.097  16.538  0.00  0.00    +0.000 A 
ATOM     26  C   UNL     1      -1.530  12.059  17.869  0.00  0.00    +0.000 A 
BRANCH  24  27
ATOM     27  O   UNL     1      -3.247  10.974  14.755  0.00  0.00    +0.000 OA
ATOM     28  C   UNL     1      -3.005   9.755  14.064  0.00  0.00    +0.000 C 
ENDBRANCH  24  27
ENDBRANCH  12  21
BRANCH   8  29
ATOM     29  C   UNL     1       2.711   6.719  18.976  0.00  0.00    +0.000 C 
BRANCH  29  30
ATOM     30  C   UNL     1       2.046   5.378  19.195  0.00  0.00    +0.000 A 
ATOM     31  C   UNL     1       1.816   4.495  18.126  0.00  0.00    +0.000 A 
ATOM     32  C   UNL     1       1.251   3.237  18.350  0.00  0.00    +0.000 A 
ATOM     33  C   UNL     1       0.907   2.845  19.643  0.00  0.00    +0.000 A 
ATOM     34  C   UNL     1       1.127   3.712  20.711  0.00  0.00    +0.000 A 
ATOM     35  C   UNL     1       1.691   4.970  20.489  0.00  0.00    +0.000 A 
ENDBRANCH  29  30
ENDBRANCH   8  29
TORSDOF 6
ENDMDL
MODEL 8
REMARK VINA RESULT:      -7.0      1.340      2.504
REMARK  Name = 
REMARK  8 active torsions:
REMARK  status: ('A' for Active; 'I' for Inactive)
REMARK    1  A    between atoms: C_1  and  O_2
REMARK    2  A    between atoms: O_2  and  C_3
REMARK    3  A    between atoms: C_6  and  C_7
REMARK    4  A    between atoms: C_14  and  C_15
REMARK    5  A    between atoms: C_15  and  C_16
REMARK    6  A    between atoms: C_25  and  C_26
REMARK    7  A    between atoms: C_29  and  O_30
REMARK    8  A    between atoms: O_30  and  C_31
REMARK                            x       y       z     vdW  Elec       q    Type
REMARK                         _______ _______ _______ _____ _____    ______ ____
ROOT
ATOM      1  C   UNL     1      -0.023  10.434  20.080  0.00  0.00    +0.000 A 
ATOM      2  O   UNL     1       0.340  10.905  21.314  0.00  0.00    +0.000 OA
ATOM      3  C   UNL     1      -0.600  11.779  21.743  0.00  0.00    +0.000 A 
ATOM      4  N   UNL     1      -0.519  12.393  22.965  0.00  0.00    +0.000 NA
ATOM      5  C   UNL     1      -1.513  13.181  23.265  0.00  0.00    +0.000 A 
ATOM      6  N   UNL     1      -2.581  13.390  22.387  0.00  0.00    +0.000 N 
ATOM      7  N   UNL     1      -3.611  14.201  22.655  0.00  0.00    +0.000 NA
ATOM      8  C   UNL     1      -4.351  14.057  21.541  0.00  0.00    +0.000 A 
ATOM      9  N   UNL     1      -3.794  13.215  20.576  0.00  0.00    +0.000 NA
ATOM     10  C   UNL     1      -2.684  12.807  21.151  0.00  0.00    +0.000 A 
ATOM     11  C   UNL     1      -1.582  11.892  20.765  0.00  0.00    +0.000 A 
ATOM     12  C   UNL     1      -1.205  11.068  19.661  0.00  0.00    +0.000 A 
ENDROOT
BRANCH   1  16
ATOM     13  C   UNL     1       2.634   7.347  18.657  0.00  0.00    +0.000 A 
ATOM     14  C   UNL     1       2.233   8.381  17.812  0.00  0.00    +0.000 A 
ATOM     15  C   UNL     1       1.366   9.386  18.264  0.00  0.00    +0.000 A 
ATOM     16  C   UNL     1       0.897   9.397  19.583  0.00  0.00    +0.000 A 
ATOM     17  C   UNL     1       1.299   8.338  20.418  0.00  0.00    +0.000 A 
ATOM     18  C   UNL     1       2.156   7.321  19.963  0.00  0.00    +0.000 A 
BRANCH  13  20
ATOM     19  C   UNL     1       2.872   5.125  17.849  0.00  0.00    +0.000 C 
ATOM     20  O   UNL     1       3.441   6.408  18.078  0.00  0.00    +0.000 OA
ENDBRANCH  13  20
ENDBRANCH   1  16
BRANCH  12  21
ATOM     21  C   UNL     1      -1.854  10.842  18.370  0.00  0.00    +0.000 A 
ATOM     22  C   UNL     1      -2.485   9.624  18.073  0.00  0.00    +0.000 A 
ATOM     23  C   UNL     1      -3.177   9.445  16.871  0.00  0.00    +0.000 A 
ATOM     24  C   UNL     1      -3.217  10.461  15.920  0.00  0.00    +0.000 A 
ATOM     25  C   UNL     1      -2.549  11.657  16.177  0.00  0.00    +0.000 A 
ATOM     26  C   UNL     1      -1.879  11.846  17.397  0.00  0.00    +0.000 A 
BRANCH  24  27
ATOM     27  O   UNL     1      -3.895  10.150  14.775  0.00  0.00    +0.000 OA
ATOM     28  C   UNL     1      -3.105   9.809  13.643  0.00  0.00    +0.000 C 
ENDBRANCH  24  27
ENDBRANCH  12  21
BRANCH   8  29
ATOM     29  C   UNL     1      -5.585  14.873  21.331  0.00  0.00    +0.000 C 
BRANCH  29  30
ATOM     30  C   UNL     1      -5.452  16.142  22.143  0.00  0.00    +0.000 A 
ATOM     31  C   UNL     1      -4.815  17.280  21.619  0.00  0.00    +0.000 A 
ATOM     32  C   UNL     1      -4.747  18.464  22.360  0.00  0.00    +0.000 A 
ATOM     33  C   UNL     1      -5.313  18.526  23.631  0.00  0.00    +0.000 A 
ATOM     34  C   UNL     1      -5.946  17.405  24.164  0.00  0.00    +0.000 A 
ATOM     35  C   UNL     1      -6.013  16.221  23.426  0.00  0.00    +0.000 A 
ENDBRANCH  29  30
ENDBRANCH   8  29
TORSDOF 6
ENDMDL
MODEL 9
REMARK VINA RESULT:      -7.0      2.560      8.179
REMARK  Name = 
REMARK  8 active torsions:
REMARK  status: ('A' for Active; 'I' for Inactive)
REMARK    1  A    between atoms: C_1  and  O_2
REMARK    2  A    between atoms: O_2  and  C_3
REMARK    3  A    between atoms: C_6  and  C_7
REMARK    4  A    between atoms: C_14  and  C_15
REMARK    5  A    between atoms: C_15  and  C_16
REMARK    6  A    between atoms: C_25  and  C_26
REMARK    7  A    between atoms: C_29  and  O_30
REMARK    8  A    between atoms: O_30  and  C_31
REMARK                            x       y       z     vdW  Elec       q    Type
REMARK                         _______ _______ _______ _____ _____    ______ ____
ROOT
ATOM      1  C   UNL     1      -1.946  11.818  20.879  0.00  0.00    +0.000 A 
ATOM      2  O   UNL     1      -1.330  11.587  22.079  0.00  0.00    +0.000 OA
ATOM      3  C   UNL     1      -0.379  10.639  21.909  0.00  0.00    +0.000 A 
ATOM      4  N   UNL     1       0.425  10.221  22.936  0.00  0.00    +0.000 NA
ATOM      5  C   UNL     1       1.322   9.330  22.620  0.00  0.00    +0.000 A 
ATOM      6  N   UNL     1       1.442   8.831  21.320  0.00  0.00    +0.000 N 
ATOM      7  N   UNL     1       2.342   7.908  20.962  0.00  0.00    +0.000 NA
ATOM      8  C   UNL     1       2.070   7.774  19.652  0.00  0.00    +0.000 A 
ATOM      9  N   UNL     1       1.005   8.554  19.195  0.00  0.00    +0.000 NA
ATOM     10  C   UNL     1       0.644   9.213  20.274  0.00  0.00    +0.000 A 
ATOM     11  C   UNL     1      -0.390  10.234  20.578  0.00  0.00    +0.000 A 
ATOM     12  C   UNL     1      -1.427  10.948  19.905  0.00  0.00    +0.000 A 
ENDROOT
BRANCH   1  16
ATOM     13  C   UNL     1      -4.870  14.982  21.134  0.00  0.00    +0.000 A 
ATOM     14  C   UNL     1      -3.527  15.233  21.417  0.00  0.00    +0.000 A 
ATOM     15  C   UNL     1      -2.571  14.210  21.341  0.00  0.00    +0.000 A 
ATOM     16  C   UNL     1      -2.929  12.913  20.955  0.00  0.00    +0.000 A 
ATOM     17  C   UNL     1      -4.289  12.673  20.688  0.00  0.00    +0.000 A 
ATOM     18  C   UNL     1      -5.252  13.693  20.779  0.00  0.00    +0.000 A 
BRANCH  13  20
ATOM     19  C   UNL     1      -7.040  15.899  20.834  0.00  0.00    +0.000 C 
ATOM     20  O   UNL     1      -5.703  16.053  21.292  0.00  0.00    +0.000 OA
ENDBRANCH  13  20
ENDBRANCH   1  16
BRANCH  12  21
ATOM     21  C   UNL     1      -1.888  10.886  18.519  0.00  0.00    +0.000 A 
ATOM     22  C   UNL     1      -2.581   9.768  18.029  0.00  0.00    +0.000 A 
ATOM     23  C   UNL     1      -3.095   9.752  16.728  0.00  0.00    +0.000 A 
ATOM     24  C   UNL     1      -2.889  10.831  15.873  0.00  0.00    +0.000 A 
ATOM     25  C   UNL     1      -2.155  11.925  16.327  0.00  0.00    +0.000 A 
ATOM     26  C   UNL     1      -1.665  11.953  17.643  0.00  0.00    +0.000 A 
BRANCH  24  27
ATOM     27  O   UNL     1      -3.409  10.677  14.619  0.00  0.00    +0.000 OA
ATOM     28  C   UNL     1      -2.679   9.845  13.726  0.00  0.00    +0.000 C 
ENDBRANCH  24  27
ENDBRANCH  12  21
BRANCH   8  29
ATOM     29  C   UNL     1       2.772   6.747  18.825  0.00  0.00    +0.000 C 
BRANCH  29  30
ATOM     30  C   UNL     1       2.156   5.399  19.128  0.00  0.00    +0.000 A 
ATOM     31  C   UNL     1       1.723   5.070  20.424  0.00  0.00    +0.000 A 
ATOM     32  C   UNL     1       1.106   3.842  20.679  0.00  0.00    +0.000 A 
ATOM     33  C   UNL     1       0.914   2.928  19.645  0.00  0.00    +0.000 A 
ATOM     34  C   UNL     1       1.340   3.241  18.356  0.00  0.00    +0.000 A 
ATOM     35  C   UNL     1       1.958   4.466  18.099  0.00  0.00    +0.000 A 
ENDBRANCH  29  30
ENDBRANCH   8  29
TORSDOF 6
ENDMDL
