MODEL 1
REMARK VINA RESULT:      -7.1      0.000      0.000
REMARK  Name = 
REMARK  1 active torsions:
REMARK  status: ('A' for Active; 'I' for Inactive)
REMARK    1  A    between atoms: C_5  and  C_6
REMARK                            x       y       z     vdW  Elec       q    Type
REMARK                         _______ _______ _______ _____ _____    ______ ____
ROOT
ATOM      1  O   UNL     1       3.735   8.136  17.483  0.00  0.00    +0.000 OA
ATOM      2  C   UNL     1       4.354   7.062  17.474  0.00  0.00    +0.000 C 
ATOM      3  C   UNL     1       5.859   7.110  17.536  0.00  0.00    +0.000 C 
ATOM      4  S   UNL     1       6.760   5.938  18.549  0.00  0.00    +0.000 S 
ATOM      5  C   UNL     1       6.206   4.380  17.792  0.00  0.00    +0.000 C 
ATOM      6  C   UNL     1       4.818   4.112  18.357  0.00  0.00    +0.000 A 
ATOM      7  C   UNL     1       4.657   3.269  19.484  0.00  0.00    +0.000 A 
ATOM      8  C   UNL     1       3.357   2.907  19.801  0.00  0.00    +0.000 A 
ATOM      9  C   UNL     1       2.310   3.176  18.952  0.00  0.00    +0.000 A 
ATOM     10  C   UNL     1       2.447   4.020  17.888  0.00  0.00    +0.000 A 
ATOM     11  C   UNL     1       3.678   4.661  17.765  0.00  0.00    +0.000 A 
ATOM     12  N   UNL     1       3.591   5.954  17.229  0.00  0.00    +0.000 N 
ATOM     13  O   UNL     1       1.115   2.736  19.433  0.00  0.00    +0.000 OA
ATOM     14  C   UNL     1       1.489   2.652  20.818  0.00  0.00    +0.000 C 
ATOM     15  O   UNL     1       2.903   2.369  20.968  0.00  0.00    +0.000 OA
ATOM     16  H   UNL     1       2.633   6.278  17.106  0.00  0.00    +0.000 HD
ENDROOT
BRANCH   5  17
ATOM     17  C   UNL     1       6.313   4.279  16.253  0.00  0.00    +0.000 A 
ATOM     18  C   UNL     1       7.305   4.951  15.522  0.00  0.00    +0.000 A 
ATOM     19  C   UNL     1       7.307   4.946  14.120  0.00  0.00    +0.000 A 
ATOM     20  C   UNL     1       6.344   4.231  13.414  0.00  0.00    +0.000 A 
ATOM     21  C   UNL     1       5.412   3.475  14.112  0.00  0.00    +0.000 A 
ATOM     22  C   UNL     1       5.423   3.472  15.510  0.00  0.00    +0.000 A 
ENDBRANCH   5  17
TORSDOF 1
ENDMDL
MODEL 2
REMARK VINA RESULT:      -7.1      0.170      1.059
REMARK  Name = 
REMARK  1 active torsions:
REMARK  status: ('A' for Active; 'I' for Inactive)
REMARK    1  A    between atoms: C_5  and  C_6
REMARK                            x       y       z     vdW  Elec       q    Type
REMARK                         _______ _______ _______ _____ _____    ______ ____
ROOT
ATOM      1  O   UNL     1       3.530   8.160  17.595  0.00  0.00    +0.000 OA
ATOM      2  C   UNL     1       4.170   7.099  17.543  0.00  0.00    +0.000 C 
ATOM      3  C   UNL     1       5.676   7.179  17.535  0.00  0.00    +0.000 C 
ATOM      4  S   UNL     1       6.646   6.013  18.490  0.00  0.00    +0.000 S 
ATOM      5  C   UNL     1       6.089   4.453  17.739  0.00  0.00    +0.000 C 
ATOM      6  C   UNL     1       4.735   4.149  18.364  0.00  0.00    +0.000 A 
ATOM      7  C   UNL     1       4.644   3.289  19.485  0.00  0.00    +0.000 A 
ATOM      8  C   UNL     1       3.367   2.896  19.857  0.00  0.00    +0.000 A 
ATOM      9  C   UNL     1       2.276   3.154  19.060  0.00  0.00    +0.000 A 
ATOM     10  C   UNL     1       2.347   4.013  18.003  0.00  0.00    +0.000 A 
ATOM     11  C   UNL     1       3.557   4.681  17.832  0.00  0.00    +0.000 A 
ATOM     12  N   UNL     1       3.419   5.978  17.318  0.00  0.00    +0.000 N 
ATOM     13  O   UNL     1       1.114   2.682  19.590  0.00  0.00    +0.000 OA
ATOM     14  C   UNL     1       1.554   2.589  20.956  0.00  0.00    +0.000 C 
ATOM     15  O   UNL     1       2.979   2.334  21.037  0.00  0.00    +0.000 OA
ATOM     16  H   UNL     1       2.450   6.284  17.244  0.00  0.00    +0.000 HD
ENDROOT
BRANCH   5  17
ATOM     17  C   UNL     1       6.126   4.373  16.195  0.00  0.00    +0.000 A 
ATOM     18  C   UNL     1       5.159   3.675  15.454  0.00  0.00    +0.000 A 
ATOM     19  C   UNL     1       5.283   3.509  14.067  0.00  0.00    +0.000 A 
ATOM     20  C   UNL     1       6.351   4.076  13.380  0.00  0.00    +0.000 A 
ATOM     21  C   UNL     1       7.267   4.857  14.073  0.00  0.00    +0.000 A 
ATOM     22  C   UNL     1       7.132   5.030  15.453  0.00  0.00    +0.000 A 
ENDBRANCH   5  17
TORSDOF 1
ENDMDL
MODEL 3
REMARK VINA RESULT:      -6.9      3.162      5.908
REMARK  Name = 
REMARK  1 active torsions:
REMARK  status: ('A' for Active; 'I' for Inactive)
REMARK    1  A    between atoms: C_5  and  C_6
REMARK                            x       y       z     vdW  Elec       q    Type
REMARK                         _______ _______ _______ _____ _____    ______ ____
ROOT
ATOM      1  O   UNL     1       0.927   3.320  17.535  0.00  0.00    +0.000 OA
ATOM      2  C   UNL     1       1.540   4.154  18.218  0.00  0.00    +0.000 C 
ATOM      3  C   UNL     1       1.153   4.304  19.667  0.00  0.00    +0.000 C 
ATOM      4  S   UNL     1       2.415   4.518  20.921  0.00  0.00    +0.000 S 
ATOM      5  C   UNL     1       3.205   6.039  20.314  0.00  0.00    +0.000 C 
ATOM      6  C   UNL     1       4.120   5.608  19.177  0.00  0.00    +0.000 A 
ATOM      7  C   UNL     1       5.492   5.355  19.421  0.00  0.00    +0.000 A 
ATOM      8  C   UNL     1       6.294   5.179  18.304  0.00  0.00    +0.000 A 
ATOM      9  C   UNL     1       5.829   5.444  17.038  0.00  0.00    +0.000 A 
ATOM     10  C   UNL     1       4.503   5.648  16.788  0.00  0.00    +0.000 A 
ATOM     11  C   UNL     1       3.641   5.484  17.870  0.00  0.00    +0.000 A 
ATOM     12  N   UNL     1       2.384   4.971  17.518  0.00  0.00    +0.000 N 
ATOM     13  O   UNL     1       6.765   5.220  16.075  0.00  0.00    +0.000 OA
ATOM     14  C   UNL     1       7.613   4.344  16.838  0.00  0.00    +0.000 C 
ATOM     15  O   UNL     1       7.547   4.644  18.255  0.00  0.00    +0.000 OA
ATOM     16  H   UNL     1       2.319   4.692  16.540  0.00  0.00    +0.000 HD
ENDROOT
BRANCH   5  17
ATOM     17  C   UNL     1       2.269   7.224  19.983  0.00  0.00    +0.000 A 
ATOM     18  C   UNL     1       2.282   7.868  18.735  0.00  0.00    +0.000 A 
ATOM     19  C   UNL     1       1.515   9.018  18.501  0.00  0.00    +0.000 A 
ATOM     20  C   UNL     1       0.682   9.527  19.492  0.00  0.00    +0.000 A 
ATOM     21  C   UNL     1       0.573   8.852  20.701  0.00  0.00    +0.000 A 
ATOM     22  C   UNL     1       1.329   7.698  20.925  0.00  0.00    +0.000 A 
ENDBRANCH   5  17
TORSDOF 1
ENDMDL
MODEL 4
REMARK VINA RESULT:      -6.5      2.287      3.794
REMARK  Name = 
REMARK  1 active torsions:
REMARK  status: ('A' for Active; 'I' for Inactive)
REMARK    1  A    between atoms: C_5  and  C_6
REMARK                            x       y       z     vdW  Elec       q    Type
REMARK                         _______ _______ _______ _____ _____    ______ ____
ROOT
ATOM      1  O   UNL     1       6.144   3.241  14.390  0.00  0.00    +0.000 OA
ATOM      2  C   UNL     1       5.811   4.064  15.254  0.00  0.00    +0.000 C 
ATOM      3  C   UNL     1       5.891   5.529  14.907  0.00  0.00    +0.000 C 
ATOM      4  S   UNL     1       4.596   6.653  15.428  0.00  0.00    +0.000 S 
ATOM      5  C   UNL     1       4.688   6.422  17.230  0.00  0.00    +0.000 C 
ATOM      6  C   UNL     1       3.956   5.120  17.521  0.00  0.00    +0.000 A 
ATOM      7  C   UNL     1       2.591   5.138  17.899  0.00  0.00    +0.000 A 
ATOM      8  C   UNL     1       2.062   3.939  18.352  0.00  0.00    +0.000 A 
ATOM      9  C   UNL     1       2.865   2.856  18.618  0.00  0.00    +0.000 A 
ATOM     10  C   UNL     1       4.170   2.814  18.222  0.00  0.00    +0.000 A 
ATOM     11  C   UNL     1       4.615   3.889  17.455  0.00  0.00    +0.000 A 
ATOM     12  N   UNL     1       5.575   3.540  16.495  0.00  0.00    +0.000 N 
ATOM     13  O   UNL     1       2.163   1.776  19.062  0.00  0.00    +0.000 OA
ATOM     14  C   UNL     1       0.877   2.166  18.553  0.00  0.00    +0.000 C 
ATOM     15  O   UNL     1       0.746   3.609  18.491  0.00  0.00    +0.000 OA
ATOM     16  H   UNL     1       5.731   2.536  16.425  0.00  0.00    +0.000 HD
ENDROOT
BRANCH   5  17
ATOM     17  C   UNL     1       6.088   6.541  17.875  0.00  0.00    +0.000 A 
ATOM     18  C   UNL     1       6.546   5.639  18.849  0.00  0.00    +0.000 A 
ATOM     19  C   UNL     1       7.767   5.839  19.511  0.00  0.00    +0.000 A 
ATOM     20  C   UNL     1       8.580   6.919  19.183  0.00  0.00    +0.000 A 
ATOM     21  C   UNL     1       8.199   7.769  18.153  0.00  0.00    +0.000 A 
ATOM     22  C   UNL     1       6.988   7.557  17.487  0.00  0.00    +0.000 A 
ENDBRANCH   5  17
TORSDOF 1
ENDMDL
MODEL 5
REMARK VINA RESULT:      -6.5      3.149      5.913
REMARK  Name = 
REMARK  1 active torsions:
REMARK  status: ('A' for Active; 'I' for Inactive)
REMARK    1  A    between atoms: C_5  and  C_6
REMARK                            x       y       z     vdW  Elec       q    Type
REMARK                         _______ _______ _______ _____ _____    ______ ____
ROOT
ATOM      1  O   UNL     1       0.900   3.446  17.517  0.00  0.00    +0.000 OA
ATOM      2  C   UNL     1       1.529   4.268  18.200  0.00  0.00    +0.000 C 
ATOM      3  C   UNL     1       1.146   4.427  19.649  0.00  0.00    +0.000 C 
ATOM      4  S   UNL     1       2.413   4.616  20.902  0.00  0.00    +0.000 S 
ATOM      5  C   UNL     1       3.232   6.121  20.293  0.00  0.00    +0.000 C 
ATOM      6  C   UNL     1       4.138   5.672  19.156  0.00  0.00    +0.000 A 
ATOM      7  C   UNL     1       5.504   5.393  19.399  0.00  0.00    +0.000 A 
ATOM      8  C   UNL     1       6.302   5.201  18.282  0.00  0.00    +0.000 A 
ATOM      9  C   UNL     1       5.841   5.474  17.016  0.00  0.00    +0.000 A 
ATOM     10  C   UNL     1       4.520   5.704  16.767  0.00  0.00    +0.000 A 
ATOM     11  C   UNL     1       3.655   5.557  17.850  0.00  0.00    +0.000 A 
ATOM     12  N   UNL     1       2.388   5.068  17.499  0.00  0.00    +0.000 N 
ATOM     13  O   UNL     1       6.772   5.232  16.052  0.00  0.00    +0.000 OA
ATOM     14  C   UNL     1       7.603   4.339  16.814  0.00  0.00    +0.000 C 
ATOM     15  O   UNL     1       7.545   4.642  18.231  0.00  0.00    +0.000 OA
ATOM     16  H   UNL     1       2.317   4.791  16.521  0.00  0.00    +0.000 HD
ENDROOT
BRANCH   5  17
ATOM     17  C   UNL     1       2.319   7.325  19.963  0.00  0.00    +0.000 A 
ATOM     18  C   UNL     1       1.407   7.853  20.891  0.00  0.00    +0.000 A 
ATOM     19  C   UNL     1       0.501   8.861  20.529  0.00  0.00    +0.000 A 
ATOM     20  C   UNL     1       0.516   9.397  19.246  0.00  0.00    +0.000 A 
ATOM     21  C   UNL     1       1.474   8.964  18.339  0.00  0.00    +0.000 A 
ATOM     22  C   UNL     1       2.384   7.968  18.708  0.00  0.00    +0.000 A 
ENDBRANCH   5  17
TORSDOF 1
ENDMDL
MODEL 6
REMARK VINA RESULT:      -6.3      2.272      3.694
REMARK  Name = 
REMARK  1 active torsions:
REMARK  status: ('A' for Active; 'I' for Inactive)
REMARK    1  A    between atoms: C_5  and  C_6
REMARK                            x       y       z     vdW  Elec       q    Type
REMARK                         _______ _______ _______ _____ _____    ______ ____
ROOT
ATOM      1  O   UNL     1       6.192   3.242  14.498  0.00  0.00    +0.000 OA
ATOM      2  C   UNL     1       5.813   4.064  15.346  0.00  0.00    +0.000 C 
ATOM      3  C   UNL     1       5.885   5.528  14.996  0.00  0.00    +0.000 C 
ATOM      4  S   UNL     1       4.555   6.635  15.461  0.00  0.00    +0.000 S 
ATOM      5  C   UNL     1       4.579   6.411  17.266  0.00  0.00    +0.000 C 
ATOM      6  C   UNL     1       3.855   5.100  17.533  0.00  0.00    +0.000 A 
ATOM      7  C   UNL     1       2.476   5.099  17.856  0.00  0.00    +0.000 A 
ATOM      8  C   UNL     1       1.947   3.895  18.294  0.00  0.00    +0.000 A 
ATOM      9  C   UNL     1       2.754   2.824  18.596  0.00  0.00    +0.000 A 
ATOM     10  C   UNL     1       4.074   2.800  18.251  0.00  0.00    +0.000 A 
ATOM     11  C   UNL     1       4.533   3.879  17.498  0.00  0.00    +0.000 A 
ATOM     12  N   UNL     1       5.536   3.541  16.579  0.00  0.00    +0.000 N 
ATOM     13  O   UNL     1       2.051   1.736  19.016  0.00  0.00    +0.000 OA
ATOM     14  C   UNL     1       0.780   2.105  18.454  0.00  0.00    +0.000 C 
ATOM     15  O   UNL     1       0.632   3.546  18.382  0.00  0.00    +0.000 OA
ATOM     16  H   UNL     1       5.709   2.538  16.518  0.00  0.00    +0.000 HD
ENDROOT
BRANCH   5  17
ATOM     17  C   UNL     1       5.951   6.553  17.965  0.00  0.00    +0.000 A 
ATOM     18  C   UNL     1       6.880   7.543  17.606  0.00  0.00    +0.000 A 
ATOM     19  C   UNL     1       8.165   7.573  18.166  0.00  0.00    +0.000 A 
ATOM     20  C   UNL     1       8.538   6.644  19.132  0.00  0.00    +0.000 A 
ATOM     21  C   UNL     1       7.605   5.717  19.579  0.00  0.00    +0.000 A 
ATOM     22  C   UNL     1       6.321   5.699  19.027  0.00  0.00    +0.000 A 
ENDBRANCH   5  17
TORSDOF 1
ENDMDL
MODEL 7
REMARK VINA RESULT:      -6.2      2.704      5.848
REMARK  Name = 
REMARK  1 active torsions:
REMARK  status: ('A' for Active; 'I' for Inactive)
REMARK    1  A    between atoms: C_5  and  C_6
REMARK                            x       y       z     vdW  Elec       q    Type
REMARK                         _______ _______ _______ _____ _____    ______ ____
ROOT
ATOM      1  O   UNL     1       1.931   1.730  17.098  0.00  0.00    +0.000 OA
ATOM      2  C   UNL     1       2.594   2.573  17.719  0.00  0.00    +0.000 C 
ATOM      3  C   UNL     1       2.789   2.370  19.200  0.00  0.00    +0.000 C 
ATOM      4  S   UNL     1       4.378   2.706  19.956  0.00  0.00    +0.000 S 
ATOM      5  C   UNL     1       4.565   4.463  19.525  0.00  0.00    +0.000 C 
ATOM      6  C   UNL     1       5.022   4.490  18.074  0.00  0.00    +0.000 A 
ATOM      7  C   UNL     1       6.400   4.580  17.761  0.00  0.00    +0.000 A 
ATOM      8  C   UNL     1       6.715   4.815  16.431  0.00  0.00    +0.000 A 
ATOM      9  C   UNL     1       5.748   5.150  15.513  0.00  0.00    +0.000 A 
ATOM     10  C   UNL     1       4.418   5.027  15.793  0.00  0.00    +0.000 A 
ATOM     11  C   UNL     1       4.099   4.459  17.025  0.00  0.00    +0.000 A 
ATOM     12  N   UNL     1       2.926   3.691  17.006  0.00  0.00    +0.000 N 
ATOM     13  O   UNL     1       6.254   5.350  14.265  0.00  0.00    +0.000 OA
ATOM     14  C   UNL     1       7.481   4.622  14.440  0.00  0.00    +0.000 C 
ATOM     15  O   UNL     1       7.923   4.654  15.820  0.00  0.00    +0.000 OA
ATOM     16  H   UNL     1       2.535   3.572  16.073  0.00  0.00    +0.000 HD
ENDROOT
BRANCH   5  17
ATOM     17  C   UNL     1       3.370   5.389  19.850  0.00  0.00    +0.000 A 
ATOM     18  C   UNL     1       3.211   6.649  19.252  0.00  0.00    +0.000 A 
ATOM     19  C   UNL     1       2.191   7.523  19.655  0.00  0.00    +0.000 A 
ATOM     20  C   UNL     1       1.277   7.141  20.631  0.00  0.00    +0.000 A 
ATOM     21  C   UNL     1       1.350   5.862  21.167  0.00  0.00    +0.000 A 
ATOM     22  C   UNL     1       2.361   4.989  20.753  0.00  0.00    +0.000 A 
ENDBRANCH   5  17
TORSDOF 1
ENDMDL
MODEL 8
REMARK VINA RESULT:      -6.2      2.672      5.892
REMARK  Name = 
REMARK  1 active torsions:
REMARK  status: ('A' for Active; 'I' for Inactive)
REMARK    1  A    between atoms: C_5  and  C_6
REMARK                            x       y       z     vdW  Elec       q    Type
REMARK                         _______ _______ _______ _____ _____    ______ ____
ROOT
ATOM      1  O   UNL     1       1.920   1.762  17.050  0.00  0.00    +0.000 OA
ATOM      2  C   UNL     1       2.610   2.564  17.696  0.00  0.00    +0.000 C 
ATOM      3  C   UNL     1       2.830   2.289  19.162  0.00  0.00    +0.000 C 
ATOM      4  S   UNL     1       4.440   2.562  19.900  0.00  0.00    +0.000 S 
ATOM      5  C   UNL     1       4.648   4.335  19.548  0.00  0.00    +0.000 C 
ATOM      6  C   UNL     1       5.076   4.423  18.090  0.00  0.00    +0.000 A 
ATOM      7  C   UNL     1       6.449   4.505  17.753  0.00  0.00    +0.000 A 
ATOM      8  C   UNL     1       6.742   4.798  16.430  0.00  0.00    +0.000 A 
ATOM      9  C   UNL     1       5.763   5.191  15.548  0.00  0.00    +0.000 A 
ATOM     10  C   UNL     1       4.437   5.077  15.850  0.00  0.00    +0.000 A 
ATOM     11  C   UNL     1       4.133   4.456  17.060  0.00  0.00    +0.000 A 
ATOM     12  N   UNL     1       2.947   3.709  17.029  0.00  0.00    +0.000 N 
ATOM     13  O   UNL     1       6.247   5.442  14.301  0.00  0.00    +0.000 OA
ATOM     14  C   UNL     1       7.465   4.686  14.416  0.00  0.00    +0.000 C 
ATOM     15  O   UNL     1       7.935   4.646  15.787  0.00  0.00    +0.000 OA
ATOM     16  H   UNL     1       2.535   3.640  16.100  0.00  0.00    +0.000 HD
ENDROOT
BRANCH   5  17
ATOM     17  C   UNL     1       3.476   5.264  19.940  0.00  0.00    +0.000 A 
ATOM     18  C   UNL     1       2.471   4.868  20.837  0.00  0.00    +0.000 A 
ATOM     19  C   UNL     1       1.352   5.678  21.080  0.00  0.00    +0.000 A 
ATOM     20  C   UNL     1       1.233   6.921  20.470  0.00  0.00    +0.000 A 
ATOM     21  C   UNL     1       2.261   7.381  19.657  0.00  0.00    +0.000 A 
ATOM     22  C   UNL     1       3.381   6.576  19.428  0.00  0.00    +0.000 A 
ENDBRANCH   5  17
TORSDOF 1
ENDMDL
MODEL 9
REMARK VINA RESULT:      -6.2      5.998      8.189
REMARK  Name = 
REMARK  1 active torsions:
REMARK  status: ('A' for Active; 'I' for Inactive)
REMARK    1  A    between atoms: C_5  and  C_6
REMARK                            x       y       z     vdW  Elec       q    Type
REMARK                         _______ _______ _______ _____ _____    ______ ____
ROOT
ATOM      1  O   UNL     1      -2.260  10.273  17.034  0.00  0.00    +0.000 OA
ATOM      2  C   UNL     1      -1.398  10.552  17.880  0.00  0.00    +0.000 C 
ATOM      3  C   UNL     1      -1.798  11.438  19.033  0.00  0.00    +0.000 C 
ATOM      4  S   UNL     1      -1.210  11.083  20.689  0.00  0.00    +0.000 S 
ATOM      5  C   UNL     1       0.584  11.175  20.410  0.00  0.00    +0.000 C 
ATOM      6  C   UNL     1       0.975   9.851  19.769  0.00  0.00    +0.000 A 
ATOM      7  C   UNL     1       1.460   8.787  20.568  0.00  0.00    +0.000 A 
ATOM      8  C   UNL     1       1.992   7.701  19.890  0.00  0.00    +0.000 A 
ATOM      9  C   UNL     1       2.228   7.746  18.536  0.00  0.00    +0.000 A 
ATOM     10  C   UNL     1       1.730   8.746  17.753  0.00  0.00    +0.000 A 
ATOM     11  C   UNL     1       0.896   9.666  18.386  0.00  0.00    +0.000 A 
ATOM     12  N   UNL     1      -0.126  10.162  17.564  0.00  0.00    +0.000 N 
ATOM     13  O   UNL     1       2.761   6.589  18.055  0.00  0.00    +0.000 OA
ATOM     14  C   UNL     1       2.344   5.729  19.130  0.00  0.00    +0.000 C 
ATOM     15  O   UNL     1       2.247   6.455  20.381  0.00  0.00    +0.000 OA
ATOM     16  H   UNL     1      -0.177   9.700  16.657  0.00  0.00    +0.000 HD
ENDROOT
BRANCH   5  17
ATOM     17  C   UNL     1       1.111  12.433  19.681  0.00  0.00    +0.000 A 
ATOM     18  C   UNL     1       2.184  12.383  18.776  0.00  0.00    +0.000 A 
ATOM     19  C   UNL     1       2.726  13.553  18.224  0.00  0.00    +0.000 A 
ATOM     20  C   UNL     1       2.180  14.796  18.526  0.00  0.00    +0.000 A 
ATOM     21  C   UNL     1       1.055  14.865  19.338  0.00  0.00    +0.000 A 
ATOM     22  C   UNL     1       0.510  13.695  19.875  0.00  0.00    +0.000 A 
ENDBRANCH   5  17
TORSDOF 1
ENDMDL
