MODEL 1
REMARK VINA RESULT:      -7.3      0.000      0.000
REMARK  Name = 
REMARK  4 active torsions:
REMARK  status: ('A' for Active; 'I' for Inactive)
REMARK    1  A    between atoms: C_2  and  C_3
REMARK    2  A    between atoms: C_5  and  C_6
REMARK    3  A    between atoms: N_23  and  S_24
REMARK    4  A    between atoms: S_24  and  C_27
REMARK                            x       y       z     vdW  Elec       q    Type
REMARK                         _______ _______ _______ _____ _____    ______ ____
ROOT
ATOM      1  C   UNL     1      -1.041  12.453  20.780  0.00  0.00    +0.000 A 
ATOM      2  C   UNL     1      -1.377  11.691  19.665  0.00  0.00    +0.000 A 
ATOM      3  C   UNL     1      -2.666  11.704  19.175  0.00  0.00    +0.000 A 
ATOM      4  N   UNL     1      -3.662  12.260  19.890  0.00  0.00    +0.000 NA
ATOM      5  C   UNL     1      -3.392  12.806  21.088  0.00  0.00    +0.000 A 
ATOM      6  C   UNL     1      -4.470  13.206  21.873  0.00  0.00    +0.000 A 
ATOM      7  C   UNL     1      -4.293  13.779  23.134  0.00  0.00    +0.000 A 
ATOM      8  C   UNL     1      -3.011  13.998  23.610  0.00  0.00    +0.000 A 
ATOM      9 CL   UNL     1      -2.785  14.707  25.158  0.00  0.00    +0.000 Cl
ATOM     10  C   UNL     1      -1.907  13.620  22.841  0.00  0.00    +0.000 A 
ATOM     11  C   UNL     1      -2.076  12.976  21.588  0.00  0.00    +0.000 A 
ENDROOT
BRANCH   1  13
ATOM     12  O   UNL     1       0.983  11.699  21.695  0.00  0.00    +0.000 OA
ATOM     13  C   UNL     1       0.419  12.604  21.085  0.00  0.00    +0.000 C 
ATOM     14  N   UNL     1       1.113  13.757  20.659  0.00  0.00    +0.000 N 
ATOM     15  C   UNL     1       0.527  14.889  19.917  0.00  0.00    +0.000 C 
ATOM     16  C   UNL     1       1.218  16.233  20.163  0.00  0.00    +0.000 C 
ATOM     17  N   UNL     1       2.690  16.131  20.008  0.00  0.00    +0.000 NA
ATOM     18  C   UNL     1       3.229  15.072  20.918  0.00  0.00    +0.000 C 
ATOM     19  C   UNL     1       2.586  13.703  20.654  0.00  0.00    +0.000 C 
BRANCH  17  20
ATOM     20  S   UNL     1       3.292  16.117  18.413  0.00  0.00    +0.000 S 
ATOM     21  O   UNL     1       2.966  14.849  17.813  0.00  0.00    +0.000 OA
ATOM     22  O   UNL     1       2.929  17.366  17.774  0.00  0.00    +0.000 OA
BRANCH  20  23
ATOM     23  C   UNL     1       5.071  16.169  18.503  0.00  0.00    +0.000 A 
ATOM     24  C   UNL     1       5.955  17.128  18.967  0.00  0.00    +0.000 A 
ATOM     25  C   UNL     1       7.315  16.721  18.834  0.00  0.00    +0.000 A 
ATOM     26  C   UNL     1       7.423  15.464  18.283  0.00  0.00    +0.000 A 
ATOM     27  S   UNL     1       5.893  14.778  17.940  0.00  0.00    +0.000 S 
ENDBRANCH  20  23
ENDBRANCH  17  20
ENDBRANCH   1  13
BRANCH   3  28
ATOM     28  C   UNL     1      -2.988  11.191  17.829  0.00  0.00    +0.000 A 
ATOM     29  C   UNL     1      -2.120  10.348  17.111  0.00  0.00    +0.000 A 
ATOM     30  C   UNL     1      -2.426   9.927  15.818  0.00  0.00    +0.000 A 
ATOM     31  C   UNL     1      -3.608  10.363  15.255  0.00  0.00    +0.000 A 
ATOM     32  N   UNL     1      -4.470  11.181  15.887  0.00  0.00    +0.000 NA
ATOM     33  C   UNL     1      -4.144  11.573  17.147  0.00  0.00    +0.000 A 
ENDBRANCH   3  28
TORSDOF 4
ENDMDL
MODEL 2
REMARK VINA RESULT:      -6.9      5.578      7.736
REMARK  Name = 
REMARK  4 active torsions:
REMARK  status: ('A' for Active; 'I' for Inactive)
REMARK    1  A    between atoms: C_2  and  C_3
REMARK    2  A    between atoms: C_5  and  C_6
REMARK    3  A    between atoms: N_23  and  S_24
REMARK    4  A    between atoms: S_24  and  C_27
REMARK                            x       y       z     vdW  Elec       q    Type
REMARK                         _______ _______ _______ _____ _____    ______ ____
ROOT
ATOM      1  C   UNL     1       0.408  10.638  19.765  0.00  0.00    +0.000 A 
ATOM      2  C   UNL     1      -0.773  10.357  19.083  0.00  0.00    +0.000 A 
ATOM      3  C   UNL     1      -1.289  11.262  18.179  0.00  0.00    +0.000 A 
ATOM      4  N   UNL     1      -0.796  12.514  18.110  0.00  0.00    +0.000 NA
ATOM      5  C   UNL     1       0.205  12.877  18.930  0.00  0.00    +0.000 A 
ATOM      6  C   UNL     1       0.563  14.222  18.956  0.00  0.00    +0.000 A 
ATOM      7  C   UNL     1       1.586  14.699  19.777  0.00  0.00    +0.000 A 
ATOM      8  C   UNL     1       2.301  13.809  20.563  0.00  0.00    +0.000 A 
ATOM      9 CL   UNL     1       3.565  14.387  21.572  0.00  0.00    +0.000 Cl
ATOM     10  C   UNL     1       1.976  12.451  20.550  0.00  0.00    +0.000 A 
ATOM     11  C   UNL     1       0.895  11.965  19.771  0.00  0.00    +0.000 A 
ENDROOT
BRANCH   1  13
ATOM     12  O   UNL     1       0.939   9.486  21.738  0.00  0.00    +0.000 OA
ATOM     13  C   UNL     1       1.046   9.508  20.514  0.00  0.00    +0.000 C 
ATOM     14  N   UNL     1       1.733   8.496  19.811  0.00  0.00    +0.000 N 
ATOM     15  C   UNL     1       1.908   8.430  18.348  0.00  0.00    +0.000 C 
ATOM     16  C   UNL     1       3.180   7.709  17.893  0.00  0.00    +0.000 C 
ATOM     17  N   UNL     1       3.334   6.393  18.561  0.00  0.00    +0.000 NA
ATOM     18  C   UNL     1       3.313   6.565  20.047  0.00  0.00    +0.000 C 
ATOM     19  C   UNL     1       2.022   7.241  20.531  0.00  0.00    +0.000 C 
BRANCH  17  20
ATOM     20  S   UNL     1       2.392   5.110  17.948  0.00  0.00    +0.000 S 
ATOM     21  O   UNL     1       1.119   5.638  17.528  0.00  0.00    +0.000 OA
ATOM     22  O   UNL     1       3.213   4.326  17.048  0.00  0.00    +0.000 OA
BRANCH  20  23
ATOM     23  C   UNL     1       2.037   4.004  19.299  0.00  0.00    +0.000 A 
ATOM     24  C   UNL     1       0.894   3.779  20.046  0.00  0.00    +0.000 A 
ATOM     25  C   UNL     1       1.086   2.779  21.043  0.00  0.00    +0.000 A 
ATOM     26  C   UNL     1       2.364   2.267  21.018  0.00  0.00    +0.000 A 
ATOM     27  S   UNL     1       3.319   2.983  19.791  0.00  0.00    +0.000 S 
ENDBRANCH  20  23
ENDBRANCH  17  20
ENDBRANCH   1  13
BRANCH   3  28
ATOM     28  C   UNL     1      -2.328  10.877  17.206  0.00  0.00    +0.000 A 
ATOM     29  C   UNL     1      -2.098   9.944  16.178  0.00  0.00    +0.000 A 
ATOM     30  C   UNL     1      -3.083   9.644  15.240  0.00  0.00    +0.000 A 
ATOM     31  C   UNL     1      -4.297  10.291  15.342  0.00  0.00    +0.000 A 
ATOM     32  N   UNL     1      -4.571  11.202  16.293  0.00  0.00    +0.000 NA
ATOM     33  C   UNL     1      -3.591  11.473  17.195  0.00  0.00    +0.000 A 
ENDBRANCH   3  28
TORSDOF 4
ENDMDL
MODEL 3
REMARK VINA RESULT:      -6.9      0.913      1.242
REMARK  Name = 
REMARK  4 active torsions:
REMARK  status: ('A' for Active; 'I' for Inactive)
REMARK    1  A    between atoms: C_2  and  C_3
REMARK    2  A    between atoms: C_5  and  C_6
REMARK    3  A    between atoms: N_23  and  S_24
REMARK    4  A    between atoms: S_24  and  C_27
REMARK                            x       y       z     vdW  Elec       q    Type
REMARK                         _______ _______ _______ _____ _____    ______ ____
ROOT
ATOM      1  C   UNL     1      -1.234  12.367  20.660  0.00  0.00    +0.000 A 
ATOM      2  C   UNL     1      -1.492  11.608  19.522  0.00  0.00    +0.000 A 
ATOM      3  C   UNL     1      -2.727  11.665  18.911  0.00  0.00    +0.000 A 
ATOM      4  N   UNL     1      -3.765  12.265  19.526  0.00  0.00    +0.000 NA
ATOM      5  C   UNL     1      -3.589  12.810  20.741  0.00  0.00    +0.000 A 
ATOM      6  C   UNL     1      -4.720  13.257  21.418  0.00  0.00    +0.000 A 
ATOM      7  C   UNL     1      -4.642  13.834  22.687  0.00  0.00    +0.000 A 
ATOM      8  C   UNL     1      -3.403  14.009  23.282  0.00  0.00    +0.000 A 
ATOM      9 CL   UNL     1      -3.298  14.722  24.841  0.00  0.00    +0.000 Cl
ATOM     10  C   UNL     1      -2.247  13.583  22.623  0.00  0.00    +0.000 A 
ATOM     11  C   UNL     1      -2.320  12.935  21.363  0.00  0.00    +0.000 A 
ENDROOT
BRANCH   1  13
ATOM     12  O   UNL     1       0.598  11.673  21.949  0.00  0.00    +0.000 OA
ATOM     13  C   UNL     1       0.195  12.466  21.102  0.00  0.00    +0.000 C 
ATOM     14  N   UNL     1       1.043  13.440  20.534  0.00  0.00    +0.000 N 
ATOM     15  C   UNL     1       0.654  14.426  19.507  0.00  0.00    +0.000 C 
ATOM     16  C   UNL     1       1.451  15.733  19.552  0.00  0.00    +0.000 C 
ATOM     17  N   UNL     1       2.913  15.485  19.601  0.00  0.00    +0.000 NA
ATOM     18  C   UNL     1       3.245  14.611  20.769  0.00  0.00    +0.000 C 
ATOM     19  C   UNL     1       2.496  13.271  20.718  0.00  0.00    +0.000 C 
BRANCH  17  20
ATOM     20  S   UNL     1       3.670  15.078  18.128  0.00  0.00    +0.000 S 
ATOM     21  O   UNL     1       3.614  13.647  17.967  0.00  0.00    +0.000 OA
ATOM     22  O   UNL     1       3.178  15.969  17.097  0.00  0.00    +0.000 OA
BRANCH  20  23
ATOM     23  C   UNL     1       5.398  15.484  18.275  0.00  0.00    +0.000 A 
ATOM     24  C   UNL     1       6.548  14.831  17.867  0.00  0.00    +0.000 A 
ATOM     25  C   UNL     1       7.731  15.549  18.212  0.00  0.00    +0.000 A 
ATOM     26  C   UNL     1       7.443  16.729  18.861  0.00  0.00    +0.000 A 
ATOM     27  S   UNL     1       5.759  16.970  19.043  0.00  0.00    +0.000 S 
ENDBRANCH  20  23
ENDBRANCH  17  20
ENDBRANCH   1  13
BRANCH   3  28
ATOM     28  C   UNL     1      -2.939  11.153  17.544  0.00  0.00    +0.000 A 
ATOM     29  C   UNL     1      -4.037  11.536  16.751  0.00  0.00    +0.000 A 
ATOM     30  C   UNL     1      -4.240  10.991  15.485  0.00  0.00    +0.000 A 
ATOM     31  C   UNL     1      -3.333  10.058  15.026  0.00  0.00    +0.000 A 
ATOM     32  N   UNL     1      -2.274   9.642  15.743  0.00  0.00    +0.000 NA
ATOM     33  C   UNL     1      -2.102  10.193  16.974  0.00  0.00    +0.000 A 
ENDBRANCH   3  28
TORSDOF 4
ENDMDL
MODEL 4
REMARK VINA RESULT:      -6.8      2.549      4.857
REMARK  Name = 
REMARK  4 active torsions:
REMARK  status: ('A' for Active; 'I' for Inactive)
REMARK    1  A    between atoms: C_2  and  C_3
REMARK    2  A    between atoms: C_5  and  C_6
REMARK    3  A    between atoms: N_23  and  S_24
REMARK    4  A    between atoms: S_24  and  C_27
REMARK                            x       y       z     vdW  Elec       q    Type
REMARK                         _______ _______ _______ _____ _____    ______ ____
ROOT
ATOM      1  C   UNL     1      -2.529  12.116  19.937  0.00  0.00    +0.000 A 
ATOM      2  C   UNL     1      -3.221  12.846  20.900  0.00  0.00    +0.000 A 
ATOM      3  C   UNL     1      -4.595  12.956  20.837  0.00  0.00    +0.000 A 
ATOM      4  N   UNL     1      -5.261  12.562  19.735  0.00  0.00    +0.000 NA
ATOM      5  C   UNL     1      -4.578  12.060  18.693  0.00  0.00    +0.000 A 
ATOM      6  C   UNL     1      -5.278  11.835  17.511  0.00  0.00    +0.000 A 
ATOM      7  C   UNL     1      -4.657  11.320  16.371  0.00  0.00    +0.000 A 
ATOM      8  C   UNL     1      -3.315  10.980  16.420  0.00  0.00    +0.000 A 
ATOM      9 CL   UNL     1      -2.545  10.341  15.024  0.00  0.00    +0.000 Cl
ATOM     10  C   UNL     1      -2.587  11.181  17.595  0.00  0.00    +0.000 A 
ATOM     11  C   UNL     1      -3.191  11.766  18.738  0.00  0.00    +0.000 A 
ENDROOT
BRANCH   1  13
ATOM     12  O   UNL     1      -0.790  10.670  20.557  0.00  0.00    +0.000 OA
ATOM     13  C   UNL     1      -1.089  11.813  20.219  0.00  0.00    +0.000 C 
ATOM     14  N   UNL     1      -0.115  12.824  20.076  0.00  0.00    +0.000 N 
ATOM     15  C   UNL     1      -0.375  14.218  19.668  0.00  0.00    +0.000 C 
ATOM     16  C   UNL     1       0.624  15.237  20.224  0.00  0.00    +0.000 C 
ATOM     17  N   UNL     1       2.028  14.812  19.997  0.00  0.00    +0.000 NA
ATOM     18  C   UNL     1       2.255  13.456  20.587  0.00  0.00    +0.000 C 
ATOM     19  C   UNL     1       1.297  12.406  20.006  0.00  0.00    +0.000 C 
BRANCH  17  20
ATOM     20  S   UNL     1       2.656  15.056  18.431  0.00  0.00    +0.000 S 
ATOM     21  O   UNL     1       2.528  13.827  17.691  0.00  0.00    +0.000 OA
ATOM     22  O   UNL     1       2.129  16.303  17.913  0.00  0.00    +0.000 OA
BRANCH  20  23
ATOM     23  C   UNL     1       4.407  15.348  18.588  0.00  0.00    +0.000 A 
ATOM     24  C   UNL     1       5.509  14.743  18.011  0.00  0.00    +0.000 A 
ATOM     25  C   UNL     1       6.736  15.324  18.445  0.00  0.00    +0.000 A 
ATOM     26  C   UNL     1       6.529  16.358  19.330  0.00  0.00    +0.000 A 
ATOM     27  S   UNL     1       4.865  16.630  19.624  0.00  0.00    +0.000 S 
ENDBRANCH  20  23
ENDBRANCH  17  20
ENDBRANCH   1  13
BRANCH   3  28
ATOM     28  C   UNL     1      -5.387  13.423  21.991  0.00  0.00    +0.000 A 
ATOM     29  C   UNL     1      -6.585  12.803  22.390  0.00  0.00    +0.000 A 
ATOM     30  C   UNL     1      -7.341  13.303  23.449  0.00  0.00    +0.000 A 
ATOM     31  C   UNL     1      -6.882  14.430  24.099  0.00  0.00    +0.000 A 
ATOM     32  N   UNL     1      -5.752  15.074  23.754  0.00  0.00    +0.000 NA
ATOM     33  C   UNL     1      -5.037  14.562  22.718  0.00  0.00    +0.000 A 
ENDBRANCH   3  28
TORSDOF 4
ENDMDL
MODEL 5
REMARK VINA RESULT:      -6.8      4.711      8.349
REMARK  Name = 
REMARK  4 active torsions:
REMARK  status: ('A' for Active; 'I' for Inactive)
REMARK    1  A    between atoms: C_2  and  C_3
REMARK    2  A    between atoms: C_5  and  C_6
REMARK    3  A    between atoms: N_23  and  S_24
REMARK    4  A    between atoms: S_24  and  C_27
REMARK                            x       y       z     vdW  Elec       q    Type
REMARK                         _______ _______ _______ _____ _____    ______ ____
ROOT
ATOM      1  C   UNL     1      -0.450  13.927  21.295  0.00  0.00    +0.000 A 
ATOM      2  C   UNL     1      -0.039  15.101  20.670  0.00  0.00    +0.000 A 
ATOM      3  C   UNL     1       0.470  15.067  19.388  0.00  0.00    +0.000 A 
ATOM      4  N   UNL     1       0.790  13.892  18.813  0.00  0.00    +0.000 NA
ATOM      5  C   UNL     1       0.611  12.749  19.496  0.00  0.00    +0.000 A 
ATOM      6  C   UNL     1       1.120  11.579  18.941  0.00  0.00    +0.000 A 
ATOM      7  C   UNL     1       0.989  10.342  19.576  0.00  0.00    +0.000 A 
ATOM      8  C   UNL     1       0.298  10.260  20.774  0.00  0.00    +0.000 A 
ATOM      9 CL   UNL     1       0.128   8.742  21.559  0.00  0.00    +0.000 Cl
ATOM     10  C   UNL     1      -0.237  11.414  21.351  0.00  0.00    +0.000 A 
ATOM     11  C   UNL     1      -0.052  12.685  20.749  0.00  0.00    +0.000 A 
ENDROOT
BRANCH   1  13
ATOM     12  O   UNL     1      -0.632  14.359  23.593  0.00  0.00    +0.000 OA
ATOM     13  C   UNL     1      -1.237  14.071  22.563  0.00  0.00    +0.000 C 
ATOM     14  N   UNL     1      -2.636  13.894  22.548  0.00  0.00    +0.000 N 
ATOM     15  C   UNL     1      -3.449  13.557  21.364  0.00  0.00    +0.000 C 
ATOM     16  C   UNL     1      -4.727  12.774  21.675  0.00  0.00    +0.000 C 
ATOM     17  N   UNL     1      -5.512  13.411  22.762  0.00  0.00    +0.000 NA
ATOM     18  C   UNL     1      -4.663  13.567  23.984  0.00  0.00    +0.000 C 
ATOM     19  C   UNL     1      -3.399  14.394  23.707  0.00  0.00    +0.000 C 
BRANCH  17  20
ATOM     20  S   UNL     1      -6.452  14.767  22.331  0.00  0.00    +0.000 S 
ATOM     21  O   UNL     1      -7.665  14.746  23.108  0.00  0.00    +0.000 OA
ATOM     22  O   UNL     1      -5.593  15.933  22.311  0.00  0.00    +0.000 OA
BRANCH  20  23
ATOM     23  C   UNL     1      -6.958  14.561  20.636  0.00  0.00    +0.000 A 
ATOM     24  C   UNL     1      -7.824  13.674  20.021  0.00  0.00    +0.000 A 
ATOM     25  C   UNL     1      -7.915  13.891  18.615  0.00  0.00    +0.000 A 
ATOM     26  C   UNL     1      -7.124  14.941  18.206  0.00  0.00    +0.000 A 
ATOM     27  S   UNL     1      -6.287  15.664  19.512  0.00  0.00    +0.000 S 
ENDBRANCH  20  23
ENDBRANCH  17  20
ENDBRANCH   1  13
BRANCH   3  28
ATOM     28  C   UNL     1       0.602  16.291  18.576  0.00  0.00    +0.000 A 
ATOM     29  C   UNL     1      -0.510  16.988  18.067  0.00  0.00    +0.000 A 
ATOM     30  C   UNL     1      -0.351  18.109  17.255  0.00  0.00    +0.000 A 
ATOM     31  C   UNL     1       0.932  18.519  16.957  0.00  0.00    +0.000 A 
ATOM     32  N   UNL     1       2.033  17.885  17.401  0.00  0.00    +0.000 NA
ATOM     33  C   UNL     1       1.845  16.796  18.192  0.00  0.00    +0.000 A 
ENDBRANCH   3  28
TORSDOF 4
ENDMDL
MODEL 6
REMARK VINA RESULT:      -6.7      5.288      9.652
REMARK  Name = 
REMARK  4 active torsions:
REMARK  status: ('A' for Active; 'I' for Inactive)
REMARK    1  A    between atoms: C_2  and  C_3
REMARK    2  A    between atoms: C_5  and  C_6
REMARK    3  A    between atoms: N_23  and  S_24
REMARK    4  A    between atoms: S_24  and  C_27
REMARK                            x       y       z     vdW  Elec       q    Type
REMARK                         _______ _______ _______ _____ _____    ______ ____
ROOT
ATOM      1  C   UNL     1       7.918  14.915  22.109  0.00  0.00    +0.000 A 
ATOM      2  C   UNL     1       8.877  14.539  21.172  0.00  0.00    +0.000 A 
ATOM      3  C   UNL     1       9.406  13.265  21.189  0.00  0.00    +0.000 A 
ATOM      4  N   UNL     1       9.184  12.448  22.237  0.00  0.00    +0.000 NA
ATOM      5  C   UNL     1       8.440  12.882  23.269  0.00  0.00    +0.000 A 
ATOM      6  C   UNL     1       8.384  12.082  24.406  0.00  0.00    +0.000 A 
ATOM      7  C   UNL     1       7.643  12.447  25.531  0.00  0.00    +0.000 A 
ATOM      8  C   UNL     1       6.904  13.620  25.510  0.00  0.00    +0.000 A 
ATOM      9 CL   UNL     1       5.985  14.074  26.888  0.00  0.00    +0.000 Cl
ATOM     10  C   UNL     1       6.928  14.439  24.379  0.00  0.00    +0.000 A 
ATOM     11  C   UNL     1       7.731  14.111  23.256  0.00  0.00    +0.000 A 
ENDROOT
BRANCH   1  13
ATOM     12  O   UNL     1       7.781  17.256  22.112  0.00  0.00    +0.000 OA
ATOM     13  C   UNL     1       7.196  16.205  21.862  0.00  0.00    +0.000 C 
ATOM     14  N   UNL     1       5.886  16.190  21.338  0.00  0.00    +0.000 N 
ATOM     15  C   UNL     1       5.108  14.984  20.998  0.00  0.00    +0.000 C 
ATOM     16  C   UNL     1       3.591  15.155  21.115  0.00  0.00    +0.000 C 
ATOM     17  N   UNL     1       3.119  16.373  20.412  0.00  0.00    +0.000 NA
ATOM     18  C   UNL     1       3.839  17.577  20.931  0.00  0.00    +0.000 C 
ATOM     19  C   UNL     1       5.362  17.449  20.777  0.00  0.00    +0.000 C 
BRANCH  17  20
ATOM     20  S   UNL     1       2.972  16.269  18.716  0.00  0.00    +0.000 S 
ATOM     21  O   UNL     1       3.948  17.144  18.119  0.00  0.00    +0.000 OA
ATOM     22  O   UNL     1       2.893  14.870  18.347  0.00  0.00    +0.000 OA
BRANCH  20  23
ATOM     23  C   UNL     1       1.382  16.935  18.267  0.00  0.00    +0.000 A 
ATOM     24  C   UNL     1       0.103  16.696  18.737  0.00  0.00    +0.000 A 
ATOM     25  C   UNL     1      -0.879  17.477  18.060  0.00  0.00    +0.000 A 
ATOM     26  C   UNL     1      -0.315  18.291  17.103  0.00  0.00    +0.000 A 
ATOM     27  S   UNL     1       1.386  18.121  17.033  0.00  0.00    +0.000 S 
ENDBRANCH  20  23
ENDBRANCH  17  20
ENDBRANCH   1  13
BRANCH   3  28
ATOM     28  C   UNL     1      10.156  12.723  20.040  0.00  0.00    +0.000 A 
ATOM     29  C   UNL     1      11.396  12.073  20.182  0.00  0.00    +0.000 A 
ATOM     30  C   UNL     1      12.107  11.622  19.071  0.00  0.00    +0.000 A 
ATOM     31  C   UNL     1      11.563  11.834  17.821  0.00  0.00    +0.000 A 
ATOM     32  N   UNL     1      10.390  12.462  17.623  0.00  0.00    +0.000 NA
ATOM     33  C   UNL     1       9.719  12.888  18.725  0.00  0.00    +0.000 A 
ENDBRANCH   3  28
TORSDOF 4
ENDMDL
MODEL 7
REMARK VINA RESULT:      -6.5      2.761      5.009
REMARK  Name = 
REMARK  4 active torsions:
REMARK  status: ('A' for Active; 'I' for Inactive)
REMARK    1  A    between atoms: C_2  and  C_3
REMARK    2  A    between atoms: C_5  and  C_6
REMARK    3  A    between atoms: N_23  and  S_24
REMARK    4  A    between atoms: S_24  and  C_27
REMARK                            x       y       z     vdW  Elec       q    Type
REMARK                         _______ _______ _______ _____ _____    ______ ____
ROOT
ATOM      1  C   UNL     1      -2.863  12.563  20.186  0.00  0.00    +0.000 A 
ATOM      2  C   UNL     1      -3.682  13.180  21.129  0.00  0.00    +0.000 A 
ATOM      3  C   UNL     1      -5.050  13.013  21.079  0.00  0.00    +0.000 A 
ATOM      4  N   UNL     1      -5.630  12.452  20.000  0.00  0.00    +0.000 NA
ATOM      5  C   UNL     1      -4.865  12.054  18.970  0.00  0.00    +0.000 A 
ATOM      6  C   UNL     1      -5.511  11.648  17.805  0.00  0.00    +0.000 A 
ATOM      7  C   UNL     1      -4.805  11.221  16.679  0.00  0.00    +0.000 A 
ATOM      8  C   UNL     1      -3.422  11.156  16.725  0.00  0.00    +0.000 A 
ATOM      9 CL   UNL     1      -2.546  10.627  15.345  0.00  0.00    +0.000 Cl
ATOM     10  C   UNL     1      -2.744  11.543  17.883  0.00  0.00    +0.000 A 
ATOM     11  C   UNL     1      -3.447  12.042  19.010  0.00  0.00    +0.000 A 
ENDROOT
BRANCH   1  13
ATOM     12  O   UNL     1      -0.834  11.484  20.657  0.00  0.00    +0.000 OA
ATOM     13  C   UNL     1      -1.390  12.563  20.463  0.00  0.00    +0.000 C 
ATOM     14  N   UNL     1      -0.675  13.779  20.477  0.00  0.00    +0.000 N 
ATOM     15  C   UNL     1      -1.250  15.118  20.247  0.00  0.00    +0.000 C 
ATOM     16  C   UNL     1      -0.508  16.255  20.956  0.00  0.00    +0.000 C 
ATOM     17  N   UNL     1       0.954  16.196  20.711  0.00  0.00    +0.000 NA
ATOM     18  C   UNL     1       1.490  14.862  21.125  0.00  0.00    +0.000 C 
ATOM     19  C   UNL     1       0.795  13.707  20.388  0.00  0.00    +0.000 C 
BRANCH  17  20
ATOM     20  S   UNL     1       1.501  16.782  19.206  0.00  0.00    +0.000 S 
ATOM     21  O   UNL     1       0.591  16.332  18.183  0.00  0.00    +0.000 OA
ATOM     22  O   UNL     1       1.833  18.184  19.352  0.00  0.00    +0.000 OA
BRANCH  20  23
ATOM     23  C   UNL     1       3.059  15.994  18.850  0.00  0.00    +0.000 A 
ATOM     24  C   UNL     1       3.406  14.945  18.017  0.00  0.00    +0.000 A 
ATOM     25  C   UNL     1       4.801  14.657  18.061  0.00  0.00    +0.000 A 
ATOM     26  C   UNL     1       5.473  15.500  18.917  0.00  0.00    +0.000 A 
ATOM     27  S   UNL     1       4.427  16.637  19.652  0.00  0.00    +0.000 S 
ENDBRANCH  20  23
ENDBRANCH  17  20
ENDBRANCH   1  13
BRANCH   3  28
ATOM     28  C   UNL     1      -5.914  13.360  22.223  0.00  0.00    +0.000 A 
ATOM     29  C   UNL     1      -6.914  12.497  22.708  0.00  0.00    +0.000 A 
ATOM     30  C   UNL     1      -7.753  12.877  23.754  0.00  0.00    +0.000 A 
ATOM     31  C   UNL     1      -7.578  14.130  24.305  0.00  0.00    +0.000 A 
ATOM     32  N   UNL     1      -6.650  15.003  23.874  0.00  0.00    +0.000 NA
ATOM     33  C   UNL     1      -5.847  14.603  22.853  0.00  0.00    +0.000 A 
ENDBRANCH   3  28
TORSDOF 4
ENDMDL
MODEL 8
REMARK VINA RESULT:      -6.5      3.477      5.163
REMARK  Name = 
REMARK  4 active torsions:
REMARK  status: ('A' for Active; 'I' for Inactive)
REMARK    1  A    between atoms: C_2  and  C_3
REMARK    2  A    between atoms: C_5  and  C_6
REMARK    3  A    between atoms: N_23  and  S_24
REMARK    4  A    between atoms: S_24  and  C_27
REMARK                            x       y       z     vdW  Elec       q    Type
REMARK                         _______ _______ _______ _____ _____    ______ ____
ROOT
ATOM      1  C   UNL     1      -0.273  12.769  20.784  0.00  0.00    +0.000 A 
ATOM      2  C   UNL     1      -1.216  13.612  21.367  0.00  0.00    +0.000 A 
ATOM      3  C   UNL     1      -1.729  13.326  22.615  0.00  0.00    +0.000 A 
ATOM      4  N   UNL     1      -1.507  12.126  23.185  0.00  0.00    +0.000 NA
ATOM      5  C   UNL     1      -0.782  11.205  22.529  0.00  0.00    +0.000 A 
ATOM      6  C   UNL     1      -0.728   9.922  23.066  0.00  0.00    +0.000 A 
ATOM      7  C   UNL     1      -0.005   8.895  22.457  0.00  0.00    +0.000 A 
ATOM      8  C   UNL     1       0.718   9.160  21.305  0.00  0.00    +0.000 A 
ATOM      9 CL   UNL     1       1.615   7.904  20.552  0.00  0.00    +0.000 Cl
ATOM     10  C   UNL     1       0.697  10.441  20.748  0.00  0.00    +0.000 A 
ATOM     11  C   UNL     1      -0.088  11.474  21.321  0.00  0.00    +0.000 A 
ENDROOT
BRANCH   1  13
ATOM     12  O   UNL     1      -0.101  13.122  18.471  0.00  0.00    +0.000 OA
ATOM     13  C   UNL     1       0.435  13.280  19.565  0.00  0.00    +0.000 C 
ATOM     14  N   UNL     1       1.675  13.940  19.696  0.00  0.00    +0.000 N 
ATOM     15  C   UNL     1       2.391  14.185  20.962  0.00  0.00    +0.000 C 
ATOM     16  C   UNL     1       3.914  14.264  20.824  0.00  0.00    +0.000 C 
ATOM     17  N   UNL     1       4.320  15.186  19.734  0.00  0.00    +0.000 NA
ATOM     18  C   UNL     1       3.682  14.770  18.447  0.00  0.00    +0.000 C 
ATOM     19  C   UNL     1       2.150  14.733  18.547  0.00  0.00    +0.000 C 
BRANCH  17  20
ATOM     20  S   UNL     1       4.269  16.854  20.085  0.00  0.00    +0.000 S 
ATOM     21  O   UNL     1       3.539  17.519  19.035  0.00  0.00    +0.000 OA
ATOM     22  O   UNL     1       3.900  17.020  21.476  0.00  0.00    +0.000 OA
BRANCH  20  23
ATOM     23  C   UNL     1       5.934  17.480  19.991  0.00  0.00    +0.000 A 
ATOM     24  C   UNL     1       6.614  18.436  20.725  0.00  0.00    +0.000 A 
ATOM     25  C   UNL     1       7.957  18.608  20.278  0.00  0.00    +0.000 A 
ATOM     26  C   UNL     1       8.259  17.771  19.227  0.00  0.00    +0.000 A 
ATOM     27  S   UNL     1       6.934  16.780  18.792  0.00  0.00    +0.000 S 
ENDBRANCH  20  23
ENDBRANCH  17  20
ENDBRANCH   1  13
BRANCH   3  28
ATOM     28  C   UNL     1      -2.458  14.339  23.402  0.00  0.00    +0.000 A 
ATOM     29  C   UNL     1      -1.890  14.990  24.512  0.00  0.00    +0.000 A 
ATOM     30  C   UNL     1      -2.625  15.900  25.270  0.00  0.00    +0.000 A 
ATOM     31  C   UNL     1      -3.932  16.145  24.904  0.00  0.00    +0.000 A 
ATOM     32  N   UNL     1      -4.533  15.542  23.863  0.00  0.00    +0.000 NA
ATOM     33  C   UNL     1      -3.791  14.661  23.142  0.00  0.00    +0.000 A 
ENDBRANCH   3  28
TORSDOF 4
ENDMDL
MODEL 9
REMARK VINA RESULT:      -6.5      4.377      5.498
REMARK  Name = 
REMARK  4 active torsions:
REMARK  status: ('A' for Active; 'I' for Inactive)
REMARK    1  A    between atoms: C_2  and  C_3
REMARK    2  A    between atoms: C_5  and  C_6
REMARK    3  A    between atoms: N_23  and  S_24
REMARK    4  A    between atoms: S_24  and  C_27
REMARK                            x       y       z     vdW  Elec       q    Type
REMARK                         _______ _______ _______ _____ _____    ______ ____
ROOT
ATOM      1  C   UNL     1       0.989  10.156  19.828  0.00  0.00    +0.000 A 
ATOM      2  C   UNL     1       1.759   9.004  19.699  0.00  0.00    +0.000 A 
ATOM      3  C   UNL     1       1.515   7.908  20.501  0.00  0.00    +0.000 A 
ATOM      4  N   UNL     1       0.695   8.011  21.564  0.00  0.00    +0.000 NA
ATOM      5  C   UNL     1       0.114   9.191  21.841  0.00  0.00    +0.000 A 
ATOM      6  C   UNL     1      -0.577   9.303  23.044  0.00  0.00    +0.000 A 
ATOM      7  C   UNL     1      -1.210  10.488  23.424  0.00  0.00    +0.000 A 
ATOM      8  C   UNL     1      -1.191  11.577  22.567  0.00  0.00    +0.000 A 
ATOM      9 CL   UNL     1      -1.972  13.037  23.025  0.00  0.00    +0.000 Cl
ATOM     10  C   UNL     1      -0.518  11.492  21.346  0.00  0.00    +0.000 A 
ATOM     11  C   UNL     1       0.186  10.316  20.980  0.00  0.00    +0.000 A 
ENDROOT
BRANCH   1  13
ATOM     12  O   UNL     1       0.744  10.908  17.620  0.00  0.00    +0.000 OA
ATOM     13  C   UNL     1       1.128  11.191  18.752  0.00  0.00    +0.000 C 
ATOM     14  N   UNL     1       1.672  12.456  19.057  0.00  0.00    +0.000 N 
ATOM     15  C   UNL     1       2.150  12.891  20.383  0.00  0.00    +0.000 C 
ATOM     16  C   UNL     1       3.262  13.943  20.342  0.00  0.00    +0.000 C 
ATOM     17  N   UNL     1       2.917  15.073  19.445  0.00  0.00    +0.000 NA
ATOM     18  C   UNL     1       2.605  14.563  18.074  0.00  0.00    +0.000 C 
ATOM     19  C   UNL     1       1.457  13.544  18.085  0.00  0.00    +0.000 C 
BRANCH  17  20
ATOM     20  S   UNL     1       1.841  16.241  20.066  0.00  0.00    +0.000 S 
ATOM     21  O   UNL     1       0.732  15.557  20.684  0.00  0.00    +0.000 OA
ATOM     22  O   UNL     1       2.608  17.234  20.791  0.00  0.00    +0.000 OA
BRANCH  20  23
ATOM     23  C   UNL     1       1.153  17.134  18.687  0.00  0.00    +0.000 A 
ATOM     24  C   UNL     1       1.734  17.859  17.661  0.00  0.00    +0.000 A 
ATOM     25  C   UNL     1       0.766  18.409  16.770  0.00  0.00    +0.000 A 
ATOM     26  C   UNL     1      -0.518  18.078  17.140  0.00  0.00    +0.000 A 
ATOM     27  S   UNL     1      -0.552  17.102  18.545  0.00  0.00    +0.000 S 
ENDBRANCH  20  23
ENDBRANCH  17  20
ENDBRANCH   1  13
BRANCH   3  28
ATOM     28  C   UNL     1       2.065   6.577  20.181  0.00  0.00    +0.000 A 
ATOM     29  C   UNL     1       1.610   5.399  20.801  0.00  0.00    +0.000 A 
ATOM     30  C   UNL     1       2.190   4.163  20.519  0.00  0.00    +0.000 A 
ATOM     31  C   UNL     1       3.231   4.125  19.615  0.00  0.00    +0.000 A 
ATOM     32  N   UNL     1       3.719   5.219  19.003  0.00  0.00    +0.000 NA
ATOM     33  C   UNL     1       3.132   6.409  19.297  0.00  0.00    +0.000 A 
ENDBRANCH   3  28
TORSDOF 4
ENDMDL
