MODEL 1
REMARK VINA RESULT:      -8.3      0.000      0.000
REMARK  Name = 
REMARK  7 active torsions:
REMARK  status: ('A' for Active; 'I' for Inactive)
REMARK    1  A    between atoms: C_1  and  O_2
REMARK    2  A    between atoms: O_2  and  C_3
REMARK    3  A    between atoms: C_7  and  N_8
REMARK    4  A    between atoms: C_12  and  C_14
REMARK    5  A    between atoms: C_18  and  N_19
REMARK    6  A    between atoms: C_20  and  C_22
REMARK    7  A    between atoms: C_23  and  C_24
REMARK                            x       y       z     vdW  Elec       q    Type
REMARK                         _______ _______ _______ _____ _____    ______ ____
ROOT
ATOM      1  C   UNL     1       1.375   8.832  19.447  0.00  0.00    +0.000 A 
ATOM      2  C   UNL     1       0.941   8.118  20.572  0.00  0.00    +0.000 A 
ATOM      3  C   UNL     1       1.470   6.854  20.819  0.00  0.00    +0.000 A 
ATOM      4  C   UNL     1       2.389   6.302  19.945  0.00  0.00    +0.000 A 
ATOM      5  C   UNL     1       2.851   7.007  18.838  0.00  0.00    +0.000 A 
ATOM      6  C   UNL     1       2.382   8.300  18.630  0.00  0.00    +0.000 A 
ENDROOT
BRANCH   1  11
ATOM      7  N   UNL     1      -1.559  12.061  22.088  0.00  0.00    +0.000 N 
ATOM      8  C   UNL     1      -1.749  12.337  20.656  0.00  0.00    +0.000 C 
ATOM      9  C   UNL     1      -0.402  12.189  19.921  0.00  0.00    +0.000 C 
ATOM     10  N   UNL     1       0.258  10.909  20.228  0.00  0.00    +0.000 N 
ATOM     11  C   UNL     1       0.806  10.178  19.179  0.00  0.00    +0.000 C 
ATOM     12  O   UNL     1       0.831  10.586  18.020  0.00  0.00    +0.000 OA
ATOM     13  C   UNL     1       0.415  10.678  21.682  0.00  0.00    +0.000 C 
ATOM     14  C   UNL     1      -0.938  10.771  22.402  0.00  0.00    +0.000 C 
BRANCH   7  19
ATOM     15  C   UNL     1      -1.750  14.841  24.526  0.00  0.00    +0.000 A 
ATOM     16  C   UNL     1      -2.999  14.610  25.094  0.00  0.00    +0.000 A 
ATOM     17  C   UNL     1      -3.772  13.534  24.667  0.00  0.00    +0.000 A 
ATOM     18  C   UNL     1      -3.298  12.689  23.663  0.00  0.00    +0.000 A 
ATOM     19  C   UNL     1      -2.043  12.888  23.077  0.00  0.00    +0.000 A 
ATOM     20  C   UNL     1      -1.289  13.981  23.528  0.00  0.00    +0.000 A 
BRANCH  15  22
ATOM     21  C   UNL     1      -0.823  15.925  26.420  0.00  0.00    +0.000 C 
ATOM     22  O   UNL     1      -1.063  15.921  25.015  0.00  0.00    +0.000 OA
ENDBRANCH  15  22
ENDBRANCH   7  19
ENDBRANCH   1  11
BRANCH   5  23
ATOM     23  N   UNL     1       3.765   6.473  17.905  0.00  0.00    +0.000 N 
ATOM     24  C   UNL     1       4.908   5.769  18.239  0.00  0.00    +0.000 C 
ATOM     25  O   UNL     1       5.289   5.552  19.375  0.00  0.00    +0.000 OA
ATOM     26  H   UNL     1       3.614   6.643  16.919  0.00  0.00    +0.000 HD
BRANCH  24  27
ATOM     27  C   UNL     1       5.728   5.292  17.064  0.00  0.00    +0.000 C 
ATOM     28  C   UNL     1       6.818   5.978  16.670  0.00  0.00    +0.000 C 
ATOM     29  C   UNL     1       7.418   7.162  17.402  0.00  0.00    +0.000 C 
ATOM     30  O   UNL     1       7.607   5.628  15.598  0.00  0.00    +0.000 OA
ATOM     31  C   UNL     1       7.050   4.943  14.485  0.00  0.00    +0.000 C 
ATOM     32  C   UNL     1       5.914   3.953  14.697  0.00  0.00    +0.000 C 
ATOM     33  S   UNL     1       5.220   3.804  16.341  0.00  0.00    +0.000 S 
ENDBRANCH  24  27
ENDBRANCH   5  23
TORSDOF 5
ENDMDL
MODEL 2
REMARK VINA RESULT:      -8.2      3.189      3.904
REMARK  Name = 
REMARK  7 active torsions:
REMARK  status: ('A' for Active; 'I' for Inactive)
REMARK    1  A    between atoms: C_1  and  O_2
REMARK    2  A    between atoms: O_2  and  C_3
REMARK    3  A    between atoms: C_7  and  N_8
REMARK    4  A    between atoms: C_12  and  C_14
REMARK    5  A    between atoms: C_18  and  N_19
REMARK    6  A    between atoms: C_20  and  C_22
REMARK    7  A    between atoms: C_23  and  C_24
REMARK                            x       y       z     vdW  Elec       q    Type
REMARK                         _______ _______ _______ _____ _____    ______ ____
ROOT
ATOM      1  C   UNL     1       0.931   9.348  18.948  0.00  0.00    +0.000 A 
ATOM      2  C   UNL     1       0.691   8.896  20.253  0.00  0.00    +0.000 A 
ATOM      3  C   UNL     1       1.423   7.817  20.743  0.00  0.00    +0.000 A 
ATOM      4  C   UNL     1       2.353   7.185  19.937  0.00  0.00    +0.000 A 
ATOM      5  C   UNL     1       2.623   7.637  18.650  0.00  0.00    +0.000 A 
ATOM      6  C   UNL     1       1.948   8.761  18.184  0.00  0.00    +0.000 A 
ENDROOT
BRANCH   1  11
ATOM      7  N   UNL     1       0.866  14.364  19.873  0.00  0.00    +0.000 N 
ATOM      8  C   UNL     1      -0.459  13.974  19.367  0.00  0.00    +0.000 C 
ATOM      9  C   UNL     1      -0.295  12.909  18.264  0.00  0.00    +0.000 C 
ATOM     10  N   UNL     1       0.561  11.793  18.697  0.00  0.00    +0.000 N 
ATOM     11  C   UNL     1       0.144  10.494  18.423  0.00  0.00    +0.000 C 
ATOM     12  O   UNL     1      -0.866  10.238  17.772  0.00  0.00    +0.000 OA
ATOM     13  C   UNL     1       1.876  12.240  19.206  0.00  0.00    +0.000 C 
ATOM     14  C   UNL     1       1.709  13.259  20.342  0.00  0.00    +0.000 C 
BRANCH   7  19
ATOM     15  C   UNL     1       3.022  17.369  20.035  0.00  0.00    +0.000 A 
ATOM     16  C   UNL     1       2.080  18.356  20.313  0.00  0.00    +0.000 A 
ATOM     17  C   UNL     1       0.736  18.020  20.445  0.00  0.00    +0.000 A 
ATOM     18  C   UNL     1       0.329  16.694  20.293  0.00  0.00    +0.000 A 
ATOM     19  C   UNL     1       1.251  15.677  20.022  0.00  0.00    +0.000 A 
ATOM     20  C   UNL     1       2.597  16.048  19.894  0.00  0.00    +0.000 A 
BRANCH  15  22
ATOM     21  C   UNL     1       5.170  17.009  19.101  0.00  0.00    +0.000 C 
ATOM     22  O   UNL     1       4.319  17.797  19.928  0.00  0.00    +0.000 OA
ENDBRANCH  15  22
ENDBRANCH   7  19
ENDBRANCH   1  11
BRANCH   5  23
ATOM     23  N   UNL     1       3.541   7.007  17.783  0.00  0.00    +0.000 N 
ATOM     24  C   UNL     1       4.467   6.057  18.175  0.00  0.00    +0.000 C 
ATOM     25  O   UNL     1       4.633   5.671  19.319  0.00  0.00    +0.000 OA
ATOM     26  H   UNL     1       3.569   7.286  16.810  0.00  0.00    +0.000 HD
BRANCH  24  27
ATOM     27  C   UNL     1       5.339   5.522  17.066  0.00  0.00    +0.000 C 
ATOM     28  C   UNL     1       6.506   6.124  16.764  0.00  0.00    +0.000 C 
ATOM     29  C   UNL     1       7.133   7.258  17.550  0.00  0.00    +0.000 C 
ATOM     30  O   UNL     1       7.349   5.718  15.755  0.00  0.00    +0.000 OA
ATOM     31  C   UNL     1       6.832   5.078  14.596  0.00  0.00    +0.000 C 
ATOM     32  C   UNL     1       5.612   4.176  14.710  0.00  0.00    +0.000 C 
ATOM     33  S   UNL     1       4.781   4.077  16.293  0.00  0.00    +0.000 S 
ENDBRANCH  24  27
ENDBRANCH   5  23
TORSDOF 5
ENDMDL
MODEL 3
REMARK VINA RESULT:      -8.1      3.197      3.995
REMARK  Name = 
REMARK  7 active torsions:
REMARK  status: ('A' for Active; 'I' for Inactive)
REMARK    1  A    between atoms: C_1  and  O_2
REMARK    2  A    between atoms: O_2  and  C_3
REMARK    3  A    between atoms: C_7  and  N_8
REMARK    4  A    between atoms: C_12  and  C_14
REMARK    5  A    between atoms: C_18  and  N_19
REMARK    6  A    between atoms: C_20  and  C_22
REMARK    7  A    between atoms: C_23  and  C_24
REMARK                            x       y       z     vdW  Elec       q    Type
REMARK                         _______ _______ _______ _____ _____    ______ ____
ROOT
ATOM      1  C   UNL     1       1.012   9.118  18.928  0.00  0.00    +0.000 A 
ATOM      2  C   UNL     1       0.776   8.684  20.240  0.00  0.00    +0.000 A 
ATOM      3  C   UNL     1       1.551   7.651  20.762  0.00  0.00    +0.000 A 
ATOM      4  C   UNL     1       2.520   7.046  19.983  0.00  0.00    +0.000 A 
ATOM      5  C   UNL     1       2.786   7.482  18.689  0.00  0.00    +0.000 A 
ATOM      6  C   UNL     1       2.066   8.562  18.189  0.00  0.00    +0.000 A 
ENDROOT
BRANCH   1  11
ATOM      7  N   UNL     1       0.777  14.160  19.659  0.00  0.00    +0.000 N 
ATOM      8  C   UNL     1      -0.538  13.705  19.182  0.00  0.00    +0.000 C 
ATOM      9  C   UNL     1      -0.347  12.604  18.121  0.00  0.00    +0.000 C 
ATOM     10  N   UNL     1       0.553  11.536  18.587  0.00  0.00    +0.000 N 
ATOM     11  C   UNL     1       0.180  10.214  18.368  0.00  0.00    +0.000 C 
ATOM     12  O   UNL     1      -0.827   9.897  17.738  0.00  0.00    +0.000 OA
ATOM     13  C   UNL     1       1.856  12.049  19.064  0.00  0.00    +0.000 C 
ATOM     14  C   UNL     1       1.663  13.105  20.161  0.00  0.00    +0.000 C 
BRANCH   7  19
ATOM     15  C   UNL     1       1.416  17.674  18.683  0.00  0.00    +0.000 A 
ATOM     16  C   UNL     1       1.795  18.223  19.903  0.00  0.00    +0.000 A 
ATOM     17  C   UNL     1       1.838  17.427  21.044  0.00  0.00    +0.000 A 
ATOM     18  C   UNL     1       1.494  16.077  20.966  0.00  0.00    +0.000 A 
ATOM     19  C   UNL     1       1.116  15.491  19.753  0.00  0.00    +0.000 A 
ATOM     20  C   UNL     1       1.082  16.320  18.622  0.00  0.00    +0.000 A 
BRANCH  15  22
ATOM     21  C   UNL     1       0.184  18.626  16.895  0.00  0.00    +0.000 C 
ATOM     22  O   UNL     1       1.408  18.536  17.618  0.00  0.00    +0.000 OA
ENDBRANCH  15  22
ENDBRANCH   7  19
ENDBRANCH   1  11
BRANCH   5  23
ATOM     23  N   UNL     1       3.744   6.876  17.848  0.00  0.00    +0.000 N 
ATOM     24  C   UNL     1       4.567   5.829  18.221  0.00  0.00    +0.000 C 
ATOM     25  O   UNL     1       4.596   5.322  19.329  0.00  0.00    +0.000 OA
ATOM     26  H   UNL     1       3.884   7.247  16.917  0.00  0.00    +0.000 HD
BRANCH  24  27
ATOM     27  C   UNL     1       5.509   5.345  17.146  0.00  0.00    +0.000 C 
ATOM     28  C   UNL     1       6.672   5.986  16.919  0.00  0.00    +0.000 C 
ATOM     29  C   UNL     1       7.227   7.116  17.763  0.00  0.00    +0.000 C 
ATOM     30  O   UNL     1       7.576   5.628  15.945  0.00  0.00    +0.000 OA
ATOM     31  C   UNL     1       7.137   5.004  14.746  0.00  0.00    +0.000 C 
ATOM     32  C   UNL     1       5.939   4.067  14.776  0.00  0.00    +0.000 C 
ATOM     33  S   UNL     1       5.031   3.906  16.312  0.00  0.00    +0.000 S 
ENDBRANCH  24  27
ENDBRANCH   5  23
TORSDOF 5
ENDMDL
MODEL 4
REMARK VINA RESULT:      -8.1      3.792     11.022
REMARK  Name = 
REMARK  7 active torsions:
REMARK  status: ('A' for Active; 'I' for Inactive)
REMARK    1  A    between atoms: C_1  and  O_2
REMARK    2  A    between atoms: O_2  and  C_3
REMARK    3  A    between atoms: C_7  and  N_8
REMARK    4  A    between atoms: C_12  and  C_14
REMARK    5  A    between atoms: C_18  and  N_19
REMARK    6  A    between atoms: C_20  and  C_22
REMARK    7  A    between atoms: C_23  and  C_24
REMARK                            x       y       z     vdW  Elec       q    Type
REMARK                         _______ _______ _______ _____ _____    ______ ____
ROOT
ATOM      1  C   UNL     1      -0.581  10.336  19.543  0.00  0.00    +0.000 A 
ATOM      2  C   UNL     1      -1.277   9.896  18.409  0.00  0.00    +0.000 A 
ATOM      3  C   UNL     1      -1.953  10.826  17.624  0.00  0.00    +0.000 A 
ATOM      4  C   UNL     1      -1.959  12.163  17.980  0.00  0.00    +0.000 A 
ATOM      5  C   UNL     1      -1.251  12.621  19.086  0.00  0.00    +0.000 A 
ATOM      6  C   UNL     1      -0.512  11.706  19.830  0.00  0.00    +0.000 A 
ENDROOT
BRANCH   1  11
ATOM      7  N   UNL     1       2.963   6.780  18.644  0.00  0.00    +0.000 N 
ATOM      8  C   UNL     1       2.205   6.379  19.839  0.00  0.00    +0.000 C 
ATOM      9  C   UNL     1       1.874   7.628  20.680  0.00  0.00    +0.000 C 
ATOM     10  N   UNL     1       1.250   8.689  19.872  0.00  0.00    +0.000 N 
ATOM     11  C   UNL     1       0.134   9.342  20.385  0.00  0.00    +0.000 C 
ATOM     12  O   UNL     1      -0.310   9.127  21.510  0.00  0.00    +0.000 OA
ATOM     13  C   UNL     1       2.049   9.046  18.678  0.00  0.00    +0.000 C 
ATOM     14  C   UNL     1       2.329   7.809  17.814  0.00  0.00    +0.000 C 
BRANCH   7  19
ATOM     15  C   UNL     1       5.781   5.675  16.512  0.00  0.00    +0.000 A 
ATOM     16  C   UNL     1       6.497   4.887  17.408  0.00  0.00    +0.000 A 
ATOM     17  C   UNL     1       6.043   4.725  18.714  0.00  0.00    +0.000 A 
ATOM     18  C   UNL     1       4.871   5.359  19.128  0.00  0.00    +0.000 A 
ATOM     19  C   UNL     1       4.123   6.151  18.251  0.00  0.00    +0.000 A 
ATOM     20  C   UNL     1       4.608   6.295  16.943  0.00  0.00    +0.000 A 
BRANCH  15  22
ATOM     21  C   UNL     1       6.504   4.539  14.561  0.00  0.00    +0.000 C 
ATOM     22  O   UNL     1       6.307   5.770  15.251  0.00  0.00    +0.000 OA
ENDBRANCH  15  22
ENDBRANCH   7  19
ENDBRANCH   1  11
BRANCH   5  23
ATOM     23  N   UNL     1      -1.252  13.969  19.503  0.00  0.00    +0.000 N 
ATOM     24  C   UNL     1      -0.234  14.871  19.251  0.00  0.00    +0.000 C 
ATOM     25  O   UNL     1       0.805  14.609  18.672  0.00  0.00    +0.000 OA
ATOM     26  H   UNL     1      -2.024  14.309  20.064  0.00  0.00    +0.000 HD
BRANCH  24  27
ATOM     27  C   UNL     1      -0.465  16.260  19.795  0.00  0.00    +0.000 C 
ATOM     28  C   UNL     1      -0.178  16.547  21.079  0.00  0.00    +0.000 C 
ATOM     29  C   UNL     1       0.515  15.612  22.049  0.00  0.00    +0.000 C 
ATOM     30  O   UNL     1      -0.379  17.778  21.661  0.00  0.00    +0.000 OA
ATOM     31  C   UNL     1      -1.422  18.630  21.207  0.00  0.00    +0.000 C 
ATOM     32  C   UNL     1      -1.811  18.631  19.736  0.00  0.00    +0.000 C 
ATOM     33  S   UNL     1      -1.031  17.434  18.656  0.00  0.00    +0.000 S 
ENDBRANCH  24  27
ENDBRANCH   5  23
TORSDOF 5
ENDMDL
MODEL 5
REMARK VINA RESULT:      -8.0      1.015      1.713
REMARK  Name = 
REMARK  7 active torsions:
REMARK  status: ('A' for Active; 'I' for Inactive)
REMARK    1  A    between atoms: C_1  and  O_2
REMARK    2  A    between atoms: O_2  and  C_3
REMARK    3  A    between atoms: C_7  and  N_8
REMARK    4  A    between atoms: C_12  and  C_14
REMARK    5  A    between atoms: C_18  and  N_19
REMARK    6  A    between atoms: C_20  and  C_22
REMARK    7  A    between atoms: C_23  and  C_24
REMARK                            x       y       z     vdW  Elec       q    Type
REMARK                         _______ _______ _______ _____ _____    ______ ____
ROOT
ATOM      1  C   UNL     1       1.480   8.803  19.312  0.00  0.00    +0.000 A 
ATOM      2  C   UNL     1       1.057   8.104  20.450  0.00  0.00    +0.000 A 
ATOM      3  C   UNL     1       1.589   6.843  20.708  0.00  0.00    +0.000 A 
ATOM      4  C   UNL     1       2.500   6.280  19.832  0.00  0.00    +0.000 A 
ATOM      5  C   UNL     1       2.951   6.971  18.712  0.00  0.00    +0.000 A 
ATOM      6  C   UNL     1       2.480   8.261  18.492  0.00  0.00    +0.000 A 
ENDROOT
BRANCH   1  11
ATOM      7  N   UNL     1      -1.570  11.991  21.871  0.00  0.00    +0.000 N 
ATOM      8  C   UNL     1      -1.715  12.273  20.435  0.00  0.00    +0.000 C 
ATOM      9  C   UNL     1      -0.343  12.141  19.744  0.00  0.00    +0.000 C 
ATOM     10  N   UNL     1       0.318  10.866  20.067  0.00  0.00    +0.000 N 
ATOM     11  C   UNL     1       0.907  10.146  19.033  0.00  0.00    +0.000 C 
ATOM     12  O   UNL     1       0.966  10.560  17.877  0.00  0.00    +0.000 OA
ATOM     13  C   UNL     1       0.429  10.628  21.523  0.00  0.00    +0.000 C 
ATOM     14  C   UNL     1      -0.947  10.705  22.199  0.00  0.00    +0.000 C 
BRANCH   7  19
ATOM     15  C   UNL     1      -3.978  13.451  24.275  0.00  0.00    +0.000 A 
ATOM     16  C   UNL     1      -3.203  14.453  24.850  0.00  0.00    +0.000 A 
ATOM     17  C   UNL     1      -1.886  14.640  24.440  0.00  0.00    +0.000 A 
ATOM     18  C   UNL     1      -1.339  13.818  23.453  0.00  0.00    +0.000 A 
ATOM     19  C   UNL     1      -2.094  12.807  22.848  0.00  0.00    +0.000 A 
ATOM     20  C   UNL     1      -3.416  12.643  23.285  0.00  0.00    +0.000 A 
BRANCH  15  22
ATOM     21  C   UNL     1      -6.232  12.886  23.808  0.00  0.00    +0.000 C 
ATOM     22  O   UNL     1      -5.261  13.347  24.743  0.00  0.00    +0.000 OA
ENDBRANCH  15  22
ENDBRANCH   7  19
ENDBRANCH   1  11
BRANCH   5  23
ATOM     23  N   UNL     1       3.856   6.426  17.778  0.00  0.00    +0.000 N 
ATOM     24  C   UNL     1       4.987   5.701  18.109  0.00  0.00    +0.000 C 
ATOM     25  O   UNL     1       5.364   5.472  19.244  0.00  0.00    +0.000 OA
ATOM     26  H   UNL     1       3.710   6.603  16.791  0.00  0.00    +0.000 HD
BRANCH  24  27
ATOM     27  C   UNL     1       5.800   5.216  16.933  0.00  0.00    +0.000 C 
ATOM     28  C   UNL     1       6.898   5.888  16.538  0.00  0.00    +0.000 C 
ATOM     29  C   UNL     1       7.514   7.063  17.272  0.00  0.00    +0.000 C 
ATOM     30  O   UNL     1       7.682   5.530  15.465  0.00  0.00    +0.000 OA
ATOM     31  C   UNL     1       7.115   4.854  14.351  0.00  0.00    +0.000 C 
ATOM     32  C   UNL     1       5.967   3.878  14.562  0.00  0.00    +0.000 C 
ATOM     33  S   UNL     1       5.272   3.735  16.207  0.00  0.00    +0.000 S 
ENDBRANCH  24  27
ENDBRANCH   5  23
TORSDOF 5
ENDMDL
MODEL 6
REMARK VINA RESULT:      -7.9      3.565      4.909
REMARK  Name = 
REMARK  7 active torsions:
REMARK  status: ('A' for Active; 'I' for Inactive)
REMARK    1  A    between atoms: C_1  and  O_2
REMARK    2  A    between atoms: O_2  and  C_3
REMARK    3  A    between atoms: C_7  and  N_8
REMARK    4  A    between atoms: C_12  and  C_14
REMARK    5  A    between atoms: C_18  and  N_19
REMARK    6  A    between atoms: C_20  and  C_22
REMARK    7  A    between atoms: C_23  and  C_24
REMARK                            x       y       z     vdW  Elec       q    Type
REMARK                         _______ _______ _______ _____ _____    ______ ____
ROOT
ATOM      1  C   UNL     1       1.002   9.990  19.690  0.00  0.00    +0.000 A 
ATOM      2  C   UNL     1       1.317  10.487  18.418  0.00  0.00    +0.000 A 
ATOM      3  C   UNL     1       2.113   9.723  17.568  0.00  0.00    +0.000 A 
ATOM      4  C   UNL     1       2.608   8.503  17.991  0.00  0.00    +0.000 A 
ATOM      5  C   UNL     1       2.284   7.982  19.239  0.00  0.00    +0.000 A 
ATOM      6  C   UNL     1       1.428   8.708  20.061  0.00  0.00    +0.000 A 
ENDROOT
BRANCH   1  11
ATOM      7  N   UNL     1      -3.557  12.241  19.280  0.00  0.00    +0.000 N 
ATOM      8  C   UNL     1      -2.779  12.963  20.298  0.00  0.00    +0.000 C 
ATOM      9  C   UNL     1      -1.952  11.958  21.123  0.00  0.00    +0.000 C 
ATOM     10  N   UNL     1      -1.170  11.051  20.266  0.00  0.00    +0.000 N 
ATOM     11  C   UNL     1       0.159  10.809  20.599  0.00  0.00    +0.000 C 
ATOM     12  O   UNL     1       0.688  11.257  21.614  0.00  0.00    +0.000 OA
ATOM     13  C   UNL     1      -1.998  10.358  19.255  0.00  0.00    +0.000 C 
ATOM     14  C   UNL     1      -2.778  11.366  18.399  0.00  0.00    +0.000 C 
BRANCH   7  19
ATOM     15  C   UNL     1      -7.049  13.309  19.886  0.00  0.00    +0.000 A 
ATOM     16  C   UNL     1      -7.653  12.931  18.691  0.00  0.00    +0.000 A 
ATOM     17  C   UNL     1      -6.900  12.323  17.690  0.00  0.00    +0.000 A 
ATOM     18  C   UNL     1      -5.537  12.098  17.881  0.00  0.00    +0.000 A 
ATOM     19  C   UNL     1      -4.900  12.459  19.074  0.00  0.00    +0.000 A 
ATOM     20  C   UNL     1      -5.686  13.070  20.062  0.00  0.00    +0.000 A 
BRANCH  15  22
ATOM     21  C   UNL     1      -7.916  13.276  22.092  0.00  0.00    +0.000 C 
ATOM     22  O   UNL     1      -7.873  13.896  20.810  0.00  0.00    +0.000 OA
ENDBRANCH  15  22
ENDBRANCH   7  19
ENDBRANCH   1  11
BRANCH   5  23
ATOM     23  N   UNL     1       2.789   6.756  19.722  0.00  0.00    +0.000 N 
ATOM     24  C   UNL     1       2.613   5.533  19.101  0.00  0.00    +0.000 C 
ATOM     25  O   UNL     1       1.972   5.353  18.080  0.00  0.00    +0.000 OA
ATOM     26  H   UNL     1       3.281   6.743  20.607  0.00  0.00    +0.000 HD
BRANCH  24  27
ATOM     27  C   UNL     1       3.252   4.362  19.807  0.00  0.00    +0.000 C 
ATOM     28  C   UNL     1       4.435   3.874  19.386  0.00  0.00    +0.000 C 
ATOM     29  C   UNL     1       5.303   4.494  18.310  0.00  0.00    +0.000 C 
ATOM     30  O   UNL     1       5.075   2.797  19.956  0.00  0.00    +0.000 OA
ATOM     31  C   UNL     1       4.329   1.760  20.578  0.00  0.00    +0.000 C 
ATOM     32  C   UNL     1       3.029   2.089  21.297  0.00  0.00    +0.000 C 
ATOM     33  S   UNL     1       2.412   3.768  21.199  0.00  0.00    +0.000 S 
ENDBRANCH  24  27
ENDBRANCH   5  23
TORSDOF 5
ENDMDL
MODEL 7
REMARK VINA RESULT:      -7.9      4.191     10.733
REMARK  Name = 
REMARK  7 active torsions:
REMARK  status: ('A' for Active; 'I' for Inactive)
REMARK    1  A    between atoms: C_1  and  O_2
REMARK    2  A    between atoms: O_2  and  C_3
REMARK    3  A    between atoms: C_7  and  N_8
REMARK    4  A    between atoms: C_12  and  C_14
REMARK    5  A    between atoms: C_18  and  N_19
REMARK    6  A    between atoms: C_20  and  C_22
REMARK    7  A    between atoms: C_23  and  C_24
REMARK                            x       y       z     vdW  Elec       q    Type
REMARK                         _______ _______ _______ _____ _____    ______ ____
ROOT
ATOM      1  C   UNL     1      -0.224  10.387  19.447  0.00  0.00    +0.000 A 
ATOM      2  C   UNL     1      -1.172  10.114  18.452  0.00  0.00    +0.000 A 
ATOM      3  C   UNL     1      -1.748  11.174  17.755  0.00  0.00    +0.000 A 
ATOM      4  C   UNL     1      -1.408  12.477  18.066  0.00  0.00    +0.000 A 
ATOM      5  C   UNL     1      -0.449  12.765  19.032  0.00  0.00    +0.000 A 
ATOM      6  C   UNL     1       0.184  11.708  19.677  0.00  0.00    +0.000 A 
ENDROOT
BRANCH   1  11
ATOM      7  N   UNL     1       3.158   6.746  18.298  0.00  0.00    +0.000 N 
ATOM      8  C   UNL     1       2.312   6.255  19.397  0.00  0.00    +0.000 C 
ATOM      9  C   UNL     1       2.005   7.414  20.366  0.00  0.00    +0.000 C 
ATOM     10  N   UNL     1       1.489   8.600  19.663  0.00  0.00    +0.000 N 
ATOM     11  C   UNL     1       0.385   9.257  20.196  0.00  0.00    +0.000 C 
ATOM     12  O   UNL     1      -0.133   8.938  21.264  0.00  0.00    +0.000 OA
ATOM     13  C   UNL     1       2.373   9.046  18.563  0.00  0.00    +0.000 C 
ATOM     14  C   UNL     1       2.631   7.904  17.569  0.00  0.00    +0.000 C 
BRANCH   7  19
ATOM     15  C   UNL     1       5.940   5.612  16.135  0.00  0.00    +0.000 A 
ATOM     16  C   UNL     1       6.640   4.790  17.013  0.00  0.00    +0.000 A 
ATOM     17  C   UNL     1       6.187   4.616  18.318  0.00  0.00    +0.000 A 
ATOM     18  C   UNL     1       5.033   5.270  18.749  0.00  0.00    +0.000 A 
ATOM     19  C   UNL     1       4.301   6.096  17.889  0.00  0.00    +0.000 A 
ATOM     20  C   UNL     1       4.784   6.253  16.582  0.00  0.00    +0.000 A 
BRANCH  15  22
ATOM     21  C   UNL     1       6.672   4.490  14.179  0.00  0.00    +0.000 C 
ATOM     22  O   UNL     1       6.463   5.717  14.873  0.00  0.00    +0.000 OA
ENDBRANCH  15  22
ENDBRANCH   7  19
ENDBRANCH   1  11
BRANCH   5  23
ATOM     23  N   UNL     1      -0.092  14.079  19.401  0.00  0.00    +0.000 N 
ATOM     24  C   UNL     1       1.114  14.683  19.093  0.00  0.00    +0.000 C 
ATOM     25  O   UNL     1       2.032  14.147  18.497  0.00  0.00    +0.000 OA
ATOM     26  H   UNL     1      -0.732  14.621  19.970  0.00  0.00    +0.000 HD
BRANCH  24  27
ATOM     27  C   UNL     1       1.264  16.099  19.594  0.00  0.00    +0.000 C 
ATOM     28  C   UNL     1       2.029  16.982  18.923  0.00  0.00    +0.000 C 
ATOM     29  C   UNL     1       2.677  16.731  17.576  0.00  0.00    +0.000 C 
ATOM     30  O   UNL     1       2.239  18.283  19.321  0.00  0.00    +0.000 OA
ATOM     31  C   UNL     1       2.211  18.630  20.698  0.00  0.00    +0.000 C 
ATOM     32  C   UNL     1       1.275  17.895  21.645  0.00  0.00    +0.000 C 
ATOM     33  S   UNL     1       0.345  16.505  21.003  0.00  0.00    +0.000 S 
ENDBRANCH  24  27
ENDBRANCH   5  23
TORSDOF 5
ENDMDL
MODEL 8
REMARK VINA RESULT:      -7.9      4.236     10.597
REMARK  Name = 
REMARK  7 active torsions:
REMARK  status: ('A' for Active; 'I' for Inactive)
REMARK    1  A    between atoms: C_1  and  O_2
REMARK    2  A    between atoms: O_2  and  C_3
REMARK    3  A    between atoms: C_7  and  N_8
REMARK    4  A    between atoms: C_12  and  C_14
REMARK    5  A    between atoms: C_18  and  N_19
REMARK    6  A    between atoms: C_20  and  C_22
REMARK    7  A    between atoms: C_23  and  C_24
REMARK                            x       y       z     vdW  Elec       q    Type
REMARK                         _______ _______ _______ _____ _____    ______ ____
ROOT
ATOM      1  C   UNL     1       0.085  10.416  19.893  0.00  0.00    +0.000 A 
ATOM      2  C   UNL     1      -1.063  10.243  19.108  0.00  0.00    +0.000 A 
ATOM      3  C   UNL     1      -1.647  11.355  18.506  0.00  0.00    +0.000 A 
ATOM      4  C   UNL     1      -1.115  12.615  18.709  0.00  0.00    +0.000 A 
ATOM      5  C   UNL     1       0.039  12.802  19.463  0.00  0.00    +0.000 A 
ATOM      6  C   UNL     1       0.669  11.685  20.003  0.00  0.00    +0.000 A 
ENDROOT
BRANCH   1  11
ATOM      7  N   UNL     1       2.656   6.350  18.198  0.00  0.00    +0.000 N 
ATOM      8  C   UNL     1       2.024   5.992  19.477  0.00  0.00    +0.000 C 
ATOM      9  C   UNL     1       2.084   7.197  20.436  0.00  0.00    +0.000 C 
ATOM     10  N   UNL     1       1.573   8.427  19.810  0.00  0.00    +0.000 N 
ATOM     11  C   UNL     1       0.704   9.230  20.541  0.00  0.00    +0.000 C 
ATOM     12  O   UNL     1       0.403   9.000  21.710  0.00  0.00    +0.000 OA
ATOM     13  C   UNL     1       2.236   8.736  18.523  0.00  0.00    +0.000 C 
ATOM     14  C   UNL     1       2.125   7.553  17.550  0.00  0.00    +0.000 C 
BRANCH   7  19
ATOM     15  C   UNL     1       5.585   5.337  16.173  0.00  0.00    +0.000 A 
ATOM     16  C   UNL     1       5.529   3.953  16.300  0.00  0.00    +0.000 A 
ATOM     17  C   UNL     1       4.521   3.361  17.056  0.00  0.00    +0.000 A 
ATOM     18  C   UNL     1       3.568   4.157  17.693  0.00  0.00    +0.000 A 
ATOM     19  C   UNL     1       3.591   5.551  17.579  0.00  0.00    +0.000 A 
ATOM     20  C   UNL     1       4.620   6.116  16.812  0.00  0.00    +0.000 A 
BRANCH  15  22
ATOM     21  C   UNL     1       7.116   4.944  14.406  0.00  0.00    +0.000 C 
ATOM     22  O   UNL     1       6.612   5.824  15.407  0.00  0.00    +0.000 OA
ENDBRANCH  15  22
ENDBRANCH   7  19
ENDBRANCH   1  11
BRANCH   5  23
ATOM     23  N   UNL     1       0.601  14.071  19.720  0.00  0.00    +0.000 N 
ATOM     24  C   UNL     1       1.635  14.635  18.995  0.00  0.00    +0.000 C 
ATOM     25  O   UNL     1       2.215  14.096  18.069  0.00  0.00    +0.000 OA
ATOM     26  H   UNL     1       0.266  14.603  20.514  0.00  0.00    +0.000 HD
BRANCH  24  27
ATOM     27  C   UNL     1       2.062  16.006  19.457  0.00  0.00    +0.000 C 
ATOM     28  C   UNL     1       3.067  16.145  20.344  0.00  0.00    +0.000 C 
ATOM     29  C   UNL     1       3.949  15.021  20.848  0.00  0.00    +0.000 C 
ATOM     30  O   UNL     1       3.504  17.354  20.835  0.00  0.00    +0.000 OA
ATOM     31  C   UNL     1       2.609  18.451  20.958  0.00  0.00    +0.000 C 
ATOM     32  C   UNL     1       1.483  18.625  19.950  0.00  0.00    +0.000 C 
ATOM     33  S   UNL     1       1.243  17.342  18.723  0.00  0.00    +0.000 S 
ENDBRANCH  24  27
ENDBRANCH   5  23
TORSDOF 5
ENDMDL
MODEL 9
REMARK VINA RESULT:      -7.9      3.896     10.879
REMARK  Name = 
REMARK  7 active torsions:
REMARK  status: ('A' for Active; 'I' for Inactive)
REMARK    1  A    between atoms: C_1  and  O_2
REMARK    2  A    between atoms: O_2  and  C_3
REMARK    3  A    between atoms: C_7  and  N_8
REMARK    4  A    between atoms: C_12  and  C_14
REMARK    5  A    between atoms: C_18  and  N_19
REMARK    6  A    between atoms: C_20  and  C_22
REMARK    7  A    between atoms: C_23  and  C_24
REMARK                            x       y       z     vdW  Elec       q    Type
REMARK                         _______ _______ _______ _____ _____    ______ ____
ROOT
ATOM      1  C   UNL     1      -0.413  10.323  19.614  0.00  0.00    +0.000 A 
ATOM      2  C   UNL     1      -1.200   9.988  18.504  0.00  0.00    +0.000 A 
ATOM      3  C   UNL     1      -1.911  10.991  17.849  0.00  0.00    +0.000 A 
ATOM      4  C   UNL     1      -1.861  12.294  18.311  0.00  0.00    +0.000 A 
ATOM      5  C   UNL     1      -1.065  12.648  19.395  0.00  0.00    +0.000 A 
ATOM      6  C   UNL     1      -0.295  11.663  20.006  0.00  0.00    +0.000 A 
ENDROOT
BRANCH   1  11
ATOM      7  N   UNL     1       2.948   6.772  18.164  0.00  0.00    +0.000 N 
ATOM      8  C   UNL     1       2.277   6.296  19.384  0.00  0.00    +0.000 C 
ATOM      9  C   UNL     1       2.048   7.482  20.340  0.00  0.00    +0.000 C 
ATOM     10  N   UNL     1       1.392   8.616  19.668  0.00  0.00    +0.000 N 
ATOM     11  C   UNL     1       0.339   9.251  20.318  0.00  0.00    +0.000 C 
ATOM     12  O   UNL     1      -0.020   8.959  21.457  0.00  0.00    +0.000 OA
ATOM     13  C   UNL     1       2.102   9.048  18.444  0.00  0.00    +0.000 C 
ATOM     14  C   UNL     1       2.279   7.875  17.469  0.00  0.00    +0.000 C 
BRANCH   7  19
ATOM     15  C   UNL     1       6.402   6.251  16.937  0.00  0.00    +0.000 A 
ATOM     16  C   UNL     1       6.348   4.915  16.553  0.00  0.00    +0.000 A 
ATOM     17  C   UNL     1       5.168   4.192  16.703  0.00  0.00    +0.000 A 
ATOM     18  C   UNL     1       4.038   4.807  17.244  0.00  0.00    +0.000 A 
ATOM     19  C   UNL     1       4.056   6.151  17.632  0.00  0.00    +0.000 A 
ATOM     20  C   UNL     1       5.260   6.850  17.470  0.00  0.00    +0.000 A 
BRANCH  15  22
ATOM     21  C   UNL     1       7.859   8.009  17.575  0.00  0.00    +0.000 C 
ATOM     22  O   UNL     1       7.606   6.877  16.748  0.00  0.00    +0.000 OA
ENDBRANCH  15  22
ENDBRANCH   7  19
ENDBRANCH   1  11
BRANCH   5  23
ATOM     23  N   UNL     1      -1.007  13.957  19.919  0.00  0.00    +0.000 N 
ATOM     24  C   UNL     1      -0.120  14.932  19.500  0.00  0.00    +0.000 C 
ATOM     25  O   UNL     1       0.744  14.776  18.655  0.00  0.00    +0.000 OA
ATOM     26  H   UNL     1      -1.619  14.207  20.685  0.00  0.00    +0.000 HD
BRANCH  24  27
ATOM     27  C   UNL     1      -0.252  16.259  20.207  0.00  0.00    +0.000 C 
ATOM     28  C   UNL     1       0.368  16.470  21.385  0.00  0.00    +0.000 C 
ATOM     29  C   UNL     1       1.345  15.515  22.041  0.00  0.00    +0.000 C 
ATOM     30  O   UNL     1       0.283  17.638  22.107  0.00  0.00    +0.000 OA
ATOM     31  C   UNL     1      -0.882  18.449  22.033  0.00  0.00    +0.000 C 
ATOM     32  C   UNL     1      -1.665  18.532  20.731  0.00  0.00    +0.000 C 
ATOM     33  S   UNL     1      -1.164  17.473  19.376  0.00  0.00    +0.000 S 
ENDBRANCH  24  27
ENDBRANCH   5  23
TORSDOF 5
ENDMDL
