MODEL 1
REMARK VINA RESULT:      -8.7      0.000      0.000
REMARK  Name = 
REMARK  5 active torsions:
REMARK  status: ('A' for Active; 'I' for Inactive)
REMARK    1  A    between atoms: C_2  and  O_3
REMARK    2  A    between atoms: C_2  and  C_13
REMARK    3  A    between atoms: O_3  and  C_4
REMARK    4  A    between atoms: C_18  and  S_19
REMARK    5  A    between atoms: S_19  and  N_22
REMARK                            x       y       z     vdW  Elec       q    Type
REMARK                         _______ _______ _______ _____ _____    ______ ____
ROOT
ATOM      1  C   UNL     1       2.230   7.214  19.181  0.00  0.00    +0.000 A 
ATOM      2  C   UNL     1       1.463   6.956  20.324  0.00  0.00    +0.000 A 
ATOM      3  C   UNL     1       1.520   5.715  20.963  0.00  0.00    +0.000 A 
ATOM      4  C   UNL     1       2.347   4.693  20.477  0.00  0.00    +0.000 A 
ATOM      5 BR   UNL     1       2.315   3.068  21.452  0.00  0.00    +0.000 Br
ATOM      6  C   UNL     1       3.128   4.942  19.332  0.00  0.00    +0.000 A 
ATOM      7  C   UNL     1       3.065   6.194  18.688  0.00  0.00    +0.000 A 
ENDROOT
BRANCH   6   8
ATOM      8  S   UNL     1       4.149   3.679  18.604  0.00  0.00    +0.000 S 
ATOM      9  O   UNL     1       4.908   3.055  19.666  0.00  0.00    +0.000 OA
ATOM     10  O   UNL     1       3.307   2.886  17.738  0.00  0.00    +0.000 OA
BRANCH   8  11
ATOM     11  N   UNL     1       5.183   4.536  17.586  0.00  0.00    +0.000 NA
ATOM     12  C   UNL     1       5.045   4.419  16.123  0.00  0.00    +0.000 C 
ATOM     13  C   UNL     1       6.330   3.977  15.423  0.00  0.00    +0.000 C 
ATOM     14  O   UNL     1       7.511   4.620  15.899  0.00  0.00    +0.000 OA
ATOM     15  C   UNL     1       7.677   4.568  17.315  0.00  0.00    +0.000 C 
ATOM     16  C   UNL     1       6.464   5.058  18.105  0.00  0.00    +0.000 C 
ENDBRANCH   8  11
ENDBRANCH   6   8
BRANCH   1  18
ATOM     17  O   UNL     1       2.470   8.750  17.377  0.00  0.00    +0.000 OA
ATOM     18  C   UNL     1       2.122   8.563  18.547  0.00  0.00    +0.000 C 
BRANCH  18  19
ATOM     19  O   UNL     1       1.587   9.509  19.402  0.00  0.00    +0.000 OA
BRANCH  19  20
ATOM     20  C   UNL     1       0.313  10.037  19.086  0.00  0.00    +0.000 A 
ATOM     21  C   UNL     1      -0.297  11.003  19.913  0.00  0.00    +0.000 A 
ATOM     22  C   UNL     1      -1.533  11.553  19.564  0.00  0.00    +0.000 A 
ATOM     23  C   UNL     1      -2.115  11.135  18.386  0.00  0.00    +0.000 A 
ATOM     24  C   UNL     1      -1.503  10.215  17.564  0.00  0.00    +0.000 A 
ATOM     25  C   UNL     1      -0.281   9.649  17.878  0.00  0.00    +0.000 A 
ATOM     26  O   UNL     1      -2.242   9.962  16.447  0.00  0.00    +0.000 OA
ATOM     27  C   UNL     1      -3.414  10.768  16.700  0.00  0.00    +0.000 C 
ATOM     28  O   UNL     1      -3.311  11.561  17.900  0.00  0.00    +0.000 OA
ENDBRANCH  19  20
ENDBRANCH  18  19
ENDBRANCH   1  18
TORSDOF 5
ENDMDL
MODEL 2
REMARK VINA RESULT:      -8.6      0.722      1.466
REMARK  Name = 
REMARK  5 active torsions:
REMARK  status: ('A' for Active; 'I' for Inactive)
REMARK    1  A    between atoms: C_2  and  O_3
REMARK    2  A    between atoms: C_2  and  C_13
REMARK    3  A    between atoms: O_3  and  C_4
REMARK    4  A    between atoms: C_18  and  S_19
REMARK    5  A    between atoms: S_19  and  N_22
REMARK                            x       y       z     vdW  Elec       q    Type
REMARK                         _______ _______ _______ _____ _____    ______ ____
ROOT
ATOM      1  C   UNL     1       2.248   7.227  19.151  0.00  0.00    +0.000 A 
ATOM      2  C   UNL     1       1.470   6.977  20.289  0.00  0.00    +0.000 A 
ATOM      3  C   UNL     1       1.520   5.739  20.935  0.00  0.00    +0.000 A 
ATOM      4  C   UNL     1       2.350   4.713  20.463  0.00  0.00    +0.000 A 
ATOM      5 BR   UNL     1       2.307   3.095  21.447  0.00  0.00    +0.000 Br
ATOM      6  C   UNL     1       3.141   4.955  19.324  0.00  0.00    +0.000 A 
ATOM      7  C   UNL     1       3.086   6.203  18.671  0.00  0.00    +0.000 A 
ENDROOT
BRANCH   6   8
ATOM      8  S   UNL     1       4.167   3.685  18.613  0.00  0.00    +0.000 S 
ATOM      9  O   UNL     1       4.947   3.096  19.679  0.00  0.00    +0.000 OA
ATOM     10  O   UNL     1       3.323   2.863  17.777  0.00  0.00    +0.000 OA
BRANCH   8  11
ATOM     11  N   UNL     1       5.178   4.529  17.561  0.00  0.00    +0.000 NA
ATOM     12  C   UNL     1       5.025   4.373  16.103  0.00  0.00    +0.000 C 
ATOM     13  C   UNL     1       6.307   3.930  15.399  0.00  0.00    +0.000 C 
ATOM     14  O   UNL     1       7.485   4.600  15.845  0.00  0.00    +0.000 OA
ATOM     15  C   UNL     1       7.668   4.586  17.260  0.00  0.00    +0.000 C 
ATOM     16  C   UNL     1       6.459   5.080  18.051  0.00  0.00    +0.000 C 
ENDBRANCH   8  11
ENDBRANCH   6   8
BRANCH   1  18
ATOM     17  O   UNL     1       2.443   8.737  17.320  0.00  0.00    +0.000 OA
ATOM     18  C   UNL     1       2.147   8.572  18.507  0.00  0.00    +0.000 C 
BRANCH  18  19
ATOM     19  O   UNL     1       1.682   9.541  19.376  0.00  0.00    +0.000 OA
BRANCH  19  20
ATOM     20  C   UNL     1       0.413  10.108  19.112  0.00  0.00    +0.000 A 
ATOM     21  C   UNL     1      -0.308   9.764  17.949  0.00  0.00    +0.000 A 
ATOM     22  C   UNL     1      -1.581  10.293  17.724  0.00  0.00    +0.000 A 
ATOM     23  C   UNL     1      -2.105  11.138  18.679  0.00  0.00    +0.000 A 
ATOM     24  C   UNL     1      -1.413  11.449  19.829  0.00  0.00    +0.000 A 
ATOM     25  C   UNL     1      -0.151  10.944  20.083  0.00  0.00    +0.000 A 
ATOM     26  O   UNL     1      -2.124  12.282  20.640  0.00  0.00    +0.000 OA
ATOM     27  C   UNL     1      -3.302  12.515  19.835  0.00  0.00    +0.000 C 
ATOM     28  O   UNL     1      -3.322  11.743  18.617  0.00  0.00    +0.000 OA
ENDBRANCH  19  20
ENDBRANCH  18  19
ENDBRANCH   1  18
TORSDOF 5
ENDMDL
MODEL 3
REMARK VINA RESULT:      -8.1      2.600      3.683
REMARK  Name = 
REMARK  5 active torsions:
REMARK  status: ('A' for Active; 'I' for Inactive)
REMARK    1  A    between atoms: C_2  and  O_3
REMARK    2  A    between atoms: C_2  and  C_13
REMARK    3  A    between atoms: O_3  and  C_4
REMARK    4  A    between atoms: C_18  and  S_19
REMARK    5  A    between atoms: S_19  and  N_22
REMARK                            x       y       z     vdW  Elec       q    Type
REMARK                         _______ _______ _______ _____ _____    ______ ____
ROOT
ATOM      1  C   UNL     1       1.387   8.860  19.249  0.00  0.00    +0.000 A 
ATOM      2  C   UNL     1       1.939   9.358  18.062  0.00  0.00    +0.000 A 
ATOM      3  C   UNL     1       2.918   8.642  17.369  0.00  0.00    +0.000 A 
ATOM      4  C   UNL     1       3.375   7.404  17.843  0.00  0.00    +0.000 A 
ATOM      5 BR   UNL     1       4.703   6.555  16.793  0.00  0.00    +0.000 Br
ATOM      6  C   UNL     1       2.823   6.891  19.032  0.00  0.00    +0.000 A 
ATOM      7  C   UNL     1       1.838   7.618  19.731  0.00  0.00    +0.000 A 
ENDROOT
BRANCH   6   8
ATOM      8  S   UNL     1       3.397   5.364  19.745  0.00  0.00    +0.000 S 
ATOM      9  O   UNL     1       4.841   5.419  19.811  0.00  0.00    +0.000 OA
ATOM     10  O   UNL     1       2.615   5.119  20.935  0.00  0.00    +0.000 OA
BRANCH   8  11
ATOM     11  N   UNL     1       2.918   4.195  18.629  0.00  0.00    +0.000 NA
ATOM     12  C   UNL     1       1.486   3.925  18.409  0.00  0.00    +0.000 C 
ATOM     13  C   UNL     1       1.102   2.461  18.617  0.00  0.00    +0.000 C 
ATOM     14  O   UNL     1       2.018   1.526  18.049  0.00  0.00    +0.000 OA
ATOM     15  C   UNL     1       3.379   1.738  18.422  0.00  0.00    +0.000 C 
ATOM     16  C   UNL     1       3.877   3.162  18.185  0.00  0.00    +0.000 C 
ENDBRANCH   8  11
ENDBRANCH   6   8
BRANCH   1  18
ATOM     17  O   UNL     1      -0.111   9.340  21.037  0.00  0.00    +0.000 OA
ATOM     18  C   UNL     1       0.344   9.678  19.941  0.00  0.00    +0.000 C 
BRANCH  18  19
ATOM     19  O   UNL     1      -0.001  10.810  19.227  0.00  0.00    +0.000 OA
BRANCH  19  20
ATOM     20  C   UNL     1      -1.293  10.860  18.652  0.00  0.00    +0.000 A 
ATOM     21  C   UNL     1      -1.641  10.017  17.576  0.00  0.00    +0.000 A 
ATOM     22  C   UNL     1      -2.935  10.041  17.050  0.00  0.00    +0.000 A 
ATOM     23  C   UNL     1      -3.851  10.893  17.630  0.00  0.00    +0.000 A 
ATOM     24  C   UNL     1      -3.518  11.692  18.702  0.00  0.00    +0.000 A 
ATOM     25  C   UNL     1      -2.247  11.695  19.247  0.00  0.00    +0.000 A 
ATOM     26  O   UNL     1      -4.576  12.437  19.127  0.00  0.00    +0.000 OA
ATOM     27  C   UNL     1      -5.583  12.070  18.157  0.00  0.00    +0.000 C 
ATOM     28  O   UNL     1      -5.145  11.045  17.242  0.00  0.00    +0.000 OA
ENDBRANCH  19  20
ENDBRANCH  18  19
ENDBRANCH   1  18
TORSDOF 5
ENDMDL
MODEL 4
REMARK VINA RESULT:      -8.1      0.797      1.248
REMARK  Name = 
REMARK  5 active torsions:
REMARK  status: ('A' for Active; 'I' for Inactive)
REMARK    1  A    between atoms: C_2  and  O_3
REMARK    2  A    between atoms: C_2  and  C_13
REMARK    3  A    between atoms: O_3  and  C_4
REMARK    4  A    between atoms: C_18  and  S_19
REMARK    5  A    between atoms: S_19  and  N_22
REMARK                            x       y       z     vdW  Elec       q    Type
REMARK                         _______ _______ _______ _____ _____    ______ ____
ROOT
ATOM      1  C   UNL     1       2.187   7.203  18.990  0.00  0.00    +0.000 A 
ATOM      2  C   UNL     1       1.734   7.007  20.301  0.00  0.00    +0.000 A 
ATOM      3  C   UNL     1       1.804   5.748  20.905  0.00  0.00    +0.000 A 
ATOM      4  C   UNL     1       2.329   4.647  20.214  0.00  0.00    +0.000 A 
ATOM      5 BR   UNL     1       2.357   3.009  21.167  0.00  0.00    +0.000 Br
ATOM      6  C   UNL     1       2.793   4.833  18.897  0.00  0.00    +0.000 A 
ATOM      7  C   UNL     1       2.717   6.103  18.290  0.00  0.00    +0.000 A 
ENDROOT
BRANCH   6   8
ATOM      8  S   UNL     1       3.405   3.476  17.923  0.00  0.00    +0.000 S 
ATOM      9  O   UNL     1       3.671   2.370  18.817  0.00  0.00    +0.000 OA
ATOM     10  O   UNL     1       2.515   3.314  16.796  0.00  0.00    +0.000 OA
BRANCH   8  11
ATOM     11  N   UNL     1       4.853   4.060  17.287  0.00  0.00    +0.000 NA
ATOM     12  C   UNL     1       5.892   4.597  18.184  0.00  0.00    +0.000 C 
ATOM     13  C   UNL     1       6.315   6.025  17.841  0.00  0.00    +0.000 C 
ATOM     14  O   UNL     1       6.493   6.268  16.448  0.00  0.00    +0.000 OA
ATOM     15  C   UNL     1       5.388   5.872  15.636  0.00  0.00    +0.000 C 
ATOM     16  C   UNL     1       4.935   4.430  15.858  0.00  0.00    +0.000 C 
ENDBRANCH   8  11
ENDBRANCH   6   8
BRANCH   1  18
ATOM     17  O   UNL     1       2.423   8.799  17.239  0.00  0.00    +0.000 OA
ATOM     18  C   UNL     1       2.083   8.574  18.404  0.00  0.00    +0.000 C 
BRANCH  18  19
ATOM     19  O   UNL     1       1.562   9.492  19.296  0.00  0.00    +0.000 OA
BRANCH  19  20
ATOM     20  C   UNL     1       0.288  10.037  19.012  0.00  0.00    +0.000 A 
ATOM     21  C   UNL     1      -0.289  11.011  19.854  0.00  0.00    +0.000 A 
ATOM     22  C   UNL     1      -1.526  11.577  19.535  0.00  0.00    +0.000 A 
ATOM     23  C   UNL     1      -2.141  11.168  18.371  0.00  0.00    +0.000 A 
ATOM     24  C   UNL     1      -1.561  10.241  17.534  0.00  0.00    +0.000 A 
ATOM     25  C   UNL     1      -0.339   9.659  17.818  0.00  0.00    +0.000 A 
ATOM     26  O   UNL     1      -2.330   9.999  16.434  0.00  0.00    +0.000 OA
ATOM     27  C   UNL     1      -3.485  10.821  16.717  0.00  0.00    +0.000 C 
ATOM     28  O   UNL     1      -3.343  11.611  17.915  0.00  0.00    +0.000 OA
ENDBRANCH  19  20
ENDBRANCH  18  19
ENDBRANCH   1  18
TORSDOF 5
ENDMDL
MODEL 5
REMARK VINA RESULT:      -8.0      1.731      2.315
REMARK  Name = 
REMARK  5 active torsions:
REMARK  status: ('A' for Active; 'I' for Inactive)
REMARK    1  A    between atoms: C_2  and  O_3
REMARK    2  A    between atoms: C_2  and  C_13
REMARK    3  A    between atoms: O_3  and  C_4
REMARK    4  A    between atoms: C_18  and  S_19
REMARK    5  A    between atoms: S_19  and  N_22
REMARK                            x       y       z     vdW  Elec       q    Type
REMARK                         _______ _______ _______ _____ _____    ______ ____
ROOT
ATOM      1  C   UNL     1       2.154   7.181  19.368  0.00  0.00    +0.000 A 
ATOM      2  C   UNL     1       1.405   6.689  20.445  0.00  0.00    +0.000 A 
ATOM      3  C   UNL     1       1.616   5.398  20.937  0.00  0.00    +0.000 A 
ATOM      4  C   UNL     1       2.582   4.559  20.366  0.00  0.00    +0.000 A 
ATOM      5 BR   UNL     1       2.749   2.840  21.144  0.00  0.00    +0.000 Br
ATOM      6  C   UNL     1       3.345   5.044  19.286  0.00  0.00    +0.000 A 
ATOM      7  C   UNL     1       3.128   6.345  18.790  0.00  0.00    +0.000 A 
ENDROOT
BRANCH   6   8
ATOM      8  S   UNL     1       4.541   4.021  18.454  0.00  0.00    +0.000 S 
ATOM      9  O   UNL     1       5.567   3.669  19.410  0.00  0.00    +0.000 OA
ATOM     10  O   UNL     1       3.814   2.995  17.743  0.00  0.00    +0.000 OA
BRANCH   8  11
ATOM     11  N   UNL     1       5.182   5.036  17.270  0.00  0.00    +0.000 NA
ATOM     12  C   UNL     1       5.294   4.569  15.877  0.00  0.00    +0.000 C 
ATOM     13  C   UNL     1       6.713   4.658  15.316  0.00  0.00    +0.000 C 
ATOM     14  O   UNL     1       7.398   5.867  15.637  0.00  0.00    +0.000 OA
ATOM     15  C   UNL     1       7.395   6.192  17.026  0.00  0.00    +0.000 C 
ATOM     16  C   UNL     1       6.007   6.198  17.663  0.00  0.00    +0.000 C 
ENDBRANCH   8  11
ENDBRANCH   6   8
BRANCH   1  18
ATOM     17  O   UNL     1       2.357   8.990  17.834  0.00  0.00    +0.000 OA
ATOM     18  C   UNL     1       1.878   8.570  18.891  0.00  0.00    +0.000 C 
BRANCH  18  19
ATOM     19  O   UNL     1       1.042   9.266  19.743  0.00  0.00    +0.000 OA
BRANCH  19  20
ATOM     20  C   UNL     1       0.638  10.565  19.354  0.00  0.00    +0.000 A 
ATOM     21  C   UNL     1      -0.579  10.771  18.671  0.00  0.00    +0.000 A 
ATOM     22  C   UNL     1      -0.991  12.064  18.336  0.00  0.00    +0.000 A 
ATOM     23  C   UNL     1      -0.182  13.115  18.713  0.00  0.00    +0.000 A 
ATOM     24  C   UNL     1       0.989  12.914  19.408  0.00  0.00    +0.000 A 
ATOM     25  C   UNL     1       1.428  11.649  19.755  0.00  0.00    +0.000 A 
ATOM     26  O   UNL     1       1.618  14.089  19.694  0.00  0.00    +0.000 OA
ATOM     27  C   UNL     1       0.748  15.037  19.036  0.00  0.00    +0.000 C 
ATOM     28  O   UNL     1      -0.428  14.429  18.465  0.00  0.00    +0.000 OA
ENDBRANCH  19  20
ENDBRANCH  18  19
ENDBRANCH   1  18
TORSDOF 5
ENDMDL
MODEL 6
REMARK VINA RESULT:      -8.0      3.880      8.705
REMARK  Name = 
REMARK  5 active torsions:
REMARK  status: ('A' for Active; 'I' for Inactive)
REMARK    1  A    between atoms: C_2  and  O_3
REMARK    2  A    between atoms: C_2  and  C_13
REMARK    3  A    between atoms: O_3  and  C_4
REMARK    4  A    between atoms: C_18  and  S_19
REMARK    5  A    between atoms: S_19  and  N_22
REMARK                            x       y       z     vdW  Elec       q    Type
REMARK                         _______ _______ _______ _____ _____    ______ ____
ROOT
ATOM      1  C   UNL     1       1.070   9.021  19.878  0.00  0.00    +0.000 A 
ATOM      2  C   UNL     1       1.069   8.953  21.278  0.00  0.00    +0.000 A 
ATOM      3  C   UNL     1       0.269   9.810  22.038  0.00  0.00    +0.000 A 
ATOM      4  C   UNL     1      -0.556  10.760  21.421  0.00  0.00    +0.000 A 
ATOM      5 BR   UNL     1      -1.582  11.847  22.586  0.00  0.00    +0.000 Br
ATOM      6  C   UNL     1      -0.569  10.834  20.015  0.00  0.00    +0.000 A 
ATOM      7  C   UNL     1       0.243   9.971  19.251  0.00  0.00    +0.000 A 
ENDROOT
BRANCH   6   8
ATOM      8  S   UNL     1      -1.529  12.059  19.152  0.00  0.00    +0.000 S 
ATOM      9  O   UNL     1      -2.274  12.813  20.136  0.00  0.00    +0.000 OA
ATOM     10  O   UNL     1      -0.646  12.729  18.225  0.00  0.00    +0.000 OA
BRANCH   8  11
ATOM     11  N   UNL     1      -2.586  11.148  18.206  0.00  0.00    +0.000 NA
ATOM     12  C   UNL     1      -2.094  10.466  16.996  0.00  0.00    +0.000 C 
ATOM     13  C   UNL     1      -2.861  10.845  15.729  0.00  0.00    +0.000 C 
ATOM     14  O   UNL     1      -4.277  10.903  15.893  0.00  0.00    +0.000 OA
ATOM     15  C   UNL     1      -4.707  11.708  16.991  0.00  0.00    +0.000 C 
ATOM     16  C   UNL     1      -4.044  11.356  18.321  0.00  0.00    +0.000 C 
ENDBRANCH   8  11
ENDBRANCH   6   8
BRANCH   1  18
ATOM     17  O   UNL     1       1.998   8.091  17.892  0.00  0.00    +0.000 OA
ATOM     18  C   UNL     1       1.950   8.076  19.126  0.00  0.00    +0.000 C 
BRANCH  18  19
ATOM     19  O   UNL     1       2.676   7.249  19.962  0.00  0.00    +0.000 OA
BRANCH  19  20
ATOM     20  C   UNL     1       2.503   5.852  19.819  0.00  0.00    +0.000 A 
ATOM     21  C   UNL     1       1.430   5.186  20.448  0.00  0.00    +0.000 A 
ATOM     22  C   UNL     1       1.241   3.815  20.259  0.00  0.00    +0.000 A 
ATOM     23  C   UNL     1       2.120   3.152  19.430  0.00  0.00    +0.000 A 
ATOM     24  C   UNL     1       3.149   3.810  18.791  0.00  0.00    +0.000 A 
ATOM     25  C   UNL     1       3.365   5.165  18.957  0.00  0.00    +0.000 A 
ATOM     26  O   UNL     1       3.881   2.968  18.008  0.00  0.00    +0.000 OA
ATOM     27  C   UNL     1       3.241   1.702  18.287  0.00  0.00    +0.000 C 
ATOM     28  O   UNL     1       2.085   1.823  19.141  0.00  0.00    +0.000 OA
ENDBRANCH  19  20
ENDBRANCH  18  19
ENDBRANCH   1  18
TORSDOF 5
ENDMDL
MODEL 7
REMARK VINA RESULT:      -8.0      1.055      1.902
REMARK  Name = 
REMARK  5 active torsions:
REMARK  status: ('A' for Active; 'I' for Inactive)
REMARK    1  A    between atoms: C_2  and  O_3
REMARK    2  A    between atoms: C_2  and  C_13
REMARK    3  A    between atoms: O_3  and  C_4
REMARK    4  A    between atoms: C_18  and  S_19
REMARK    5  A    between atoms: S_19  and  N_22
REMARK                            x       y       z     vdW  Elec       q    Type
REMARK                         _______ _______ _______ _____ _____    ______ ____
ROOT
ATOM      1  C   UNL     1       2.232   7.168  18.953  0.00  0.00    +0.000 A 
ATOM      2  C   UNL     1       1.758   6.979  20.257  0.00  0.00    +0.000 A 
ATOM      3  C   UNL     1       1.807   5.722  20.865  0.00  0.00    +0.000 A 
ATOM      4  C   UNL     1       2.333   4.614  20.185  0.00  0.00    +0.000 A 
ATOM      5 BR   UNL     1       2.331   2.979  21.142  0.00  0.00    +0.000 Br
ATOM      6  C   UNL     1       2.818   4.793  18.875  0.00  0.00    +0.000 A 
ATOM      7  C   UNL     1       2.763   6.062  18.264  0.00  0.00    +0.000 A 
ENDROOT
BRANCH   6   8
ATOM      8  S   UNL     1       3.433   3.428  17.913  0.00  0.00    +0.000 S 
ATOM      9  O   UNL     1       3.705   2.333  18.818  0.00  0.00    +0.000 OA
ATOM     10  O   UNL     1       2.541   3.251  16.790  0.00  0.00    +0.000 OA
BRANCH   8  11
ATOM     11  N   UNL     1       4.878   4.010  17.267  0.00  0.00    +0.000 NA
ATOM     12  C   UNL     1       5.920   4.551  18.157  0.00  0.00    +0.000 C 
ATOM     13  C   UNL     1       6.340   5.979  17.807  0.00  0.00    +0.000 C 
ATOM     14  O   UNL     1       6.512   6.216  16.411  0.00  0.00    +0.000 OA
ATOM     15  C   UNL     1       5.403   5.816  15.607  0.00  0.00    +0.000 C 
ATOM     16  C   UNL     1       4.953   4.375  15.837  0.00  0.00    +0.000 C 
ENDBRANCH   8  11
ENDBRANCH   6   8
BRANCH   1  18
ATOM     17  O   UNL     1       2.467   8.750  17.188  0.00  0.00    +0.000 OA
ATOM     18  C   UNL     1       2.150   8.539  18.362  0.00  0.00    +0.000 C 
BRANCH  18  19
ATOM     19  O   UNL     1       1.675   9.474  19.262  0.00  0.00    +0.000 OA
BRANCH  19  20
ATOM     20  C   UNL     1       0.405  10.045  19.009  0.00  0.00    +0.000 A 
ATOM     21  C   UNL     1      -0.331   9.697  17.858  0.00  0.00    +0.000 A 
ATOM     22  C   UNL     1      -1.605  10.230  17.645  0.00  0.00    +0.000 A 
ATOM     23  C   UNL     1      -2.115  11.081  18.602  0.00  0.00    +0.000 A 
ATOM     24  C   UNL     1      -1.408  11.395  19.742  0.00  0.00    +0.000 A 
ATOM     25  C   UNL     1      -0.145  10.887  19.984  0.00  0.00    +0.000 A 
ATOM     26  O   UNL     1      -2.107  12.235  20.557  0.00  0.00    +0.000 OA
ATOM     27  C   UNL     1      -3.293  12.468  19.766  0.00  0.00    +0.000 C 
ATOM     28  O   UNL     1      -3.330  11.690  18.552  0.00  0.00    +0.000 OA
ENDBRANCH  19  20
ENDBRANCH  18  19
ENDBRANCH   1  18
TORSDOF 5
ENDMDL
MODEL 8
REMARK VINA RESULT:      -8.0      2.227      3.196
REMARK  Name = 
REMARK  5 active torsions:
REMARK  status: ('A' for Active; 'I' for Inactive)
REMARK    1  A    between atoms: C_2  and  O_3
REMARK    2  A    between atoms: C_2  and  C_13
REMARK    3  A    between atoms: O_3  and  C_4
REMARK    4  A    between atoms: C_18  and  S_19
REMARK    5  A    between atoms: S_19  and  N_22
REMARK                            x       y       z     vdW  Elec       q    Type
REMARK                         _______ _______ _______ _____ _____    ______ ____
ROOT
ATOM      1  C   UNL     1       2.668   7.900  18.099  0.00  0.00    +0.000 A 
ATOM      2  C   UNL     1       2.330   7.173  19.248  0.00  0.00    +0.000 A 
ATOM      3  C   UNL     1       2.918   5.934  19.512  0.00  0.00    +0.000 A 
ATOM      4  C   UNL     1       3.863   5.383  18.635  0.00  0.00    +0.000 A 
ATOM      5 BR   UNL     1       4.570   3.697  19.132  0.00  0.00    +0.000 Br
ATOM      6  C   UNL     1       4.215   6.108  17.480  0.00  0.00    +0.000 A 
ATOM      7  C   UNL     1       3.617   7.356  17.213  0.00  0.00    +0.000 A 
ENDROOT
BRANCH   6   8
ATOM      8  S   UNL     1       5.349   5.450  16.275  0.00  0.00    +0.000 S 
ATOM      9  O   UNL     1       5.173   4.015  16.236  0.00  0.00    +0.000 OA
ATOM     10  O   UNL     1       5.213   6.242  15.074  0.00  0.00    +0.000 OA
BRANCH   8  11
ATOM     11  N   UNL     1       6.866   5.825  16.906  0.00  0.00    +0.000 NA
ATOM     12  C   UNL     1       7.451   4.991  17.971  0.00  0.00    +0.000 C 
ATOM     13  C   UNL     1       7.832   5.780  19.224  0.00  0.00    +0.000 C 
ATOM     14  O   UNL     1       8.482   7.022  18.962  0.00  0.00    +0.000 OA
ATOM     15  C   UNL     1       7.791   7.863  18.040  0.00  0.00    +0.000 C 
ATOM     16  C   UNL     1       7.427   7.180  16.723  0.00  0.00    +0.000 C 
ENDBRANCH   8  11
ENDBRANCH   6   8
BRANCH   1  18
ATOM     17  O   UNL     1       2.656  10.228  17.596  0.00  0.00    +0.000 OA
ATOM     18  C   UNL     1       2.001   9.219  17.875  0.00  0.00    +0.000 C 
BRANCH  18  19
ATOM     19  O   UNL     1       0.626   9.145  17.998  0.00  0.00    +0.000 OA
BRANCH  19  20
ATOM     20  C   UNL     1      -0.009  10.070  18.858  0.00  0.00    +0.000 A 
ATOM     21  C   UNL     1      -1.083  10.864  18.404  0.00  0.00    +0.000 A 
ATOM     22  C   UNL     1      -1.735  11.739  19.277  0.00  0.00    +0.000 A 
ATOM     23  C   UNL     1      -1.306  11.779  20.587  0.00  0.00    +0.000 A 
ATOM     24  C   UNL     1      -0.279  10.980  21.036  0.00  0.00    +0.000 A 
ATOM     25  C   UNL     1       0.389  10.105  20.200  0.00  0.00    +0.000 A 
ATOM     26  O   UNL     1      -0.034  11.168  22.364  0.00  0.00    +0.000 OA
ATOM     27  C   UNL     1      -0.971  12.224  22.673  0.00  0.00    +0.000 C 
ATOM     28  O   UNL     1      -1.823  12.572  21.563  0.00  0.00    +0.000 OA
ENDBRANCH  19  20
ENDBRANCH  18  19
ENDBRANCH   1  18
TORSDOF 5
ENDMDL
MODEL 9
REMARK VINA RESULT:      -7.9      2.170      3.620
REMARK  Name = 
REMARK  5 active torsions:
REMARK  status: ('A' for Active; 'I' for Inactive)
REMARK    1  A    between atoms: C_2  and  O_3
REMARK    2  A    between atoms: C_2  and  C_13
REMARK    3  A    between atoms: O_3  and  C_4
REMARK    4  A    between atoms: C_18  and  S_19
REMARK    5  A    between atoms: S_19  and  N_22
REMARK                            x       y       z     vdW  Elec       q    Type
REMARK                         _______ _______ _______ _____ _____    ______ ____
ROOT
ATOM      1  C   UNL     1       2.657   7.140  19.038  0.00  0.00    +0.000 A 
ATOM      2  C   UNL     1       3.103   7.853  17.917  0.00  0.00    +0.000 A 
ATOM      3  C   UNL     1       3.931   7.251  16.966  0.00  0.00    +0.000 A 
ATOM      4  C   UNL     1       4.338   5.917  17.107  0.00  0.00    +0.000 A 
ATOM      5 BR   UNL     1       5.458   5.244  15.735  0.00  0.00    +0.000 Br
ATOM      6  C   UNL     1       3.891   5.189  18.227  0.00  0.00    +0.000 A 
ATOM      7  C   UNL     1       3.060   5.800  19.187  0.00  0.00    +0.000 A 
ENDROOT
BRANCH   6   8
ATOM      8  S   UNL     1       4.420   3.515  18.523  0.00  0.00    +0.000 S 
ATOM      9  O   UNL     1       4.540   2.853  17.243  0.00  0.00    +0.000 OA
ATOM     10  O   UNL     1       5.542   3.569  19.432  0.00  0.00    +0.000 OA
BRANCH   8  11
ATOM     11  N   UNL     1       3.147   2.842  19.400  0.00  0.00    +0.000 NA
ATOM     12  C   UNL     1       1.794   2.793  18.820  0.00  0.00    +0.000 C 
ATOM     13  C   UNL     1       0.732   3.464  19.692  0.00  0.00    +0.000 C 
ATOM     14  O   UNL     1       0.837   3.165  21.082  0.00  0.00    +0.000 OA
ATOM     15  C   UNL     1       2.136   3.380  21.632  0.00  0.00    +0.000 C 
ATOM     16  C   UNL     1       3.261   2.688  20.866  0.00  0.00    +0.000 C 
ENDBRANCH   8  11
ENDBRANCH   6   8
BRANCH   1  18
ATOM     17  O   UNL     1       1.144   7.219  20.875  0.00  0.00    +0.000 OA
ATOM     18  C   UNL     1       1.774   7.844  20.017  0.00  0.00    +0.000 C 
BRANCH  18  19
ATOM     19  O   UNL     1       1.784   9.216  19.848  0.00  0.00    +0.000 OA
BRANCH  19  20
ATOM     20  C   UNL     1       0.549   9.856  19.591  0.00  0.00    +0.000 A 
ATOM     21  C   UNL     1      -0.062  10.672  20.566  0.00  0.00    +0.000 A 
ATOM     22  C   UNL     1      -1.257  11.338  20.283  0.00  0.00    +0.000 A 
ATOM     23  C   UNL     1      -1.797  11.186  19.023  0.00  0.00    +0.000 A 
ATOM     24  C   UNL     1      -1.182  10.414  18.061  0.00  0.00    +0.000 A 
ATOM     25  C   UNL     1       0.000   9.740  18.308  0.00  0.00    +0.000 A 
ATOM     26  O   UNL     1      -1.875  10.419  16.888  0.00  0.00    +0.000 OA
ATOM     27  C   UNL     1      -3.025  11.217  17.247  0.00  0.00    +0.000 C 
ATOM     28  O   UNL     1      -2.950  11.756  18.583  0.00  0.00    +0.000 OA
ENDBRANCH  19  20
ENDBRANCH  18  19
ENDBRANCH   1  18
TORSDOF 5
ENDMDL
