MODEL 1
REMARK VINA RESULT:      -7.9      0.000      0.000
REMARK  Name = 
REMARK  12 active torsions:
REMARK  status: ('A' for Active; 'I' for Inactive)
REMARK    1  A    between atoms: C_1  and  C_2
REMARK    2  A    between atoms: C_2  and  C_3
REMARK    3  A    between atoms: C_3  and  C_4
REMARK    4  A    between atoms: C_7  and  O_8
REMARK    5  A    between atoms: O_8  and  C_9
REMARK    6  A    between atoms: C_10  and  C_11
REMARK    7  A    between atoms: C_13  and  C_14
REMARK    8  A    between atoms: C_14  and  C_15
REMARK    9  A    between atoms: C_15  and  C_16
REMARK   10  A    between atoms: C_17  and  O_18
REMARK   11  A    between atoms: C_19  and  N_20
REMARK   12  A    between atoms: C_21  and  C_22
REMARK                            x       y       z     vdW  Elec       q    Type
REMARK                         _______ _______ _______ _____ _____    ______ ____
ROOT
ATOM      1  C   UNL     1       4.151   5.727  17.890  0.00  0.00    +0.000 A 
ATOM      2  C   UNL     1       3.473   6.969  17.912  0.00  0.00    +0.000 A 
ATOM      3  C   UNL     1       2.508   7.301  18.892  0.00  0.00    +0.000 A 
ATOM      4  C   UNL     1       2.211   6.335  19.862  0.00  0.00    +0.000 A 
ATOM      5  C   UNL     1       2.919   5.130  19.916  0.00  0.00    +0.000 A 
ATOM      6  C   UNL     1       3.840   4.816  18.920  0.00  0.00    +0.000 A 
ENDROOT
BRANCH   1  11
ATOM      7  C   UNL     1       5.630   4.369  14.630  0.00  0.00    +0.000 A 
ATOM      8  C   UNL     1       6.983   4.668  14.786  0.00  0.00    +0.000 A 
ATOM      9  C   UNL     1       7.432   5.323  15.931  0.00  0.00    +0.000 A 
ATOM     10  C   UNL     1       6.542   5.691  16.949  0.00  0.00    +0.000 A 
ATOM     11  C   UNL     1       5.156   5.392  16.831  0.00  0.00    +0.000 A 
ATOM     12  C   UNL     1       4.735   4.734  15.650  0.00  0.00    +0.000 A 
BRANCH  10  13
ATOM     13  O   UNL     1       6.950   6.328  18.096  0.00  0.00    +0.000 OA
ATOM     14  C   UNL     1       7.794   5.629  19.000  0.00  0.00    +0.000 C 
ENDBRANCH  10  13
BRANCH   7  15
ATOM     15  C   UNL     1       5.163   3.627  13.400  0.00  0.00    +0.000 C 
BRANCH  15  17
ATOM     16  C   UNL     1       6.053   2.158  11.513  0.00  0.00    +0.000 C 
ATOM     17  C   UNL     1       6.232   3.436  12.320  0.00  0.00    +0.000 C 
ENDBRANCH  15  17
ENDBRANCH   7  15
ENDBRANCH   1  11
BRANCH   5  18
ATOM     18  N   UNL     1       2.633   4.244  20.969  0.00  0.00    +0.000 N 
ATOM     19  C   UNL     1       1.685   3.258  21.020  0.00  0.00    +0.000 C 
ATOM     20  C   UNL     1       0.869   2.932  19.794  0.00  0.00    +0.000 C 
ATOM     21  O   UNL     1       1.560   2.591  22.047  0.00  0.00    +0.000 OA
ATOM     22  H   UNL     1       3.389   4.084  21.626  0.00  0.00    +0.000 HD
ENDBRANCH   5  18
BRANCH   4  23
ATOM     23  O   UNL     1       1.275   6.537  20.844  0.00  0.00    +0.000 OA
ATOM     24  H   UNL     1       0.477   6.907  20.437  0.00  0.00    +0.000 HD
ENDBRANCH   4  23
BRANCH   3  25
ATOM     25  C   UNL     1       1.974   8.718  18.964  0.00  0.00    +0.000 C 
BRANCH  25  26
ATOM     26  C   UNL     1       1.179   9.227  17.758  0.00  0.00    +0.000 C 
ATOM     27  C   UNL     1      -0.077   9.993  18.140  0.00  0.00    +0.000 C 
ENDBRANCH  25  26
ENDBRANCH   3  25
TORSDOF 8
ENDMDL
MODEL 2
REMARK VINA RESULT:      -7.2      1.311      3.607
REMARK  Name = 
REMARK  12 active torsions:
REMARK  status: ('A' for Active; 'I' for Inactive)
REMARK    1  A    between atoms: C_1  and  C_2
REMARK    2  A    between atoms: C_2  and  C_3
REMARK    3  A    between atoms: C_3  and  C_4
REMARK    4  A    between atoms: C_7  and  O_8
REMARK    5  A    between atoms: O_8  and  C_9
REMARK    6  A    between atoms: C_10  and  C_11
REMARK    7  A    between atoms: C_13  and  C_14
REMARK    8  A    between atoms: C_14  and  C_15
REMARK    9  A    between atoms: C_15  and  C_16
REMARK   10  A    between atoms: C_17  and  O_18
REMARK   11  A    between atoms: C_19  and  N_20
REMARK   12  A    between atoms: C_21  and  C_22
REMARK                            x       y       z     vdW  Elec       q    Type
REMARK                         _______ _______ _______ _____ _____    ______ ____
ROOT
ATOM      1  C   UNL     1       4.400   5.009  17.879  0.00  0.00    +0.000 A 
ATOM      2  C   UNL     1       4.049   3.842  18.600  0.00  0.00    +0.000 A 
ATOM      3  C   UNL     1       3.205   3.865  19.734  0.00  0.00    +0.000 A 
ATOM      4  C   UNL     1       2.721   5.110  20.159  0.00  0.00    +0.000 A 
ATOM      5  C   UNL     1       2.985   6.271  19.423  0.00  0.00    +0.000 A 
ATOM      6  C   UNL     1       3.846   6.224  18.330  0.00  0.00    +0.000 A 
ENDROOT
BRANCH   1  11
ATOM      7  C   UNL     1       5.649   4.338  14.323  0.00  0.00    +0.000 A 
ATOM      8  C   UNL     1       6.970   4.776  14.398  0.00  0.00    +0.000 A 
ATOM      9  C   UNL     1       7.469   5.306  15.586  0.00  0.00    +0.000 A 
ATOM     10  C   UNL     1       6.662   5.408  16.728  0.00  0.00    +0.000 A 
ATOM     11  C   UNL     1       5.312   4.961  16.692  0.00  0.00    +0.000 A 
ATOM     12  C   UNL     1       4.837   4.436  15.466  0.00  0.00    +0.000 A 
BRANCH  10  13
ATOM     13  O   UNL     1       7.123   5.916  17.918  0.00  0.00    +0.000 OA
ATOM     14  C   UNL     1       7.718   7.206  17.923  0.00  0.00    +0.000 C 
ENDBRANCH  10  13
BRANCH   7  15
ATOM     15  C   UNL     1       5.131   3.733  13.039  0.00  0.00    +0.000 C 
BRANCH  15  17
ATOM     16  C   UNL     1       5.850   1.879  11.440  0.00  0.00    +0.000 C 
ATOM     17  C   UNL     1       6.215   3.202  12.097  0.00  0.00    +0.000 C 
ENDBRANCH  15  17
ENDBRANCH   7  15
ENDBRANCH   1  11
BRANCH   5  18
ATOM     18  N   UNL     1       2.395   7.472  19.854  0.00  0.00    +0.000 N 
ATOM     19  C   UNL     1       1.892   8.494  19.096  0.00  0.00    +0.000 C 
ATOM     20  C   UNL     1       1.816   8.354  17.596  0.00  0.00    +0.000 C 
ATOM     21  O   UNL     1       1.434   9.491  19.652  0.00  0.00    +0.000 OA
ATOM     22  H   UNL     1       2.003   7.458  20.789  0.00  0.00    +0.000 HD
ENDBRANCH   5  18
BRANCH   4  23
ATOM     23  O   UNL     1       1.917   5.255  21.260  0.00  0.00    +0.000 OA
ATOM     24  H   UNL     1       1.514   4.396  21.461  0.00  0.00    +0.000 HD
ENDBRANCH   4  23
BRANCH   3  25
ATOM     25  C   UNL     1       2.718   2.558  20.329  0.00  0.00    +0.000 C 
BRANCH  25  26
ATOM     26  C   UNL     1       1.761   1.717  19.479  0.00  0.00    +0.000 C 
ATOM     27  C   UNL     1       0.685   2.538  18.787  0.00  0.00    +0.000 C 
ENDBRANCH  25  26
ENDBRANCH   3  25
TORSDOF 8
ENDMDL
MODEL 3
REMARK VINA RESULT:      -7.2      1.003      1.022
REMARK  Name = 
REMARK  12 active torsions:
REMARK  status: ('A' for Active; 'I' for Inactive)
REMARK    1  A    between atoms: C_1  and  C_2
REMARK    2  A    between atoms: C_2  and  C_3
REMARK    3  A    between atoms: C_3  and  C_4
REMARK    4  A    between atoms: C_7  and  O_8
REMARK    5  A    between atoms: O_8  and  C_9
REMARK    6  A    between atoms: C_10  and  C_11
REMARK    7  A    between atoms: C_13  and  C_14
REMARK    8  A    between atoms: C_14  and  C_15
REMARK    9  A    between atoms: C_15  and  C_16
REMARK   10  A    between atoms: C_17  and  O_18
REMARK   11  A    between atoms: C_19  and  N_20
REMARK   12  A    between atoms: C_21  and  C_22
REMARK                            x       y       z     vdW  Elec       q    Type
REMARK                         _______ _______ _______ _____ _____    ______ ____
ROOT
ATOM      1  C   UNL     1       4.418   5.574  17.136  0.00  0.00    +0.000 A 
ATOM      2  C   UNL     1       3.846   6.868  17.194  0.00  0.00    +0.000 A 
ATOM      3  C   UNL     1       2.924   7.255  18.193  0.00  0.00    +0.000 A 
ATOM      4  C   UNL     1       2.557   6.295  19.146  0.00  0.00    +0.000 A 
ATOM      5  C   UNL     1       3.163   5.034  19.163  0.00  0.00    +0.000 A 
ATOM      6  C   UNL     1       4.044   4.668  18.148  0.00  0.00    +0.000 A 
ENDROOT
BRANCH   1  11
ATOM      7  C   UNL     1       5.773   4.017  13.911  0.00  0.00    +0.000 A 
ATOM      8  C   UNL     1       7.125   4.345  13.983  0.00  0.00    +0.000 A 
ATOM      9  C   UNL     1       7.614   5.084  15.059  0.00  0.00    +0.000 A 
ATOM     10  C   UNL     1       6.764   5.508  16.090  0.00  0.00    +0.000 A 
ATOM     11  C   UNL     1       5.380   5.182  16.056  0.00  0.00    +0.000 A 
ATOM     12  C   UNL     1       4.918   4.437  14.943  0.00  0.00    +0.000 A 
BRANCH  10  13
ATOM     13  O   UNL     1       7.212   6.229  17.170  0.00  0.00    +0.000 OA
ATOM     14  C   UNL     1       7.705   5.525  18.301  0.00  0.00    +0.000 C 
ENDBRANCH  10  13
BRANCH   7  15
ATOM     15  C   UNL     1       5.263   3.185  12.757  0.00  0.00    +0.000 C 
BRANCH  15  17
ATOM     16  C   UNL     1       3.574   3.110  10.846  0.00  0.00    +0.000 C 
ATOM     17  C   UNL     1       4.510   3.972  11.681  0.00  0.00    +0.000 C 
ENDBRANCH  15  17
ENDBRANCH   7  15
ENDBRANCH   1  11
BRANCH   5  18
ATOM     18  N   UNL     1       2.816   4.150  20.200  0.00  0.00    +0.000 N 
ATOM     19  C   UNL     1       1.842   3.188  20.210  0.00  0.00    +0.000 C 
ATOM     20  C   UNL     1       1.064   2.890  18.953  0.00  0.00    +0.000 C 
ATOM     21  O   UNL     1       1.662   2.520  21.227  0.00  0.00    +0.000 OA
ATOM     22  H   UNL     1       3.543   3.968  20.883  0.00  0.00    +0.000 HD
ENDBRANCH   5  18
BRANCH   4  23
ATOM     23  O   UNL     1       1.653   6.551  20.144  0.00  0.00    +0.000 OA
ATOM     24  H   UNL     1       1.126   5.751  20.294  0.00  0.00    +0.000 HD
ENDBRANCH   4  23
BRANCH   3  25
ATOM     25  C   UNL     1       2.510   8.710  18.304  0.00  0.00    +0.000 C 
BRANCH  25  26
ATOM     26  C   UNL     1       1.146   9.095  17.724  0.00  0.00    +0.000 C 
ATOM     27  C   UNL     1       0.313   9.958  18.657  0.00  0.00    +0.000 C 
ENDBRANCH  25  26
ENDBRANCH   3  25
TORSDOF 8
ENDMDL
MODEL 4
REMARK VINA RESULT:      -7.1      2.459      7.435
REMARK  Name = 
REMARK  12 active torsions:
REMARK  status: ('A' for Active; 'I' for Inactive)
REMARK    1  A    between atoms: C_1  and  C_2
REMARK    2  A    between atoms: C_2  and  C_3
REMARK    3  A    between atoms: C_3  and  C_4
REMARK    4  A    between atoms: C_7  and  O_8
REMARK    5  A    between atoms: O_8  and  C_9
REMARK    6  A    between atoms: C_10  and  C_11
REMARK    7  A    between atoms: C_13  and  C_14
REMARK    8  A    between atoms: C_14  and  C_15
REMARK    9  A    between atoms: C_15  and  C_16
REMARK   10  A    between atoms: C_17  and  O_18
REMARK   11  A    between atoms: C_19  and  N_20
REMARK   12  A    between atoms: C_21  and  C_22
REMARK                            x       y       z     vdW  Elec       q    Type
REMARK                         _______ _______ _______ _____ _____    ______ ____
ROOT
ATOM      1  C   UNL     1       4.213   5.015  17.557  0.00  0.00    +0.000 A 
ATOM      2  C   UNL     1       4.502   4.171  16.458  0.00  0.00    +0.000 A 
ATOM      3  C   UNL     1       5.540   4.439  15.535  0.00  0.00    +0.000 A 
ATOM      4  C   UNL     1       6.290   5.608  15.723  0.00  0.00    +0.000 A 
ATOM      5  C   UNL     1       6.082   6.421  16.843  0.00  0.00    +0.000 A 
ATOM      6  C   UNL     1       5.032   6.151  17.717  0.00  0.00    +0.000 A 
ENDROOT
BRANCH   1  11
ATOM      7  C   UNL     1       1.528   5.543  20.235  0.00  0.00    +0.000 A 
ATOM      8  C   UNL     1       1.017   4.255  20.383  0.00  0.00    +0.000 A 
ATOM      9  C   UNL     1       1.518   3.207  19.613  0.00  0.00    +0.000 A 
ATOM     10  C   UNL     1       2.543   3.419  18.681  0.00  0.00    +0.000 A 
ATOM     11  C   UNL     1       3.097   4.719  18.510  0.00  0.00    +0.000 A 
ATOM     12  C   UNL     1       2.558   5.760  19.304  0.00  0.00    +0.000 A 
BRANCH  10  13
ATOM     13  O   UNL     1       3.067   2.408  17.912  0.00  0.00    +0.000 OA
ATOM     14  C   UNL     1       3.681   1.306  18.564  0.00  0.00    +0.000 C 
ENDBRANCH  10  13
BRANCH   7  15
ATOM     15  C   UNL     1       1.001   6.663  21.101  0.00  0.00    +0.000 C 
BRANCH  15  17
ATOM     16  C   UNL     1       1.314   9.081  21.853  0.00  0.00    +0.000 C 
ATOM     17  C   UNL     1       1.543   8.053  20.755  0.00  0.00    +0.000 C 
ENDBRANCH  15  17
ENDBRANCH   7  15
ENDBRANCH   1  11
BRANCH   5  18
ATOM     18  N   UNL     1       6.929   7.529  17.019  0.00  0.00    +0.000 N 
ATOM     19  C   UNL     1       7.881   7.730  17.981  0.00  0.00    +0.000 C 
ATOM     20  C   UNL     1       8.212   6.628  18.956  0.00  0.00    +0.000 C 
ATOM     21  O   UNL     1       8.514   8.785  17.995  0.00  0.00    +0.000 OA
ATOM     22  H   UNL     1       7.095   8.090  16.190  0.00  0.00    +0.000 HD
ENDBRANCH   5  18
BRANCH   4  23
ATOM     23  O   UNL     1       7.301   5.982  14.877  0.00  0.00    +0.000 OA
ATOM     24  H   UNL     1       6.943   6.602  14.224  0.00  0.00    +0.000 HD
ENDBRANCH   4  23
BRANCH   3  25
ATOM     25  C   UNL     1       5.913   3.391  14.506  0.00  0.00    +0.000 C 
BRANCH  25  26
ATOM     26  C   UNL     1       5.482   3.648  13.058  0.00  0.00    +0.000 C 
ATOM     27  C   UNL     1       6.571   3.351  12.041  0.00  0.00    +0.000 C 
ENDBRANCH  25  26
ENDBRANCH   3  25
TORSDOF 8
ENDMDL
MODEL 5
REMARK VINA RESULT:      -7.1      1.491      3.747
REMARK  Name = 
REMARK  12 active torsions:
REMARK  status: ('A' for Active; 'I' for Inactive)
REMARK    1  A    between atoms: C_1  and  C_2
REMARK    2  A    between atoms: C_2  and  C_3
REMARK    3  A    between atoms: C_3  and  C_4
REMARK    4  A    between atoms: C_7  and  O_8
REMARK    5  A    between atoms: O_8  and  C_9
REMARK    6  A    between atoms: C_10  and  C_11
REMARK    7  A    between atoms: C_13  and  C_14
REMARK    8  A    between atoms: C_14  and  C_15
REMARK    9  A    between atoms: C_15  and  C_16
REMARK   10  A    between atoms: C_17  and  O_18
REMARK   11  A    between atoms: C_19  and  N_20
REMARK   12  A    between atoms: C_21  and  C_22
REMARK                            x       y       z     vdW  Elec       q    Type
REMARK                         _______ _______ _______ _____ _____    ______ ____
ROOT
ATOM      1  C   UNL     1       3.864   5.461  18.515  0.00  0.00    +0.000 A 
ATOM      2  C   UNL     1       3.167   4.484  19.266  0.00  0.00    +0.000 A 
ATOM      3  C   UNL     1       2.145   4.807  20.189  0.00  0.00    +0.000 A 
ATOM      4  C   UNL     1       1.838   6.163  20.368  0.00  0.00    +0.000 A 
ATOM      5  C   UNL     1       2.452   7.147  19.586  0.00  0.00    +0.000 A 
ATOM      6  C   UNL     1       3.478   6.803  18.708  0.00  0.00    +0.000 A 
ENDROOT
BRANCH   1  11
ATOM      7  C   UNL     1       5.612   4.462  15.259  0.00  0.00    +0.000 A 
ATOM      8  C   UNL     1       6.937   4.340  15.673  0.00  0.00    +0.000 A 
ATOM      9  C   UNL     1       7.286   4.593  16.999  0.00  0.00    +0.000 A 
ATOM     10  C   UNL     1       6.319   4.970  17.942  0.00  0.00    +0.000 A 
ATOM     11  C   UNL     1       4.955   5.094  17.558  0.00  0.00    +0.000 A 
ATOM     12  C   UNL     1       4.639   4.837  16.201  0.00  0.00    +0.000 A 
BRANCH  10  13
ATOM     13  O   UNL     1       6.625   5.217  19.258  0.00  0.00    +0.000 OA
ATOM     14  C   UNL     1       7.917   5.717  19.575  0.00  0.00    +0.000 C 
ENDBRANCH  10  13
BRANCH   7  15
ATOM     15  C   UNL     1       5.242   4.150  13.828  0.00  0.00    +0.000 C 
BRANCH  15  17
ATOM     16  C   UNL     1       5.975   2.679  11.876  0.00  0.00    +0.000 C 
ATOM     17  C   UNL     1       6.402   3.662  12.956  0.00  0.00    +0.000 C 
ENDBRANCH  15  17
ENDBRANCH   7  15
ENDBRANCH   1  11
BRANCH   5  18
ATOM     18  N   UNL     1       2.034   8.478  19.753  0.00  0.00    +0.000 N 
ATOM     19  C   UNL     1       1.469   9.317  18.831  0.00  0.00    +0.000 C 
ATOM     20  C   UNL     1       1.109   8.798  17.461  0.00  0.00    +0.000 C 
ATOM     21  O   UNL     1       1.190  10.471  19.154  0.00  0.00    +0.000 OA
ATOM     22  H   UNL     1       1.820   8.755  20.706  0.00  0.00    +0.000 HD
ENDBRANCH   5  18
BRANCH   4  23
ATOM     23  O   UNL     1       0.885   6.594  21.254  0.00  0.00    +0.000 OA
ATOM     24  H   UNL     1       1.210   7.398  21.689  0.00  0.00    +0.000 HD
ENDBRANCH   4  23
BRANCH   3  25
ATOM     25  C   UNL     1       1.315   3.698  20.803  0.00  0.00    +0.000 C 
BRANCH  25  26
ATOM     26  C   UNL     1       1.386   2.320  20.137  0.00  0.00    +0.000 C 
ATOM     27  C   UNL     1       0.672   2.258  18.796  0.00  0.00    +0.000 C 
ENDBRANCH  25  26
ENDBRANCH   3  25
TORSDOF 8
ENDMDL
MODEL 6
REMARK VINA RESULT:      -7.1      2.766      4.292
REMARK  Name = 
REMARK  12 active torsions:
REMARK  status: ('A' for Active; 'I' for Inactive)
REMARK    1  A    between atoms: C_1  and  C_2
REMARK    2  A    between atoms: C_2  and  C_3
REMARK    3  A    between atoms: C_3  and  C_4
REMARK    4  A    between atoms: C_7  and  O_8
REMARK    5  A    between atoms: O_8  and  C_9
REMARK    6  A    between atoms: C_10  and  C_11
REMARK    7  A    between atoms: C_13  and  C_14
REMARK    8  A    between atoms: C_14  and  C_15
REMARK    9  A    between atoms: C_15  and  C_16
REMARK   10  A    between atoms: C_17  and  O_18
REMARK   11  A    between atoms: C_19  and  N_20
REMARK   12  A    between atoms: C_21  and  C_22
REMARK                            x       y       z     vdW  Elec       q    Type
REMARK                         _______ _______ _______ _____ _____    ______ ____
ROOT
ATOM      1  C   UNL     1       6.223   4.667  15.531  0.00  0.00    +0.000 A 
ATOM      2  C   UNL     1       6.927   5.716  16.170  0.00  0.00    +0.000 A 
ATOM      3  C   UNL     1       6.813   5.986  17.554  0.00  0.00    +0.000 A 
ATOM      4  C   UNL     1       5.945   5.180  18.303  0.00  0.00    +0.000 A 
ATOM      5  C   UNL     1       5.296   4.087  17.718  0.00  0.00    +0.000 A 
ATOM      6  C   UNL     1       5.400   3.865  16.347  0.00  0.00    +0.000 A 
ENDROOT
BRANCH   1  11
ATOM      7  C   UNL     1       5.419   3.363  12.022  0.00  0.00    +0.000 A 
ATOM      8  C   UNL     1       6.508   3.833  11.288  0.00  0.00    +0.000 A 
ATOM      9  C   UNL     1       7.502   4.587  11.908  0.00  0.00    +0.000 A 
ATOM     10  C   UNL     1       7.435   4.886  13.276  0.00  0.00    +0.000 A 
ATOM     11  C   UNL     1       6.345   4.414  14.060  0.00  0.00    +0.000 A 
ATOM     12  C   UNL     1       5.350   3.658  13.394  0.00  0.00    +0.000 A 
BRANCH  10  13
ATOM     13  O   UNL     1       8.401   5.618  13.923  0.00  0.00    +0.000 OA
ATOM     14  C   UNL     1       9.445   6.199  13.153  0.00  0.00    +0.000 C 
ENDBRANCH  10  13
BRANCH   7  15
ATOM     15  C   UNL     1       4.368   2.517  11.344  0.00  0.00    +0.000 C 
BRANCH  15  17
ATOM     16  C   UNL     1       3.209   3.986   9.610  0.00  0.00    +0.000 C 
ATOM     17  C   UNL     1       3.095   3.270  10.947  0.00  0.00    +0.000 C 
ENDBRANCH  15  17
ENDBRANCH   7  15
ENDBRANCH   1  11
BRANCH   5  18
ATOM     18  N   UNL     1       4.511   3.267  18.546  0.00  0.00    +0.000 N 
ATOM     19  C   UNL     1       3.160   3.317  18.762  0.00  0.00    +0.000 C 
ATOM     20  C   UNL     1       2.305   4.271  17.966  0.00  0.00    +0.000 C 
ATOM     21  O   UNL     1       2.644   2.527  19.550  0.00  0.00    +0.000 OA
ATOM     22  H   UNL     1       4.900   2.354  18.755  0.00  0.00    +0.000 HD
ENDBRANCH   5  18
BRANCH   4  23
ATOM     23  O   UNL     1       5.738   5.366  19.645  0.00  0.00    +0.000 OA
ATOM     24  H   UNL     1       5.225   4.616  19.984  0.00  0.00    +0.000 HD
ENDBRANCH   4  23
BRANCH   3  25
ATOM     25  C   UNL     1       7.746   6.994  18.197  0.00  0.00    +0.000 C 
BRANCH  25  26
ATOM     26  C   UNL     1       7.785   8.398  17.587  0.00  0.00    +0.000 C 
ATOM     27  C   UNL     1       8.612   9.386  18.394  0.00  0.00    +0.000 C 
ENDBRANCH  25  26
ENDBRANCH   3  25
TORSDOF 8
ENDMDL
MODEL 7
REMARK VINA RESULT:      -7.1      2.388      6.976
REMARK  Name = 
REMARK  12 active torsions:
REMARK  status: ('A' for Active; 'I' for Inactive)
REMARK    1  A    between atoms: C_1  and  C_2
REMARK    2  A    between atoms: C_2  and  C_3
REMARK    3  A    between atoms: C_3  and  C_4
REMARK    4  A    between atoms: C_7  and  O_8
REMARK    5  A    between atoms: O_8  and  C_9
REMARK    6  A    between atoms: C_10  and  C_11
REMARK    7  A    between atoms: C_13  and  C_14
REMARK    8  A    between atoms: C_14  and  C_15
REMARK    9  A    between atoms: C_15  and  C_16
REMARK   10  A    between atoms: C_17  and  O_18
REMARK   11  A    between atoms: C_19  and  N_20
REMARK   12  A    between atoms: C_21  and  C_22
REMARK                            x       y       z     vdW  Elec       q    Type
REMARK                         _______ _______ _______ _____ _____    ______ ____
ROOT
ATOM      1  C   UNL     1       1.654   8.087  19.355  0.00  0.00    +0.000 A 
ATOM      2  C   UNL     1       2.587   7.974  18.296  0.00  0.00    +0.000 A 
ATOM      3  C   UNL     1       3.517   6.914  18.202  0.00  0.00    +0.000 A 
ATOM      4  C   UNL     1       3.513   5.953  19.222  0.00  0.00    +0.000 A 
ATOM      5  C   UNL     1       2.553   5.992  20.239  0.00  0.00    +0.000 A 
ATOM      6  C   UNL     1       1.670   7.066  20.326  0.00  0.00    +0.000 A 
ENDROOT
BRANCH   1  11
ATOM      7  C   UNL     1      -0.972  10.671  18.313  0.00  0.00    +0.000 A 
ATOM      8  C   UNL     1      -1.122  11.412  19.484  0.00  0.00    +0.000 A 
ATOM      9  C   UNL     1      -0.394  11.080  20.626  0.00  0.00    +0.000 A 
ATOM     10  C   UNL     1       0.503  10.003  20.623  0.00  0.00    +0.000 A 
ATOM     11  C   UNL     1       0.691   9.231  19.442  0.00  0.00    +0.000 A 
ATOM     12  C   UNL     1      -0.071   9.593  18.305  0.00  0.00    +0.000 A 
BRANCH  10  13
ATOM     13  O   UNL     1       1.244   9.653  21.725  0.00  0.00    +0.000 OA
ATOM     14  C   UNL     1       0.568   9.417  22.953  0.00  0.00    +0.000 C 
ENDBRANCH  10  13
BRANCH   7  15
ATOM     15  C   UNL     1      -1.740  11.065  17.073  0.00  0.00    +0.000 C 
BRANCH  15  17
ATOM     16  C   UNL     1      -2.954  10.182  15.011  0.00  0.00    +0.000 C 
ATOM     17  C   UNL     1      -2.606   9.953  16.474  0.00  0.00    +0.000 C 
ENDBRANCH  15  17
ENDBRANCH   7  15
ENDBRANCH   1  11
BRANCH   5  18
ATOM     18  N   UNL     1       2.547   4.949  21.181  0.00  0.00    +0.000 N 
ATOM     19  C   UNL     1       1.787   3.810  21.187  0.00  0.00    +0.000 C 
ATOM     20  C   UNL     1       0.892   3.495  20.015  0.00  0.00    +0.000 C 
ATOM     21  O   UNL     1       1.899   3.013  22.117  0.00  0.00    +0.000 OA
ATOM     22  H   UNL     1       3.394   4.848  21.730  0.00  0.00    +0.000 HD
ENDBRANCH   5  18
BRANCH   4  23
ATOM     23  O   UNL     1       4.386   4.897  19.248  0.00  0.00    +0.000 OA
ATOM     24  H   UNL     1       4.522   4.633  20.171  0.00  0.00    +0.000 HD
ENDBRANCH   4  23
BRANCH   3  25
ATOM     25  C   UNL     1       4.345   6.756  16.941  0.00  0.00    +0.000 C 
BRANCH  25  26
ATOM     26  C   UNL     1       5.847   7.035  17.052  0.00  0.00    +0.000 C 
ATOM     27  C   UNL     1       6.714   5.856  16.640  0.00  0.00    +0.000 C 
ENDBRANCH  25  26
ENDBRANCH   3  25
TORSDOF 8
ENDMDL
MODEL 8
REMARK VINA RESULT:      -7.1      1.265      3.714
REMARK  Name = 
REMARK  12 active torsions:
REMARK  status: ('A' for Active; 'I' for Inactive)
REMARK    1  A    between atoms: C_1  and  C_2
REMARK    2  A    between atoms: C_2  and  C_3
REMARK    3  A    between atoms: C_3  and  C_4
REMARK    4  A    between atoms: C_7  and  O_8
REMARK    5  A    between atoms: O_8  and  C_9
REMARK    6  A    between atoms: C_10  and  C_11
REMARK    7  A    between atoms: C_13  and  C_14
REMARK    8  A    between atoms: C_14  and  C_15
REMARK    9  A    between atoms: C_15  and  C_16
REMARK   10  A    between atoms: C_17  and  O_18
REMARK   11  A    between atoms: C_19  and  N_20
REMARK   12  A    between atoms: C_21  and  C_22
REMARK                            x       y       z     vdW  Elec       q    Type
REMARK                         _______ _______ _______ _____ _____    ______ ____
ROOT
ATOM      1  C   UNL     1       3.880   5.350  17.850  0.00  0.00    +0.000 A 
ATOM      2  C   UNL     1       3.140   4.251  18.349  0.00  0.00    +0.000 A 
ATOM      3  C   UNL     1       2.107   4.391  19.305  0.00  0.00    +0.000 A 
ATOM      4  C   UNL     1       1.835   5.680  19.783  0.00  0.00    +0.000 A 
ATOM      5  C   UNL     1       2.493   6.795  19.253  0.00  0.00    +0.000 A 
ATOM      6  C   UNL     1       3.528   6.625  18.337  0.00  0.00    +0.000 A 
ENDROOT
BRANCH   1  11
ATOM      7  C   UNL     1       5.688   4.386  14.616  0.00  0.00    +0.000 A 
ATOM      8  C   UNL     1       7.003   4.747  14.907  0.00  0.00    +0.000 A 
ATOM      9  C   UNL     1       7.320   5.319  16.137  0.00  0.00    +0.000 A 
ATOM     10  C   UNL     1       6.332   5.540  17.108  0.00  0.00    +0.000 A 
ATOM     11  C   UNL     1       4.982   5.174  16.851  0.00  0.00    +0.000 A 
ATOM     12  C   UNL     1       4.696   4.603  15.587  0.00  0.00    +0.000 A 
BRANCH  10  13
ATOM     13  O   UNL     1       6.610   6.092  18.335  0.00  0.00    +0.000 OA
ATOM     14  C   UNL     1       7.822   5.733  18.985  0.00  0.00    +0.000 C 
ENDBRANCH  10  13
BRANCH   7  15
ATOM     15  C   UNL     1       5.365   3.734  13.292  0.00  0.00    +0.000 C 
BRANCH  15  17
ATOM     16  C   UNL     1       6.602   2.337  11.552  0.00  0.00    +0.000 C 
ATOM     17  C   UNL     1       6.538   3.654  12.312  0.00  0.00    +0.000 C 
ENDBRANCH  15  17
ENDBRANCH   7  15
ENDBRANCH   1  11
BRANCH   5  18
ATOM     18  N   UNL     1       2.109   8.066  19.712  0.00  0.00    +0.000 N 
ATOM     19  C   UNL     1       1.564   9.101  19.000  0.00  0.00    +0.000 C 
ATOM     20  C   UNL     1       1.189   8.905  17.553  0.00  0.00    +0.000 C 
ATOM     21  O   UNL     1       1.314  10.162  19.570  0.00  0.00    +0.000 OA
ATOM     22  H   UNL     1       1.903   8.132  20.703  0.00  0.00    +0.000 HD
ENDBRANCH   5  18
BRANCH   4  23
ATOM     23  O   UNL     1       0.875   5.930  20.728  0.00  0.00    +0.000 OA
ATOM     24  H   UNL     1       0.982   6.841  21.042  0.00  0.00    +0.000 HD
ENDBRANCH   4  23
BRANCH   3  25
ATOM     25  C   UNL     1       1.233   3.198  19.639  0.00  0.00    +0.000 C 
BRANCH  25  26
ATOM     26  C   UNL     1       1.232   2.717  21.093  0.00  0.00    +0.000 C 
ATOM     27  C   UNL     1       2.626   2.570  21.682  0.00  0.00    +0.000 C 
ENDBRANCH  25  26
ENDBRANCH   3  25
TORSDOF 8
ENDMDL
MODEL 9
REMARK VINA RESULT:      -7.0      2.206      3.253
REMARK  Name = 
REMARK  12 active torsions:
REMARK  status: ('A' for Active; 'I' for Inactive)
REMARK    1  A    between atoms: C_1  and  C_2
REMARK    2  A    between atoms: C_2  and  C_3
REMARK    3  A    between atoms: C_3  and  C_4
REMARK    4  A    between atoms: C_7  and  O_8
REMARK    5  A    between atoms: O_8  and  C_9
REMARK    6  A    between atoms: C_10  and  C_11
REMARK    7  A    between atoms: C_13  and  C_14
REMARK    8  A    between atoms: C_14  and  C_15
REMARK    9  A    between atoms: C_15  and  C_16
REMARK   10  A    between atoms: C_17  and  O_18
REMARK   11  A    between atoms: C_19  and  N_20
REMARK   12  A    between atoms: C_21  and  C_22
REMARK                            x       y       z     vdW  Elec       q    Type
REMARK                         _______ _______ _______ _____ _____    ______ ____
ROOT
ATOM      1  C   UNL     1       5.436   4.797  15.527  0.00  0.00    +0.000 A 
ATOM      2  C   UNL     1       4.823   6.037  15.829  0.00  0.00    +0.000 A 
ATOM      3  C   UNL     1       4.389   6.383  17.129  0.00  0.00    +0.000 A 
ATOM      4  C   UNL     1       4.564   5.436  18.146  0.00  0.00    +0.000 A 
ATOM      5  C   UNL     1       5.237   4.234  17.899  0.00  0.00    +0.000 A 
ATOM      6  C   UNL     1       5.625   3.905  16.602  0.00  0.00    +0.000 A 
ENDROOT
BRANCH   1  11
ATOM      7  C   UNL     1       5.372   3.299  12.004  0.00  0.00    +0.000 A 
ATOM      8  C   UNL     1       6.617   3.683  11.509  0.00  0.00    +0.000 A 
ATOM      9  C   UNL     1       7.484   4.441  12.295  0.00  0.00    +0.000 A 
ATOM     10  C   UNL     1       7.129   4.829  13.595  0.00  0.00    +0.000 A 
ATOM     11  C   UNL     1       5.871   4.446  14.138  0.00  0.00    +0.000 A 
ATOM     12  C   UNL     1       5.014   3.683  13.307  0.00  0.00    +0.000 A 
BRANCH  10  13
ATOM     13  O   UNL     1       7.961   5.567  14.401  0.00  0.00    +0.000 OA
ATOM     14  C   UNL     1       9.150   6.106  13.841  0.00  0.00    +0.000 C 
ENDBRANCH  10  13
BRANCH   7  15
ATOM     15  C   UNL     1       4.458   2.448  11.155  0.00  0.00    +0.000 C 
BRANCH  15  17
ATOM     16  C   UNL     1       3.111   4.065   9.712  0.00  0.00    +0.000 C 
ATOM     17  C   UNL     1       3.090   3.069  10.863  0.00  0.00    +0.000 C 
ENDBRANCH  15  17
ENDBRANCH   7  15
ENDBRANCH   1  11
BRANCH   5  18
ATOM     18  N   UNL     1       5.459   3.368  18.983  0.00  0.00    +0.000 N 
ATOM     19  C   UNL     1       4.622   2.415  19.498  0.00  0.00    +0.000 C 
ATOM     20  C   UNL     1       3.317   2.106  18.808  0.00  0.00    +0.000 C 
ATOM     21  O   UNL     1       4.978   1.762  20.478  0.00  0.00    +0.000 OA
ATOM     22  H   UNL     1       6.431   3.189  19.210  0.00  0.00    +0.000 HD
ENDBRANCH   5  18
BRANCH   4  23
ATOM     23  O   UNL     1       4.158   5.653  19.437  0.00  0.00    +0.000 OA
ATOM     24  H   UNL     1       4.758   6.298  19.844  0.00  0.00    +0.000 HD
ENDBRANCH   4  23
BRANCH   3  25
ATOM     25  C   UNL     1       3.925   7.800  17.408  0.00  0.00    +0.000 C 
BRANCH  25  26
ATOM     26  C   UNL     1       2.425   8.012  17.635  0.00  0.00    +0.000 C 
ATOM     27  C   UNL     1       2.058   9.453  17.951  0.00  0.00    +0.000 C 
ENDBRANCH  25  26
ENDBRANCH   3  25
TORSDOF 8
ENDMDL
