MODEL 1
REMARK VINA RESULT:      -8.0      0.000      0.000
REMARK  Name = 
REMARK  7 active torsions:
REMARK  status: ('A' for Active; 'I' for Inactive)
REMARK    1  A    between atoms: C_1  and  O_2
REMARK    2  A    between atoms: O_2  and  C_3
REMARK    3  A    between atoms: C_6  and  C_7
REMARK    4  A    between atoms: C_9  and  C_10
REMARK    5  A    between atoms: N_12  and  C_13
REMARK    6  A    between atoms: C_13  and  C_14
REMARK    7  A    between atoms: C_19  and  C_20
REMARK                            x       y       z     vdW  Elec       q    Type
REMARK                         _______ _______ _______ _____ _____    ______ ____
ROOT
ATOM      1  C   UNL     1       3.366   5.595  18.691  0.00  0.00    +0.000 A 
ATOM      2  C   UNL     1       2.878   6.845  19.008  0.00  0.00    +0.000 A 
ATOM      3  C   UNL     1       2.022   6.902  20.082  0.00  0.00    +0.000 A 
ATOM      4  N   UNL     1       1.657   5.828  20.815  0.00  0.00    +0.000 NA
ATOM      5  C   UNL     1       2.180   4.668  20.430  0.00  0.00    +0.000 A 
ATOM      6  N   UNL     1       1.847   3.538  21.146  0.00  0.00    +0.000 N 
ATOM      7  N   UNL     1       3.034   4.507  19.416  0.00  0.00    +0.000 NA
ATOM      8  H   UNL     1       1.584   3.779  22.092  0.00  0.00    +0.000 HD
ATOM      9  H   UNL     1       2.555   2.827  21.024  0.00  0.00    +0.000 HD
ENDROOT
BRANCH   1  13
ATOM     10  C   UNL     1       5.865   4.892  15.248  0.00  0.00    +0.000 A 
ATOM     11  C   UNL     1       5.461   3.828  16.054  0.00  0.00    +0.000 A 
ATOM     12  C   UNL     1       4.652   4.054  17.175  0.00  0.00    +0.000 A 
ATOM     13  C   UNL     1       4.246   5.353  17.531  0.00  0.00    +0.000 A 
ATOM     14  C   UNL     1       4.695   6.411  16.721  0.00  0.00    +0.000 A 
ATOM     15  C   UNL     1       5.495   6.187  15.598  0.00  0.00    +0.000 A 
BRANCH  10  17
ATOM     16  C   UNL     1       6.013   3.717  13.212  0.00  0.00    +0.000 C 
ATOM     17  O   UNL     1       6.639   4.567  14.168  0.00  0.00    +0.000 OA
ENDBRANCH  10  17
ENDBRANCH   1  13
BRANCH   3  18
ATOM     18  C   UNL     1       1.442   8.233  20.473  0.00  0.00    +0.000 C 
ATOM     19  O   UNL     1       1.170   8.487  21.644  0.00  0.00    +0.000 OA
ATOM     20  N   UNL     1       1.249   9.116  19.444  0.00  0.00    +0.000 N 
ATOM     21  H   UNL     1       1.518   8.854  18.497  0.00  0.00    +0.000 HD
BRANCH  20  22
ATOM     22  C   UNL     1       0.694  10.445  19.629  0.00  0.00    +0.000 C 
BRANCH  22  23
ATOM     23  C   UNL     1      -0.620  10.628  18.886  0.00  0.00    +0.000 A 
ATOM     24  N   UNL     1      -0.764   9.898  17.741  0.00  0.00    +0.000 NA
ATOM     25  C   UNL     1      -1.911  10.031  17.046  0.00  0.00    +0.000 A 
ATOM     26  C   UNL     1      -2.948  10.856  17.429  0.00  0.00    +0.000 A 
ATOM     27  C   UNL     1      -2.800  11.592  18.597  0.00  0.00    +0.000 A 
ATOM     28  C   UNL     1      -1.620  11.499  19.348  0.00  0.00    +0.000 A 
ATOM     29  C   UNL     1      -1.502  12.297  20.612  0.00  0.00    +0.000 C 
ENDBRANCH  22  23
ENDBRANCH  20  22
ENDBRANCH   3  18
TORSDOF 5
ENDMDL
MODEL 2
REMARK VINA RESULT:      -7.9      1.342      1.497
REMARK  Name = 
REMARK  7 active torsions:
REMARK  status: ('A' for Active; 'I' for Inactive)
REMARK    1  A    between atoms: C_1  and  O_2
REMARK    2  A    between atoms: O_2  and  C_3
REMARK    3  A    between atoms: C_6  and  C_7
REMARK    4  A    between atoms: C_9  and  C_10
REMARK    5  A    between atoms: N_12  and  C_13
REMARK    6  A    between atoms: C_13  and  C_14
REMARK    7  A    between atoms: C_19  and  C_20
REMARK                            x       y       z     vdW  Elec       q    Type
REMARK                         _______ _______ _______ _____ _____    ______ ____
ROOT
ATOM      1  C   UNL     1       3.539   6.405  17.990  0.00  0.00    +0.000 A 
ATOM      2  C   UNL     1       3.019   7.664  17.778  0.00  0.00    +0.000 A 
ATOM      3  C   UNL     1       2.210   8.155  18.775  0.00  0.00    +0.000 A 
ATOM      4  N   UNL     1       1.918   7.485  19.911  0.00  0.00    +0.000 NA
ATOM      5  C   UNL     1       2.467   6.279  20.020  0.00  0.00    +0.000 A 
ATOM      6  N   UNL     1       2.208   5.551  21.163  0.00  0.00    +0.000 N 
ATOM      7  N   UNL     1       3.281   5.718  19.122  0.00  0.00    +0.000 NA
ATOM      8  H   UNL     1       1.979   6.164  21.932  0.00  0.00    +0.000 HD
ATOM      9  H   UNL     1       2.937   4.866  21.311  0.00  0.00    +0.000 HD
ENDROOT
BRANCH   1  13
ATOM     10  C   UNL     1       5.912   4.376  15.015  0.00  0.00    +0.000 A 
ATOM     11  C   UNL     1       5.314   3.656  16.050  0.00  0.00    +0.000 A 
ATOM     12  C   UNL     1       4.546   4.314  17.019  0.00  0.00    +0.000 A 
ATOM     13  C   UNL     1       4.375   5.710  16.991  0.00  0.00    +0.000 A 
ATOM     14  C   UNL     1       5.015   6.415  15.956  0.00  0.00    +0.000 A 
ATOM     15  C   UNL     1       5.776   5.760  14.984  0.00  0.00    +0.000 A 
BRANCH  10  17
ATOM     16  C   UNL     1       6.123   3.671  12.777  0.00  0.00    +0.000 C 
ATOM     17  O   UNL     1       6.627   3.642  14.109  0.00  0.00    +0.000 OA
ENDBRANCH  10  17
ENDBRANCH   1  13
BRANCH   3  18
ATOM     18  C   UNL     1       1.599   9.519  18.603  0.00  0.00    +0.000 C 
ATOM     19  O   UNL     1       2.141  10.374  17.909  0.00  0.00    +0.000 OA
ATOM     20  N   UNL     1       0.418   9.721  19.267  0.00  0.00    +0.000 N 
ATOM     21  H   UNL     1       0.006   8.962  19.808  0.00  0.00    +0.000 HD
BRANCH  20  22
ATOM     22  C   UNL     1      -0.315  10.974  19.224  0.00  0.00    +0.000 C 
BRANCH  22  23
ATOM     23  C   UNL     1      -1.562  10.881  18.360  0.00  0.00    +0.000 A 
ATOM     24  N   UNL     1      -1.473  10.061  17.271  0.00  0.00    +0.000 NA
ATOM     25  C   UNL     1      -2.553   9.950  16.473  0.00  0.00    +0.000 A 
ATOM     26  C   UNL     1      -3.743  10.612  16.696  0.00  0.00    +0.000 A 
ATOM     27  C   UNL     1      -3.831  11.441  17.807  0.00  0.00    +0.000 A 
ATOM     28  C   UNL     1      -2.730  11.600  18.660  0.00  0.00    +0.000 A 
ATOM     29  C   UNL     1      -2.867  12.491  19.859  0.00  0.00    +0.000 C 
ENDBRANCH  22  23
ENDBRANCH  20  22
ENDBRANCH   3  18
TORSDOF 5
ENDMDL
MODEL 3
REMARK VINA RESULT:      -7.7      2.055      2.763
REMARK  Name = 
REMARK  7 active torsions:
REMARK  status: ('A' for Active; 'I' for Inactive)
REMARK    1  A    between atoms: C_1  and  O_2
REMARK    2  A    between atoms: O_2  and  C_3
REMARK    3  A    between atoms: C_6  and  C_7
REMARK    4  A    between atoms: C_9  and  C_10
REMARK    5  A    between atoms: N_12  and  C_13
REMARK    6  A    between atoms: C_13  and  C_14
REMARK    7  A    between atoms: C_19  and  C_20
REMARK                            x       y       z     vdW  Elec       q    Type
REMARK                         _______ _______ _______ _____ _____    ______ ____
ROOT
ATOM      1  C   UNL     1       4.763   4.125  18.279  0.00  0.00    +0.000 A 
ATOM      2  C   UNL     1       3.713   4.914  18.698  0.00  0.00    +0.000 A 
ATOM      3  C   UNL     1       3.090   4.520  19.858  0.00  0.00    +0.000 A 
ATOM      4  N   UNL     1       3.451   3.438  20.580  0.00  0.00    +0.000 NA
ATOM      5  C   UNL     1       4.474   2.741  20.093  0.00  0.00    +0.000 A 
ATOM      6  N   UNL     1       4.890   1.627  20.792  0.00  0.00    +0.000 N 
ATOM      7  N   UNL     1       5.159   3.047  18.989  0.00  0.00    +0.000 NA
ATOM      8  H   UNL     1       4.646   1.708  21.770  0.00  0.00    +0.000 HD
ATOM      9  H   UNL     1       5.852   1.414  20.566  0.00  0.00    +0.000 HD
ENDROOT
BRANCH   1  13
ATOM     10  C   UNL     1       6.882   4.942  14.614  0.00  0.00    +0.000 A 
ATOM     11  C   UNL     1       5.609   4.374  14.579  0.00  0.00    +0.000 A 
ATOM     12  C   UNL     1       4.920   4.104  15.769  0.00  0.00    +0.000 A 
ATOM     13  C   UNL     1       5.497   4.375  17.023  0.00  0.00    +0.000 A 
ATOM     14  C   UNL     1       6.794   4.917  17.030  0.00  0.00    +0.000 A 
ATOM     15  C   UNL     1       7.480   5.194  15.845  0.00  0.00    +0.000 A 
BRANCH  10  17
ATOM     16  C   UNL     1       7.075   4.296  12.357  0.00  0.00    +0.000 C 
ATOM     17  O   UNL     1       7.465   5.183  13.400  0.00  0.00    +0.000 OA
ENDBRANCH  10  17
ENDBRANCH   1  13
BRANCH   3  18
ATOM     18  C   UNL     1       1.928   5.330  20.364  0.00  0.00    +0.000 C 
ATOM     19  O   UNL     1       0.813   4.831  20.488  0.00  0.00    +0.000 OA
ATOM     20  N   UNL     1       2.210   6.635  20.670  0.00  0.00    +0.000 N 
ATOM     21  H   UNL     1       3.162   6.983  20.569  0.00  0.00    +0.000 HD
BRANCH  20  22
ATOM     22  C   UNL     1       1.215   7.569  21.167  0.00  0.00    +0.000 C 
BRANCH  22  23
ATOM     23  C   UNL     1       1.105   8.809  20.295  0.00  0.00    +0.000 A 
ATOM     24  N   UNL     1       1.689   8.726  19.063  0.00  0.00    +0.000 NA
ATOM     25  C   UNL     1       1.620   9.803  18.255  0.00  0.00    +0.000 A 
ATOM     26  C   UNL     1       0.988  10.980  18.600  0.00  0.00    +0.000 A 
ATOM     27  C   UNL     1       0.390  11.058  19.851  0.00  0.00    +0.000 A 
ATOM     28  C   UNL     1       0.447   9.970  20.732  0.00  0.00    +0.000 A 
ATOM     29  C   UNL     1      -0.224  10.085  22.069  0.00  0.00    +0.000 C 
ENDBRANCH  22  23
ENDBRANCH  20  22
ENDBRANCH   3  18
TORSDOF 5
ENDMDL
MODEL 4
REMARK VINA RESULT:      -7.7      0.624      1.003
REMARK  Name = 
REMARK  7 active torsions:
REMARK  status: ('A' for Active; 'I' for Inactive)
REMARK    1  A    between atoms: C_1  and  O_2
REMARK    2  A    between atoms: O_2  and  C_3
REMARK    3  A    between atoms: C_6  and  C_7
REMARK    4  A    between atoms: C_9  and  C_10
REMARK    5  A    between atoms: N_12  and  C_13
REMARK    6  A    between atoms: C_13  and  C_14
REMARK    7  A    between atoms: C_19  and  C_20
REMARK                            x       y       z     vdW  Elec       q    Type
REMARK                         _______ _______ _______ _____ _____    ______ ____
ROOT
ATOM      1  C   UNL     1       3.517   5.813  18.870  0.00  0.00    +0.000 A 
ATOM      2  C   UNL     1       2.952   7.035  19.172  0.00  0.00    +0.000 A 
ATOM      3  C   UNL     1       1.999   7.028  20.162  0.00  0.00    +0.000 A 
ATOM      4  N   UNL     1       1.610   5.921  20.830  0.00  0.00    +0.000 NA
ATOM      5  C   UNL     1       2.212   4.793  20.466  0.00  0.00    +0.000 A 
ATOM      6  N   UNL     1       1.858   3.630  21.118  0.00  0.00    +0.000 N 
ATOM      7  N   UNL     1       3.162   4.692  19.533  0.00  0.00    +0.000 NA
ATOM      8  H   UNL     1       1.500   3.833  22.041  0.00  0.00    +0.000 HD
ATOM      9  H   UNL     1       2.603   2.950  21.045  0.00  0.00    +0.000 HD
ENDROOT
BRANCH   1  13
ATOM     10  C   UNL     1       6.455   5.238  15.768  0.00  0.00    +0.000 A 
ATOM     11  C   UNL     1       6.598   6.275  16.689  0.00  0.00    +0.000 A 
ATOM     12  C   UNL     1       5.643   6.466  17.695  0.00  0.00    +0.000 A 
ATOM     13  C   UNL     1       4.509   5.639  17.792  0.00  0.00    +0.000 A 
ATOM     14  C   UNL     1       4.373   4.621  16.831  0.00  0.00    +0.000 A 
ATOM     15  C   UNL     1       5.329   4.424  15.831  0.00  0.00    +0.000 A 
BRANCH  10  17
ATOM     16  C   UNL     1       7.040   4.584  13.582  0.00  0.00    +0.000 C 
ATOM     17  O   UNL     1       7.449   5.123  14.834  0.00  0.00    +0.000 OA
ENDBRANCH  10  17
ENDBRANCH   1  13
BRANCH   3  18
ATOM     18  C   UNL     1       1.333   8.325  20.532  0.00  0.00    +0.000 C 
ATOM     19  O   UNL     1       0.964   8.543  21.682  0.00  0.00    +0.000 OA
ATOM     20  N   UNL     1       1.177   9.219  19.506  0.00  0.00    +0.000 N 
ATOM     21  H   UNL     1       1.527   8.988  18.577  0.00  0.00    +0.000 HD
BRANCH  20  22
ATOM     22  C   UNL     1       0.551  10.520  19.671  0.00  0.00    +0.000 C 
BRANCH  22  23
ATOM     23  C   UNL     1      -0.734  10.645  18.870  0.00  0.00    +0.000 A 
ATOM     24  N   UNL     1      -0.820   9.864  17.753  0.00  0.00    +0.000 NA
ATOM     25  C   UNL     1      -1.940   9.944  17.008  0.00  0.00    +0.000 A 
ATOM     26  C   UNL     1      -3.006  10.765  17.313  0.00  0.00    +0.000 A 
ATOM     27  C   UNL     1      -2.918  11.554  18.453  0.00  0.00    +0.000 A 
ATOM     28  C   UNL     1      -1.767  11.516  19.253  0.00  0.00    +0.000 A 
ATOM     29  C   UNL     1      -1.714  12.370  20.485  0.00  0.00    +0.000 C 
ENDBRANCH  22  23
ENDBRANCH  20  22
ENDBRANCH   3  18
TORSDOF 5
ENDMDL
MODEL 5
REMARK VINA RESULT:      -7.6      1.792      2.682
REMARK  Name = 
REMARK  7 active torsions:
REMARK  status: ('A' for Active; 'I' for Inactive)
REMARK    1  A    between atoms: C_1  and  O_2
REMARK    2  A    between atoms: O_2  and  C_3
REMARK    3  A    between atoms: C_6  and  C_7
REMARK    4  A    between atoms: C_9  and  C_10
REMARK    5  A    between atoms: N_12  and  C_13
REMARK    6  A    between atoms: C_13  and  C_14
REMARK    7  A    between atoms: C_19  and  C_20
REMARK                            x       y       z     vdW  Elec       q    Type
REMARK                         _______ _______ _______ _____ _____    ______ ____
ROOT
ATOM      1  C   UNL     1       4.184   4.133  17.729  0.00  0.00    +0.000 A 
ATOM      2  C   UNL     1       3.522   5.050  18.517  0.00  0.00    +0.000 A 
ATOM      3  C   UNL     1       2.581   4.535  19.377  0.00  0.00    +0.000 A 
ATOM      4  N   UNL     1       2.293   3.220  19.483  0.00  0.00    +0.000 NA
ATOM      5  C   UNL     1       2.985   2.417  18.681  0.00  0.00    +0.000 A 
ATOM      6  N   UNL     1       2.736   1.062  18.750  0.00  0.00    +0.000 N 
ATOM      7  N   UNL     1       3.931   2.811  17.826  0.00  0.00    +0.000 NA
ATOM      8  H   UNL     1       2.370   0.812  19.658  0.00  0.00    +0.000 HD
ATOM      9  H   UNL     1       3.535   0.544  18.409  0.00  0.00    +0.000 HD
ENDROOT
BRANCH   1  13
ATOM     10  C   UNL     1       7.129   5.204  14.767  0.00  0.00    +0.000 A 
ATOM     11  C   UNL     1       7.253   5.659  16.080  0.00  0.00    +0.000 A 
ATOM     12  C   UNL     1       6.296   5.314  17.043  0.00  0.00    +0.000 A 
ATOM     13  C   UNL     1       5.178   4.527  16.712  0.00  0.00    +0.000 A 
ATOM     14  C   UNL     1       5.061   4.109  15.375  0.00  0.00    +0.000 A 
ATOM     15  C   UNL     1       6.018   4.445  14.414  0.00  0.00    +0.000 A 
BRANCH  10  17
ATOM     16  C   UNL     1       7.888   5.259  12.538  0.00  0.00    +0.000 C 
ATOM     17  O   UNL     1       8.123   5.579  13.906  0.00  0.00    +0.000 OA
ENDBRANCH  10  17
ENDBRANCH   1  13
BRANCH   3  18
ATOM     18  C   UNL     1       1.811   5.482  20.256  0.00  0.00    +0.000 C 
ATOM     19  O   UNL     1       0.784   5.125  20.827  0.00  0.00    +0.000 OA
ATOM     20  N   UNL     1       2.338   6.742  20.365  0.00  0.00    +0.000 N 
ATOM     21  H   UNL     1       3.207   6.969  19.886  0.00  0.00    +0.000 HD
BRANCH  20  22
ATOM     22  C   UNL     1       1.731   7.792  21.165  0.00  0.00    +0.000 C 
BRANCH  22  23
ATOM     23  C   UNL     1       1.066   8.856  20.307  0.00  0.00    +0.000 A 
ATOM     24  N   UNL     1       1.449   8.890  18.996  0.00  0.00    +0.000 NA
ATOM     25  C   UNL     1       0.889   9.821  18.197  0.00  0.00    +0.000 A 
ATOM     26  C   UNL     1      -0.051  10.734  18.626  0.00  0.00    +0.000 A 
ATOM     27  C   UNL     1      -0.442  10.693  19.958  0.00  0.00    +0.000 A 
ATOM     28  C   UNL     1       0.122   9.752  20.832  0.00  0.00    +0.000 A 
ATOM     29  C   UNL     1      -0.336   9.727  22.260  0.00  0.00    +0.000 C 
ENDBRANCH  22  23
ENDBRANCH  20  22
ENDBRANCH   3  18
TORSDOF 5
ENDMDL
MODEL 6
REMARK VINA RESULT:      -7.6      3.312      4.798
REMARK  Name = 
REMARK  7 active torsions:
REMARK  status: ('A' for Active; 'I' for Inactive)
REMARK    1  A    between atoms: C_1  and  O_2
REMARK    2  A    between atoms: O_2  and  C_3
REMARK    3  A    between atoms: C_6  and  C_7
REMARK    4  A    between atoms: C_9  and  C_10
REMARK    5  A    between atoms: N_12  and  C_13
REMARK    6  A    between atoms: C_13  and  C_14
REMARK    7  A    between atoms: C_19  and  C_20
REMARK                            x       y       z     vdW  Elec       q    Type
REMARK                         _______ _______ _______ _____ _____    ______ ____
ROOT
ATOM      1  C   UNL     1       1.638   7.721  20.042  0.00  0.00    +0.000 A 
ATOM      2  C   UNL     1       1.017   8.224  21.166  0.00  0.00    +0.000 A 
ATOM      3  C   UNL     1       0.652   9.548  21.109  0.00  0.00    +0.000 A 
ATOM      4  N   UNL     1       0.863  10.345  20.039  0.00  0.00    +0.000 NA
ATOM      5  C   UNL     1       1.469   9.767  19.007  0.00  0.00    +0.000 A 
ATOM      6  N   UNL     1       1.706  10.532  17.884  0.00  0.00    +0.000 N 
ATOM      7  N   UNL     1       1.847   8.487  18.952  0.00  0.00    +0.000 NA
ATOM      8  H   UNL     1       1.046  11.295  17.826  0.00  0.00    +0.000 HD
ATOM      9  H   UNL     1       1.806   9.937  17.072  0.00  0.00    +0.000 HD
ENDROOT
BRANCH   1  13
ATOM     10  C   UNL     1       3.184   3.699  19.879  0.00  0.00    +0.000 A 
ATOM     11  C   UNL     1       3.568   4.640  18.924  0.00  0.00    +0.000 A 
ATOM     12  C   UNL     1       3.065   5.946  18.973  0.00  0.00    +0.000 A 
ATOM     13  C   UNL     1       2.146   6.337  19.965  0.00  0.00    +0.000 A 
ATOM     14  C   UNL     1       1.751   5.360  20.895  0.00  0.00    +0.000 A 
ATOM     15  C   UNL     1       2.258   4.059  20.853  0.00  0.00    +0.000 A 
BRANCH  10  17
ATOM     16  C   UNL     1       3.488   1.800  18.519  0.00  0.00    +0.000 C 
ATOM     17  O   UNL     1       3.743   2.457  19.756  0.00  0.00    +0.000 OA
ENDBRANCH  10  17
ENDBRANCH   1  13
BRANCH   3  18
ATOM     18  C   UNL     1      -0.018  10.164  22.306  0.00  0.00    +0.000 C 
ATOM     19  O   UNL     1       0.289   9.831  23.447  0.00  0.00    +0.000 OA
ATOM     20  N   UNL     1      -0.974  11.104  22.024  0.00  0.00    +0.000 N 
ATOM     21  H   UNL     1      -1.166  11.355  21.056  0.00  0.00    +0.000 HD
BRANCH  20  22
ATOM     22  C   UNL     1      -1.731  11.802  23.049  0.00  0.00    +0.000 C 
BRANCH  22  23
ATOM     23  C   UNL     1      -2.954  12.504  22.483  0.00  0.00    +0.000 A 
ATOM     24  N   UNL     1      -2.880  12.864  21.168  0.00  0.00    +0.000 NA
ATOM     25  C   UNL     1      -3.940  13.493  20.622  0.00  0.00    +0.000 A 
ATOM     26  C   UNL     1      -5.097  13.786  21.315  0.00  0.00    +0.000 A 
ATOM     27  C   UNL     1      -5.171  13.413  22.651  0.00  0.00    +0.000 A 
ATOM     28  C   UNL     1      -4.089  12.769  23.267  0.00  0.00    +0.000 A 
ATOM     29  C   UNL     1      -4.211  12.367  24.707  0.00  0.00    +0.000 C 
ENDBRANCH  22  23
ENDBRANCH  20  22
ENDBRANCH   3  18
TORSDOF 5
ENDMDL
MODEL 7
REMARK VINA RESULT:      -7.6      2.256      8.363
REMARK  Name = 
REMARK  7 active torsions:
REMARK  status: ('A' for Active; 'I' for Inactive)
REMARK    1  A    between atoms: C_1  and  O_2
REMARK    2  A    between atoms: O_2  and  C_3
REMARK    3  A    between atoms: C_6  and  C_7
REMARK    4  A    between atoms: C_9  and  C_10
REMARK    5  A    between atoms: N_12  and  C_13
REMARK    6  A    between atoms: C_13  and  C_14
REMARK    7  A    between atoms: C_19  and  C_20
REMARK                            x       y       z     vdW  Elec       q    Type
REMARK                         _______ _______ _______ _____ _____    ______ ____
ROOT
ATOM      1  C   UNL     1       2.956   6.391  19.155  0.00  0.00    +0.000 A 
ATOM      2  C   UNL     1       4.117   6.291  18.417  0.00  0.00    +0.000 A 
ATOM      3  C   UNL     1       4.782   5.091  18.502  0.00  0.00    +0.000 A 
ATOM      4  N   UNL     1       4.361   4.044  19.244  0.00  0.00    +0.000 NA
ATOM      5  C   UNL     1       3.233   4.239  19.919  0.00  0.00    +0.000 A 
ATOM      6  N   UNL     1       2.752   3.202  20.691  0.00  0.00    +0.000 N 
ATOM      7  N   UNL     1       2.501   5.356  19.891  0.00  0.00    +0.000 NA
ATOM      8  H   UNL     1       3.080   2.313  20.338  0.00  0.00    +0.000 HD
ATOM      9  H   UNL     1       1.757   3.309  20.837  0.00  0.00    +0.000 HD
ENDROOT
BRANCH   1  13
ATOM     10  C   UNL     1       0.700  10.060  19.354  0.00  0.00    +0.000 A 
ATOM     11  C   UNL     1       0.868   9.274  20.494  0.00  0.00    +0.000 A 
ATOM     12  C   UNL     1       1.597   8.080  20.430  0.00  0.00    +0.000 A 
ATOM     13  C   UNL     1       2.158   7.630  19.221  0.00  0.00    +0.000 A 
ATOM     14  C   UNL     1       1.947   8.425  18.081  0.00  0.00    +0.000 A 
ATOM     15  C   UNL     1       1.226   9.620  18.143  0.00  0.00    +0.000 A 
BRANCH  10  17
ATOM     16  C   UNL     1      -1.154  11.346  18.680  0.00  0.00    +0.000 C 
ATOM     17  O   UNL     1      -0.013  11.215  19.521  0.00  0.00    +0.000 OA
ENDBRANCH  10  17
ENDBRANCH   1  13
BRANCH   3  18
ATOM     18  C   UNL     1       6.063   4.919  17.733  0.00  0.00    +0.000 C 
ATOM     19  O   UNL     1       7.048   4.398  18.249  0.00  0.00    +0.000 OA
ATOM     20  N   UNL     1       6.040   5.379  16.443  0.00  0.00    +0.000 N 
ATOM     21  H   UNL     1       5.183   5.780  16.065  0.00  0.00    +0.000 HD
BRANCH  20  22
ATOM     22  C   UNL     1       7.183   5.304  15.550  0.00  0.00    +0.000 C 
BRANCH  22  23
ATOM     23  C   UNL     1       6.828   4.674  14.213  0.00  0.00    +0.000 A 
ATOM     24  N   UNL     1       5.751   3.834  14.217  0.00  0.00    +0.000 NA
ATOM     25  C   UNL     1       5.400   3.248  13.055  0.00  0.00    +0.000 A 
ATOM     26  C   UNL     1       6.063   3.454  11.863  0.00  0.00    +0.000 A 
ATOM     27  C   UNL     1       7.154   4.313  11.861  0.00  0.00    +0.000 A 
ATOM     28  C   UNL     1       7.566   4.936  13.048  0.00  0.00    +0.000 A 
ATOM     29  C   UNL     1       8.739   5.869  13.005  0.00  0.00    +0.000 C 
ENDBRANCH  22  23
ENDBRANCH  20  22
ENDBRANCH   3  18
TORSDOF 5
ENDMDL
MODEL 8
REMARK VINA RESULT:      -7.5      1.651      2.639
REMARK  Name = 
REMARK  7 active torsions:
REMARK  status: ('A' for Active; 'I' for Inactive)
REMARK    1  A    between atoms: C_1  and  O_2
REMARK    2  A    between atoms: O_2  and  C_3
REMARK    3  A    between atoms: C_6  and  C_7
REMARK    4  A    between atoms: C_9  and  C_10
REMARK    5  A    between atoms: N_12  and  C_13
REMARK    6  A    between atoms: C_13  and  C_14
REMARK    7  A    between atoms: C_19  and  C_20
REMARK                            x       y       z     vdW  Elec       q    Type
REMARK                         _______ _______ _______ _____ _____    ______ ____
ROOT
ATOM      1  C   UNL     1       3.054   7.017  18.226  0.00  0.00    +0.000 A 
ATOM      2  C   UNL     1       2.688   8.285  17.828  0.00  0.00    +0.000 A 
ATOM      3  C   UNL     1       1.889   8.982  18.703  0.00  0.00    +0.000 A 
ATOM      4  N   UNL     1       1.468   8.499  19.892  0.00  0.00    +0.000 NA
ATOM      5  C   UNL     1       1.874   7.267  20.184  0.00  0.00    +0.000 A 
ATOM      6  N   UNL     1       1.478   6.723  21.388  0.00  0.00    +0.000 N 
ATOM      7  N   UNL     1       2.665   6.513  19.416  0.00  0.00    +0.000 NA
ATOM      8  H   UNL     1       1.280   7.451  22.060  0.00  0.00    +0.000 HD
ATOM      9  H   UNL     1       2.118   5.991  21.666  0.00  0.00    +0.000 HD
ENDROOT
BRANCH   1  13
ATOM     10  C   UNL     1       5.460   4.378  15.810  0.00  0.00    +0.000 A 
ATOM     11  C   UNL     1       5.548   5.759  15.644  0.00  0.00    +0.000 A 
ATOM     12  C   UNL     1       4.764   6.618  16.425  0.00  0.00    +0.000 A 
ATOM     13  C   UNL     1       3.858   6.117  17.376  0.00  0.00    +0.000 A 
ATOM     14  C   UNL     1       3.766   4.719  17.501  0.00  0.00    +0.000 A 
ATOM     15  C   UNL     1       4.552   3.860  16.728  0.00  0.00    +0.000 A 
BRANCH  10  17
ATOM     16  C   UNL     1       6.159   3.878  13.617  0.00  0.00    +0.000 C 
ATOM     17  O   UNL     1       6.278   3.624  15.013  0.00  0.00    +0.000 OA
ENDBRANCH  10  17
ENDBRANCH   1  13
BRANCH   3  18
ATOM     18  C   UNL     1       1.442  10.368  18.326  0.00  0.00    +0.000 C 
ATOM     19  O   UNL     1       2.243  11.204  17.917  0.00  0.00    +0.000 OA
ATOM     20  N   UNL     1       0.102  10.613  18.472  0.00  0.00    +0.000 N 
ATOM     21  H   UNL     1      -0.515   9.869  18.793  0.00  0.00    +0.000 HD
BRANCH  20  22
ATOM     22  C   UNL     1      -0.511  11.893  18.163  0.00  0.00    +0.000 C 
BRANCH  22  23
ATOM     23  C   UNL     1      -2.011  11.885  18.408  0.00  0.00    +0.000 A 
ATOM     24  N   UNL     1      -2.425  12.429  19.591  0.00  0.00    +0.000 NA
ATOM     25  C   UNL     1      -3.747  12.440  19.855  0.00  0.00    +0.000 A 
ATOM     26  C   UNL     1      -4.704  11.941  18.996  0.00  0.00    +0.000 A 
ATOM     27  C   UNL     1      -4.280  11.394  17.792  0.00  0.00    +0.000 A 
ATOM     28  C   UNL     1      -2.914  11.346  17.478  0.00  0.00    +0.000 A 
ATOM     29  C   UNL     1      -2.495  10.762  16.162  0.00  0.00    +0.000 C 
ENDBRANCH  22  23
ENDBRANCH  20  22
ENDBRANCH   3  18
TORSDOF 5
ENDMDL
MODEL 9
REMARK VINA RESULT:      -7.5      1.828      2.510
REMARK  Name = 
REMARK  7 active torsions:
REMARK  status: ('A' for Active; 'I' for Inactive)
REMARK    1  A    between atoms: C_1  and  O_2
REMARK    2  A    between atoms: O_2  and  C_3
REMARK    3  A    between atoms: C_6  and  C_7
REMARK    4  A    between atoms: C_9  and  C_10
REMARK    5  A    between atoms: N_12  and  C_13
REMARK    6  A    between atoms: C_13  and  C_14
REMARK    7  A    between atoms: C_19  and  C_20
REMARK                            x       y       z     vdW  Elec       q    Type
REMARK                         _______ _______ _______ _____ _____    ______ ____
ROOT
ATOM      1  C   UNL     1       3.637   6.252  17.919  0.00  0.00    +0.000 A 
ATOM      2  C   UNL     1       3.102   7.510  17.736  0.00  0.00    +0.000 A 
ATOM      3  C   UNL     1       2.307   7.979  18.755  0.00  0.00    +0.000 A 
ATOM      4  N   UNL     1       2.043   7.290  19.886  0.00  0.00    +0.000 NA
ATOM      5  C   UNL     1       2.604   6.088  19.968  0.00  0.00    +0.000 A 
ATOM      6  N   UNL     1       2.372   5.340  21.104  0.00  0.00    +0.000 N 
ATOM      7  N   UNL     1       3.405   5.547  19.046  0.00  0.00    +0.000 NA
ATOM      8  H   UNL     1       2.152   5.940  21.886  0.00  0.00    +0.000 HD
ATOM      9  H   UNL     1       3.110   4.660  21.228  0.00  0.00    +0.000 HD
ENDROOT
BRANCH   1  13
ATOM     10  C   UNL     1       5.972   4.291  14.871  0.00  0.00    +0.000 A 
ATOM     11  C   UNL     1       5.368   3.546  15.883  0.00  0.00    +0.000 A 
ATOM     12  C   UNL     1       4.612   4.181  16.876  0.00  0.00    +0.000 A 
ATOM     13  C   UNL     1       4.460   5.580  16.895  0.00  0.00    +0.000 A 
ATOM     14  C   UNL     1       5.106   6.309  15.882  0.00  0.00    +0.000 A 
ATOM     15  C   UNL     1       5.855   5.677  14.886  0.00  0.00    +0.000 A 
BRANCH  10  17
ATOM     16  C   UNL     1       6.070   3.510  12.651  0.00  0.00    +0.000 C 
ATOM     17  O   UNL     1       6.674   3.578  13.939  0.00  0.00    +0.000 OA
ENDBRANCH  10  17
ENDBRANCH   1  13
BRANCH   3  18
ATOM     18  C   UNL     1       1.681   9.339  18.615  0.00  0.00    +0.000 C 
ATOM     19  O   UNL     1       1.543   9.864  17.513  0.00  0.00    +0.000 OA
ATOM     20  N   UNL     1       1.287   9.928  19.787  0.00  0.00    +0.000 N 
ATOM     21  H   UNL     1       1.406   9.431  20.667  0.00  0.00    +0.000 HD
BRANCH  20  22
ATOM     22  C   UNL     1       0.668  11.241  19.849  0.00  0.00    +0.000 C 
BRANCH  22  23
ATOM     23  C   UNL     1      -0.289  11.370  21.022  0.00  0.00    +0.000 A 
ATOM     24  N   UNL     1      -0.001  10.603  22.115  0.00  0.00    +0.000 NA
ATOM     25  C   UNL     1      -0.825  10.681  23.179  0.00  0.00    +0.000 A 
ATOM     26  C   UNL     1      -1.937  11.495  23.229  0.00  0.00    +0.000 A 
ATOM     27  C   UNL     1      -2.224  12.278  22.118  0.00  0.00    +0.000 A 
ATOM     28  C   UNL     1      -1.405  12.222  20.982  0.00  0.00    +0.000 A 
ATOM     29  C   UNL     1      -1.737  13.094  19.807  0.00  0.00    +0.000 C 
ENDBRANCH  22  23
ENDBRANCH  20  22
ENDBRANCH   3  18
TORSDOF 5
ENDMDL
