MODEL 1
REMARK VINA RESULT:      -7.6      0.000      0.000
REMARK  Name = 
REMARK  4 active torsions:
REMARK  status: ('A' for Active; 'I' for Inactive)
REMARK    1  A    between atoms: S_2  and  C_4
REMARK    2  A    between atoms: S_2  and  N_18
REMARK    3  A    between atoms: C_11  and  C_12
REMARK    4  A    between atoms: C_12  and  O_13
REMARK                            x       y       z     vdW  Elec       q    Type
REMARK                         _______ _______ _______ _____ _____    ______ ____
ROOT
ATOM      1  C   UNL     1       2.660   5.223  18.841  0.00  0.00    +0.000 A 
ATOM      2  C   UNL     1       2.879   6.382  18.111  0.00  0.00    +0.000 A 
ATOM      3  C   UNL     1       2.465   7.600  18.646  0.00  0.00    +0.000 A 
ATOM      4  C   UNL     1       1.865   7.650  19.907  0.00  0.00    +0.000 A 
ATOM      5  N   UNL     1       1.438   8.859  20.424  0.00  0.00    +0.000 N 
ATOM      6  C   UNL     1       1.421   9.055  21.872  0.00  0.00    +0.000 C 
ATOM      7  C   UNL     1      -0.003   9.272  22.379  0.00  0.00    +0.000 C 
ATOM      8  C   UNL     1      -0.744  10.368  21.593  0.00  0.00    +0.000 C 
ATOM      9  C   UNL     1      -0.697  10.033  20.097  0.00  0.00    +0.000 C 
ATOM     10  C   UNL     1       0.732   9.824  19.587  0.00  0.00    +0.000 C 
ATOM     11  N   UNL     1       1.721   6.520  20.639  0.00  0.00    +0.000 NA
ATOM     12  C   UNL     1       2.122   5.334  20.105  0.00  0.00    +0.000 A 
ENDROOT
BRANCH   1  14
ATOM     13  O   UNL     1       3.208   2.741  19.301  0.00  0.00    +0.000 OA
ATOM     14  S   UNL     1       3.114   3.653  18.180  0.00  0.00    +0.000 S 
ATOM     15  O   UNL     1       2.243   3.372  17.062  0.00  0.00    +0.000 OA
BRANCH  14  16
ATOM     16  N   UNL     1       4.705   3.910  17.595  0.00  0.00    +0.000 NA
ATOM     17  C   UNL     1       4.827   4.227  16.151  0.00  0.00    +0.000 C 
ATOM     18  C   UNL     1       6.280   4.039  15.717  0.00  0.00    +0.000 C 
ATOM     19  C   UNL     1       7.201   4.945  16.525  0.00  0.00    +0.000 C 
ATOM     20  C   UNL     1       7.040   4.668  18.016  0.00  0.00    +0.000 C 
ATOM     21  C   UNL     1       5.581   4.749  18.457  0.00  0.00    +0.000 C 
ENDBRANCH  14  16
ENDBRANCH   1  14
BRANCH   8  22
ATOM     22  C   UNL     1      -0.196  11.775  21.868  0.00  0.00    +0.000 C 
BRANCH  22  23
ATOM     23  O   UNL     1      -0.650  12.255  23.126  0.00  0.00    +0.000 OA
ATOM     24  H   UNL     1      -1.402  12.850  22.961  0.00  0.00    +0.000 HD
ENDBRANCH  22  23
ENDBRANCH   8  22
TORSDOF 4
ENDMDL
MODEL 2
REMARK VINA RESULT:      -7.6      3.026      8.180
REMARK  Name = 
REMARK  4 active torsions:
REMARK  status: ('A' for Active; 'I' for Inactive)
REMARK    1  A    between atoms: S_2  and  C_4
REMARK    2  A    between atoms: S_2  and  N_18
REMARK    3  A    between atoms: C_11  and  C_12
REMARK    4  A    between atoms: C_12  and  O_13
REMARK                            x       y       z     vdW  Elec       q    Type
REMARK                         _______ _______ _______ _____ _____    ______ ____
ROOT
ATOM      1  C   UNL     1       0.716   9.789  19.749  0.00  0.00    +0.000 A 
ATOM      2  C   UNL     1       0.561   9.076  20.929  0.00  0.00    +0.000 A 
ATOM      3  C   UNL     1       1.142   7.815  21.032  0.00  0.00    +0.000 A 
ATOM      4  C   UNL     1       1.890   7.293  19.973  0.00  0.00    +0.000 A 
ATOM      5  N   UNL     1       2.447   6.031  20.073  0.00  0.00    +0.000 N 
ATOM      6  C   UNL     1       3.679   5.731  19.347  0.00  0.00    +0.000 C 
ATOM      7  C   UNL     1       3.447   4.647  18.297  0.00  0.00    +0.000 C 
ATOM      8  C   UNL     1       2.748   3.406  18.880  0.00  0.00    +0.000 C 
ATOM      9  C   UNL     1       1.452   3.839  19.576  0.00  0.00    +0.000 C 
ATOM     10  C   UNL     1       1.687   4.919  20.635  0.00  0.00    +0.000 C 
ATOM     11  N   UNL     1       2.092   8.028  18.854  0.00  0.00    +0.000 NA
ATOM     12  C   UNL     1       1.514   9.256  18.761  0.00  0.00    +0.000 A 
ENDROOT
BRANCH   1  14
ATOM     13  O   UNL     1      -0.285  11.883  20.883  0.00  0.00    +0.000 OA
ATOM     14  S   UNL     1      -0.049  11.365  19.552  0.00  0.00    +0.000 S 
ATOM     15  O   UNL     1       0.722  12.116  18.586  0.00  0.00    +0.000 OA
BRANCH  14  16
ATOM     16  N   UNL     1      -1.576  10.987  18.871  0.00  0.00    +0.000 NA
ATOM     17  C   UNL     1      -2.571  12.086  18.845  0.00  0.00    +0.000 C 
ATOM     18  C   UNL     1      -3.959  11.500  18.586  0.00  0.00    +0.000 C 
ATOM     19  C   UNL     1      -3.984  10.749  17.261  0.00  0.00    +0.000 C 
ATOM     20  C   UNL     1      -2.923   9.654  17.254  0.00  0.00    +0.000 C 
ATOM     21  C   UNL     1      -1.541  10.195  17.611  0.00  0.00    +0.000 C 
ENDBRANCH  14  16
ENDBRANCH   1  14
BRANCH   8  22
ATOM     22  C   UNL     1       3.651   2.603  19.827  0.00  0.00    +0.000 C 
BRANCH  22  23
ATOM     23  O   UNL     1       4.978   2.539  19.325  0.00  0.00    +0.000 OA
ATOM     24  H   UNL     1       4.990   1.884  18.606  0.00  0.00    +0.000 HD
ENDBRANCH  22  23
ENDBRANCH   8  22
TORSDOF 4
ENDMDL
MODEL 3
REMARK VINA RESULT:      -7.5      3.036      8.015
REMARK  Name = 
REMARK  4 active torsions:
REMARK  status: ('A' for Active; 'I' for Inactive)
REMARK    1  A    between atoms: S_2  and  C_4
REMARK    2  A    between atoms: S_2  and  N_18
REMARK    3  A    between atoms: C_11  and  C_12
REMARK    4  A    between atoms: C_12  and  O_13
REMARK                            x       y       z     vdW  Elec       q    Type
REMARK                         _______ _______ _______ _____ _____    ______ ____
ROOT
ATOM      1  C   UNL     1       1.028   9.966  19.454  0.00  0.00    +0.000 A 
ATOM      2  C   UNL     1       0.832   9.310  20.660  0.00  0.00    +0.000 A 
ATOM      3  C   UNL     1       1.347   8.026  20.817  0.00  0.00    +0.000 A 
ATOM      4  C   UNL     1       2.072   7.425  19.784  0.00  0.00    +0.000 A 
ATOM      5  N   UNL     1       2.564   6.142  19.938  0.00  0.00    +0.000 N 
ATOM      6  C   UNL     1       3.782   5.751  19.232  0.00  0.00    +0.000 C 
ATOM      7  C   UNL     1       3.501   4.639  18.225  0.00  0.00    +0.000 C 
ATOM      8  C   UNL     1       2.737   3.459  18.852  0.00  0.00    +0.000 C 
ATOM      9  C   UNL     1       1.462   3.984  19.522  0.00  0.00    +0.000 C 
ATOM     10  C   UNL     1       1.747   5.093  20.539  0.00  0.00    +0.000 C 
ATOM     11  N   UNL     1       2.317   8.104  18.638  0.00  0.00    +0.000 NA
ATOM     12  C   UNL     1       1.802   9.355  18.492  0.00  0.00    +0.000 A 
ENDROOT
BRANCH   1  14
ATOM     13  O   UNL     1      -0.011  12.091  20.492  0.00  0.00    +0.000 OA
ATOM     14  S   UNL     1       0.345  11.570  19.189  0.00  0.00    +0.000 S 
ATOM     15  O   UNL     1       1.239  12.296  18.315  0.00  0.00    +0.000 OA
BRANCH  14  16
ATOM     16  N   UNL     1      -1.115  11.250  18.349  0.00  0.00    +0.000 NA
ATOM     17  C   UNL     1      -1.204   9.933  17.671  0.00  0.00    +0.000 C 
ATOM     18  C   UNL     1      -2.358   9.961  16.671  0.00  0.00    +0.000 C 
ATOM     19  C   UNL     1      -3.673  10.269  17.378  0.00  0.00    +0.000 C 
ATOM     20  C   UNL     1      -3.572  11.593  18.128  0.00  0.00    +0.000 C 
ATOM     21  C   UNL     1      -2.365  11.631  19.061  0.00  0.00    +0.000 C 
ENDBRANCH  14  16
ENDBRANCH   1  14
BRANCH   8  22
ATOM     22  C   UNL     1       3.594   2.650  19.837  0.00  0.00    +0.000 C 
BRANCH  22  23
ATOM     23  O   UNL     1       4.915   2.489  19.340  0.00  0.00    +0.000 OA
ATOM     24  H   UNL     1       4.980   2.989  18.508  0.00  0.00    +0.000 HD
ENDBRANCH  22  23
ENDBRANCH   8  22
TORSDOF 4
ENDMDL
MODEL 4
REMARK VINA RESULT:      -7.5      1.520      1.927
REMARK  Name = 
REMARK  4 active torsions:
REMARK  status: ('A' for Active; 'I' for Inactive)
REMARK    1  A    between atoms: S_2  and  C_4
REMARK    2  A    between atoms: S_2  and  N_18
REMARK    3  A    between atoms: C_11  and  C_12
REMARK    4  A    between atoms: C_12  and  O_13
REMARK                            x       y       z     vdW  Elec       q    Type
REMARK                         _______ _______ _______ _____ _____    ______ ____
ROOT
ATOM      1  C   UNL     1       2.513   6.336  19.074  0.00  0.00    +0.000 A 
ATOM      2  C   UNL     1       2.608   7.272  18.055  0.00  0.00    +0.000 A 
ATOM      3  C   UNL     1       2.086   8.546  18.263  0.00  0.00    +0.000 A 
ATOM      4  C   UNL     1       1.503   8.879  19.489  0.00  0.00    +0.000 A 
ATOM      5  N   UNL     1       0.968  10.139  19.683  0.00  0.00    +0.000 N 
ATOM      6  C   UNL     1       0.952  10.713  21.026  0.00  0.00    +0.000 C 
ATOM      7  C   UNL     1      -0.478  10.930  21.514  0.00  0.00    +0.000 C 
ATOM      8  C   UNL     1      -1.334  11.703  20.495  0.00  0.00    +0.000 C 
ATOM      9  C   UNL     1      -1.275  10.986  19.141  0.00  0.00    +0.000 C 
ATOM     10  C   UNL     1       0.160  10.777  18.649  0.00  0.00    +0.000 C 
ATOM     11  N   UNL     1       1.479   7.977  20.500  0.00  0.00    +0.000 NA
ATOM     12  C   UNL     1       1.985   6.733  20.283  0.00  0.00    +0.000 A 
ENDROOT
BRANCH   1  14
ATOM     13  O   UNL     1       3.240   4.104  20.152  0.00  0.00    +0.000 OA
ATOM     14  S   UNL     1       3.108   4.693  18.836  0.00  0.00    +0.000 S 
ATOM     15  O   UNL     1       2.295   4.069  17.818  0.00  0.00    +0.000 OA
BRANCH  14  16
ATOM     16  N   UNL     1       4.690   4.926  18.218  0.00  0.00    +0.000 NA
ATOM     17  C   UNL     1       5.767   5.096  19.224  0.00  0.00    +0.000 C 
ATOM     18  C   UNL     1       7.006   5.672  18.541  0.00  0.00    +0.000 C 
ATOM     19  C   UNL     1       7.481   4.748  17.426  0.00  0.00    +0.000 C 
ATOM     20  C   UNL     1       6.361   4.519  16.417  0.00  0.00    +0.000 C 
ATOM     21  C   UNL     1       5.077   4.039  17.087  0.00  0.00    +0.000 C 
ENDBRANCH  14  16
ENDBRANCH   1  14
BRANCH   8  22
ATOM     22  C   UNL     1      -0.921  13.176  20.366  0.00  0.00    +0.000 C 
BRANCH  22  23
ATOM     23  O   UNL     1      -1.491  13.759  19.202  0.00  0.00    +0.000 OA
ATOM     24  H   UNL     1      -0.808  14.312  18.784  0.00  0.00    +0.000 HD
ENDBRANCH  22  23
ENDBRANCH   8  22
TORSDOF 4
ENDMDL
MODEL 5
REMARK VINA RESULT:      -7.5      0.536      1.189
REMARK  Name = 
REMARK  4 active torsions:
REMARK  status: ('A' for Active; 'I' for Inactive)
REMARK    1  A    between atoms: S_2  and  C_4
REMARK    2  A    between atoms: S_2  and  N_18
REMARK    3  A    between atoms: C_11  and  C_12
REMARK    4  A    between atoms: C_12  and  O_13
REMARK                            x       y       z     vdW  Elec       q    Type
REMARK                         _______ _______ _______ _____ _____    ______ ____
ROOT
ATOM      1  C   UNL     1       2.851   5.481  18.608  0.00  0.00    +0.000 A 
ATOM      2  C   UNL     1       3.080   6.689  17.967  0.00  0.00    +0.000 A 
ATOM      3  C   UNL     1       2.599   7.859  18.550  0.00  0.00    +0.000 A 
ATOM      4  C   UNL     1       1.923   7.814  19.772  0.00  0.00    +0.000 A 
ATOM      5  N   UNL     1       1.430   8.976  20.336  0.00  0.00    +0.000 N 
ATOM      6  C   UNL     1       1.320   9.078  21.789  0.00  0.00    +0.000 C 
ATOM      7  C   UNL     1      -0.138   9.227  22.219  0.00  0.00    +0.000 C 
ATOM      8  C   UNL     1      -0.862  10.351  21.458  0.00  0.00    +0.000 C 
ATOM      9  C   UNL     1      -0.714  10.114  19.950  0.00  0.00    +0.000 C 
ATOM     10  C   UNL     1       0.749   9.974  19.518  0.00  0.00    +0.000 C 
ATOM     11  N   UNL     1       1.768   6.635  20.422  0.00  0.00    +0.000 NA
ATOM     12  C   UNL     1       2.234   5.497  19.840  0.00  0.00    +0.000 A 
ENDROOT
BRANCH   1  14
ATOM     13  O   UNL     1       3.878   3.137  18.961  0.00  0.00    +0.000 OA
ATOM     14  S   UNL     1       3.390   3.968  17.880  0.00  0.00    +0.000 S 
ATOM     15  O   UNL     1       2.345   3.502  16.996  0.00  0.00    +0.000 OA
BRANCH  14  16
ATOM     16  N   UNL     1       4.745   4.436  16.941  0.00  0.00    +0.000 NA
ATOM     17  C   UNL     1       6.022   4.609  17.675  0.00  0.00    +0.000 C 
ATOM     18  C   UNL     1       7.003   5.387  16.800  0.00  0.00    +0.000 C 
ATOM     19  C   UNL     1       7.256   4.647  15.492  0.00  0.00    +0.000 C 
ATOM     20  C   UNL     1       5.941   4.411  14.756  0.00  0.00    +0.000 C 
ATOM     21  C   UNL     1       4.905   3.725  15.643  0.00  0.00    +0.000 C 
ENDBRANCH  14  16
ENDBRANCH   1  14
BRANCH   8  22
ATOM     22  C   UNL     1      -0.373  11.751  21.854  0.00  0.00    +0.000 C 
BRANCH  22  23
ATOM     23  O   UNL     1      -0.674  12.024  23.216  0.00  0.00    +0.000 OA
ATOM     24  H   UNL     1      -1.610  11.799  23.361  0.00  0.00    +0.000 HD
ENDBRANCH  22  23
ENDBRANCH   8  22
TORSDOF 4
ENDMDL
MODEL 6
REMARK VINA RESULT:      -7.4      1.628      2.106
REMARK  Name = 
REMARK  4 active torsions:
REMARK  status: ('A' for Active; 'I' for Inactive)
REMARK    1  A    between atoms: S_2  and  C_4
REMARK    2  A    between atoms: S_2  and  N_18
REMARK    3  A    between atoms: C_11  and  C_12
REMARK    4  A    between atoms: C_12  and  O_13
REMARK                            x       y       z     vdW  Elec       q    Type
REMARK                         _______ _______ _______ _____ _____    ______ ____
ROOT
ATOM      1  C   UNL     1       3.516   5.893  18.597  0.00  0.00    +0.000 A 
ATOM      2  C   UNL     1       3.681   6.927  17.687  0.00  0.00    +0.000 A 
ATOM      3  C   UNL     1       2.954   8.100  17.867  0.00  0.00    +0.000 A 
ATOM      4  C   UNL     1       2.095   8.240  18.960  0.00  0.00    +0.000 A 
ATOM      5  N   UNL     1       1.360   9.399  19.122  0.00  0.00    +0.000 N 
ATOM      6  C   UNL     1       0.994   9.836  20.467  0.00  0.00    +0.000 C 
ATOM      7  C   UNL     1      -0.521   9.827  20.654  0.00  0.00    +0.000 C 
ATOM      8  C   UNL     1      -1.255  10.582  19.532  0.00  0.00    +0.000 C 
ATOM      9  C   UNL     1      -0.825  10.010  18.176  0.00  0.00    +0.000 C 
ATOM     10  C   UNL     1       0.694  10.029  17.986  0.00  0.00    +0.000 C 
ATOM     11  N   UNL     1       1.996   7.250  19.880  0.00  0.00    +0.000 NA
ATOM     12  C   UNL     1       2.705   6.104  19.691  0.00  0.00    +0.000 A 
ENDROOT
BRANCH   1  14
ATOM     13  O   UNL     1       5.307   4.253  19.480  0.00  0.00    +0.000 OA
ATOM     14  S   UNL     1       4.372   4.367  18.380  0.00  0.00    +0.000 S 
ATOM     15  O   UNL     1       3.389   3.337  18.128  0.00  0.00    +0.000 OA
BRANCH  14  16
ATOM     16  N   UNL     1       5.288   4.621  16.953  0.00  0.00    +0.000 NA
ATOM     17  C   UNL     1       6.759   4.689  17.124  0.00  0.00    +0.000 C 
ATOM     18  C   UNL     1       7.383   5.298  15.869  0.00  0.00    +0.000 C 
ATOM     19  C   UNL     1       7.043   4.459  14.642  0.00  0.00    +0.000 C 
ATOM     20  C   UNL     1       5.531   4.334  14.491  0.00  0.00    +0.000 C 
ATOM     21  C   UNL     1       4.870   3.823  15.768  0.00  0.00    +0.000 C 
ENDBRANCH  14  16
ENDBRANCH   1  14
BRANCH   8  22
ATOM     22  C   UNL     1      -1.036  12.100  19.593  0.00  0.00    +0.000 C 
BRANCH  22  23
ATOM     23  O   UNL     1      -1.756  12.755  18.559  0.00  0.00    +0.000 OA
ATOM     24  H   UNL     1      -1.525  13.700  18.591  0.00  0.00    +0.000 HD
ENDBRANCH  22  23
ENDBRANCH   8  22
TORSDOF 4
ENDMDL
MODEL 7
REMARK VINA RESULT:      -7.4      2.882      8.118
REMARK  Name = 
REMARK  4 active torsions:
REMARK  status: ('A' for Active; 'I' for Inactive)
REMARK    1  A    between atoms: S_2  and  C_4
REMARK    2  A    between atoms: S_2  and  N_18
REMARK    3  A    between atoms: C_11  and  C_12
REMARK    4  A    between atoms: C_12  and  O_13
REMARK                            x       y       z     vdW  Elec       q    Type
REMARK                         _______ _______ _______ _____ _____    ______ ____
ROOT
ATOM      1  C   UNL     1       1.622   8.383  19.918  0.00  0.00    +0.000 A 
ATOM      2  C   UNL     1       1.884   8.893  18.654  0.00  0.00    +0.000 A 
ATOM      3  C   UNL     1       2.707   8.169  17.797  0.00  0.00    +0.000 A 
ATOM      4  C   UNL     1       3.236   6.938  18.196  0.00  0.00    +0.000 A 
ATOM      5  N   UNL     1       4.069   6.233  17.348  0.00  0.00    +0.000 N 
ATOM      6  C   UNL     1       4.108   4.775  17.427  0.00  0.00    +0.000 C 
ATOM      7  C   UNL     1       5.488   4.284  17.856  0.00  0.00    +0.000 C 
ATOM      8  C   UNL     1       6.617   4.892  17.004  0.00  0.00    +0.000 C 
ATOM      9  C   UNL     1       6.500   6.421  17.031  0.00  0.00    +0.000 C 
ATOM     10  C   UNL     1       5.117   6.912  16.592  0.00  0.00    +0.000 C 
ATOM     11  N   UNL     1       2.916   6.419  19.405  0.00  0.00    +0.000 NA
ATOM     12  C   UNL     1       2.116   7.138  20.239  0.00  0.00    +0.000 A 
ENDROOT
BRANCH   1  14
ATOM     13  O   UNL     1      -0.597   8.545  21.231  0.00  0.00    +0.000 OA
ATOM     14  S   UNL     1       0.632   9.292  21.060  0.00  0.00    +0.000 S 
ATOM     15  O   UNL     1       1.461   9.634  22.193  0.00  0.00    +0.000 OA
BRANCH  14  16
ATOM     16  N   UNL     1       0.244  10.725  20.202  0.00  0.00    +0.000 NA
ATOM     17  C   UNL     1      -1.132  10.808  19.655  0.00  0.00    +0.000 C 
ATOM     18  C   UNL     1      -1.192  11.925  18.615  0.00  0.00    +0.000 C 
ATOM     19  C   UNL     1      -0.802  13.260  19.239  0.00  0.00    +0.000 C 
ATOM     20  C   UNL     1       0.589  13.168  19.857  0.00  0.00    +0.000 C 
ATOM     21  C   UNL     1       0.707  11.994  20.826  0.00  0.00    +0.000 C 
ENDBRANCH  14  16
ENDBRANCH   1  14
BRANCH   8  22
ATOM     22  C   UNL     1       6.632   4.358  15.565  0.00  0.00    +0.000 C 
BRANCH  22  23
ATOM     23  O   UNL     1       7.498   5.134  14.748  0.00  0.00    +0.000 OA
ATOM     24  H   UNL     1       8.054   4.517  14.240  0.00  0.00    +0.000 HD
ENDBRANCH  22  23
ENDBRANCH   8  22
TORSDOF 4
ENDMDL
MODEL 8
REMARK VINA RESULT:      -7.4      3.013      8.098
REMARK  Name = 
REMARK  4 active torsions:
REMARK  status: ('A' for Active; 'I' for Inactive)
REMARK    1  A    between atoms: S_2  and  C_4
REMARK    2  A    between atoms: S_2  and  N_18
REMARK    3  A    between atoms: C_11  and  C_12
REMARK    4  A    between atoms: C_12  and  O_13
REMARK                            x       y       z     vdW  Elec       q    Type
REMARK                         _______ _______ _______ _____ _____    ______ ____
ROOT
ATOM      1  C   UNL     1       1.439   9.662  19.164  0.00  0.00    +0.000 A 
ATOM      2  C   UNL     1       1.224   8.806  20.234  0.00  0.00    +0.000 A 
ATOM      3  C   UNL     1       1.699   7.500  20.154  0.00  0.00    +0.000 A 
ATOM      4  C   UNL     1       2.403   7.072  19.026  0.00  0.00    +0.000 A 
ATOM      5  N   UNL     1       2.855   5.768  18.943  0.00  0.00    +0.000 N 
ATOM      6  C   UNL     1       4.060   5.473  18.171  0.00  0.00    +0.000 C 
ATOM      7  C   UNL     1       3.743   4.570  16.982  0.00  0.00    +0.000 C 
ATOM      8  C   UNL     1       2.943   3.320  17.392  0.00  0.00    +0.000 C 
ATOM      9  C   UNL     1       1.685   3.756  18.153  0.00  0.00    +0.000 C 
ATOM     10  C   UNL     1       2.006   4.654  19.351  0.00  0.00    +0.000 C 
ATOM     11  N   UNL     1       2.669   7.939  18.019  0.00  0.00    +0.000 NA
ATOM     12  C   UNL     1       2.193   9.211  18.103  0.00  0.00    +0.000 A 
ENDROOT
BRANCH   1  14
ATOM     13  O   UNL     1       0.603  11.649  20.589  0.00  0.00    +0.000 OA
ATOM     14  S   UNL     1       0.807  11.308  19.196  0.00  0.00    +0.000 S 
ATOM     15  O   UNL     1       1.643  12.123  18.344  0.00  0.00    +0.000 OA
BRANCH  14  16
ATOM     16  N   UNL     1      -0.741  11.156  18.474  0.00  0.00    +0.000 NA
ATOM     17  C   UNL     1      -0.985   9.911  17.706  0.00  0.00    +0.000 C 
ATOM     18  C   UNL     1      -2.218  10.099  16.824  0.00  0.00    +0.000 C 
ATOM     19  C   UNL     1      -3.439  10.429  17.675  0.00  0.00    +0.000 C 
ATOM     20  C   UNL     1      -3.177  11.675  18.514  0.00  0.00    +0.000 C 
ATOM     21  C   UNL     1      -1.892  11.554  19.330  0.00  0.00    +0.000 C 
ENDBRANCH  14  16
ENDBRANCH   1  14
BRANCH   8  22
ATOM     22  C   UNL     1       3.775   2.322  18.209  0.00  0.00    +0.000 C 
BRANCH  22  23
ATOM     23  O   UNL     1       3.004   1.175  18.538  0.00  0.00    +0.000 OA
ATOM     24  H   UNL     1       3.432   0.740  19.297  0.00  0.00    +0.000 HD
ENDBRANCH  22  23
ENDBRANCH   8  22
TORSDOF 4
ENDMDL
MODEL 9
REMARK VINA RESULT:      -7.3      1.972      2.508
REMARK  Name = 
REMARK  4 active torsions:
REMARK  status: ('A' for Active; 'I' for Inactive)
REMARK    1  A    between atoms: S_2  and  C_4
REMARK    2  A    between atoms: S_2  and  N_18
REMARK    3  A    between atoms: C_11  and  C_12
REMARK    4  A    between atoms: C_12  and  O_13
REMARK                            x       y       z     vdW  Elec       q    Type
REMARK                         _______ _______ _______ _____ _____    ______ ____
ROOT
ATOM      1  C   UNL     1       2.309   7.188  19.066  0.00  0.00    +0.000 A 
ATOM      2  C   UNL     1       2.222   8.068  17.997  0.00  0.00    +0.000 A 
ATOM      3  C   UNL     1       1.618   9.307  18.196  0.00  0.00    +0.000 A 
ATOM      4  C   UNL     1       1.135   9.664  19.457  0.00  0.00    +0.000 A 
ATOM      5  N   UNL     1       0.519  10.887  19.644  0.00  0.00    +0.000 N 
ATOM      6  C   UNL     1       0.591  11.535  20.951  0.00  0.00    +0.000 C 
ATOM      7  C   UNL     1      -0.796  11.667  21.575  0.00  0.00    +0.000 C 
ATOM      8  C   UNL     1      -1.813  12.311  20.615  0.00  0.00    +0.000 C 
ATOM      9  C   UNL     1      -1.831  11.522  19.300  0.00  0.00    +0.000 C 
ATOM     10  C   UNL     1      -0.440  11.398  18.670  0.00  0.00    +0.000 C 
ATOM     11  N   UNL     1       1.290   8.824  20.509  0.00  0.00    +0.000 NA
ATOM     12  C   UNL     1       1.875   7.613  20.303  0.00  0.00    +0.000 A 
ENDROOT
BRANCH   1  14
ATOM     13  O   UNL     1       2.908   4.909  20.125  0.00  0.00    +0.000 OA
ATOM     14  S   UNL     1       3.013   5.586  18.849  0.00  0.00    +0.000 S 
ATOM     15  O   UNL     1       2.447   5.010  17.651  0.00  0.00    +0.000 OA
BRANCH  14  16
ATOM     16  N   UNL     1       4.675   5.912  18.578  0.00  0.00    +0.000 NA
ATOM     17  C   UNL     1       5.637   4.991  19.229  0.00  0.00    +0.000 C 
ATOM     18  C   UNL     1       7.026   5.628  19.221  0.00  0.00    +0.000 C 
ATOM     19  C   UNL     1       7.473   5.918  17.793  0.00  0.00    +0.000 C 
ATOM     20  C   UNL     1       6.459   6.817  17.094  0.00  0.00    +0.000 C 
ATOM     21  C   UNL     1       5.043   6.253  17.176  0.00  0.00    +0.000 C 
ENDBRANCH  14  16
ENDBRANCH   1  14
BRANCH   8  22
ATOM     22  C   UNL     1      -1.540  13.801  20.369  0.00  0.00    +0.000 C 
BRANCH  22  23
ATOM     23  O   UNL     1      -2.755  14.507  20.159  0.00  0.00    +0.000 OA
ATOM     24  H   UNL     1      -2.732  15.305  20.716  0.00  0.00    +0.000 HD
ENDBRANCH  22  23
ENDBRANCH   8  22
TORSDOF 4
ENDMDL
