MODEL 1
REMARK VINA RESULT:      -6.7      0.000      0.000
REMARK  Name = 
REMARK  9 active torsions:
REMARK  status: ('A' for Active; 'I' for Inactive)
REMARK    1  A    between atoms: C_1  and  C_2
REMARK    2  A    between atoms: C_5  and  N_6
REMARK    3  A    between atoms: C_8  and  C_9
REMARK    4  A    between atoms: C_9  and  C_10
REMARK    5  A    between atoms: C_9  and  C_11
REMARK    6  A    between atoms: C_9  and  C_12
REMARK    7  A    between atoms: C_14  and  N_15
REMARK    8  A    between atoms: C_21  and  C_22
REMARK    9  A    between atoms: C_22  and  O_23
REMARK                            x       y       z     vdW  Elec       q    Type
REMARK                         _______ _______ _______ _____ _____    ______ ____
ROOT
ATOM      1  N   UNL     1      -1.526  14.006  22.194  0.00  0.00    +0.000 N 
ATOM      2  N   UNL     1      -2.296  14.172  23.326  0.00  0.00    +0.000 NA
ATOM      3  C   UNL     1      -3.263  14.858  22.669  0.00  0.00    +0.000 A 
ATOM      4  C   UNL     1      -2.755  16.175  22.387  0.00  0.00    +0.000 A 
ATOM      5  C   UNL     1      -2.647  14.769  21.330  0.00  0.00    +0.000 A 
ENDROOT
BRANCH   5   6
ATOM      6  N   UNL     1      -3.612  13.312  21.142  0.00  0.00    +0.000 N 
ATOM      7  C   UNL     1      -4.795  12.564  20.735  0.00  0.00    +0.000 C 
ATOM      8  O   UNL     1      -5.692  12.434  21.584  0.00  0.00    +0.000 OA
ATOM      9  N   UNL     1      -4.984  11.730  19.617  0.00  0.00    +0.000 N 
ATOM     10  C   UNL     1      -4.133  11.552  18.558  0.00  0.00    +0.000 A 
ATOM     11  C   UNL     1      -4.324  10.614  17.535  0.00  0.00    +0.000 A 
ATOM     12  C   UNL     1      -3.178  10.784  16.765  0.00  0.00    +0.000 A 
ATOM     13  N   UNL     1      -2.504  11.826  17.363  0.00  0.00    +0.000 N 
ATOM     14  N   UNL     1      -3.048  12.247  18.476  0.00  0.00    +0.000 NA
ATOM     15  H   UNL     1      -4.290  13.537  21.942  0.00  0.00    +0.000 HD
ATOM     16  H   UNL     1      -5.806  11.148  19.678  0.00  0.00    +0.000 HD
ATOM     17  H   UNL     1      -1.653  12.160  16.968  0.00  0.00    +0.000 HD
BRANCH  12  18
ATOM     18  C   UNL     1      -2.620  10.165  15.566  0.00  0.00    +0.000 C 
BRANCH  18  19
ATOM     19  O   UNL     1      -3.293  10.765  14.467  0.00  0.00    +0.000 OA
ATOM     20  H   UNL     1      -2.993  11.690  14.441  0.00  0.00    +0.000 HD
ENDBRANCH  18  19
ENDBRANCH  12  18
ENDBRANCH   5   6
BRANCH   1  25
ATOM     21  C   UNL     1       0.333   8.439  21.435  0.00  0.00    +0.000 C 
ATOM     22  C   UNL     1      -0.087   9.851  21.619  0.00  0.00    +0.000 A 
ATOM     23  C   UNL     1       0.147  10.836  20.663  0.00  0.00    +0.000 A 
ATOM     24  C   UNL     1      -0.345  12.160  20.841  0.00  0.00    +0.000 A 
ATOM     25  C   UNL     1      -1.093  12.554  21.999  0.00  0.00    +0.000 A 
ATOM     26  C   UNL     1      -1.253  11.589  22.989  0.00  0.00    +0.000 A 
ATOM     27  C   UNL     1      -0.781  10.251  22.776  0.00  0.00    +0.000 A 
ENDBRANCH   1  25
BRANCH   3  28
ATOM     28  C   UNL     1      -4.783  15.199  23.370  0.00  0.00    +0.000 C 
ATOM     29  C   UNL     1      -5.346  13.934  24.095  0.00  0.00    +0.000 C 
ATOM     30  C   UNL     1      -4.570  16.286  24.483  0.00  0.00    +0.000 C 
ATOM     31  C   UNL     1      -5.911  15.708  22.470  0.00  0.00    +0.000 C 
ENDBRANCH   3  28
TORSDOF 5
ENDMDL
MODEL 2
REMARK VINA RESULT:      -6.6      1.108      1.247
REMARK  Name = 
REMARK  9 active torsions:
REMARK  status: ('A' for Active; 'I' for Inactive)
REMARK    1  A    between atoms: C_1  and  C_2
REMARK    2  A    between atoms: C_5  and  N_6
REMARK    3  A    between atoms: C_8  and  C_9
REMARK    4  A    between atoms: C_9  and  C_10
REMARK    5  A    between atoms: C_9  and  C_11
REMARK    6  A    between atoms: C_9  and  C_12
REMARK    7  A    between atoms: C_14  and  N_15
REMARK    8  A    between atoms: C_21  and  C_22
REMARK    9  A    between atoms: C_22  and  O_23
REMARK                            x       y       z     vdW  Elec       q    Type
REMARK                         _______ _______ _______ _____ _____    ______ ____
ROOT
ATOM      1  N   UNL     1      -2.983  14.367  22.233  0.00  0.00    +0.000 N 
ATOM      2  N   UNL     1      -3.883  14.396  23.278  0.00  0.00    +0.000 NA
ATOM      3  C   UNL     1      -4.904  14.822  22.496  0.00  0.00    +0.000 A 
ATOM      4  C   UNL     1      -4.672  16.210  22.186  0.00  0.00    +0.000 A 
ATOM      5  C   UNL     1      -4.150  14.826  21.226  0.00  0.00    +0.000 A 
ENDROOT
BRANCH   5   6
ATOM      6  N   UNL     1      -4.746  13.184  21.035  0.00  0.00    +0.000 N 
ATOM      7  C   UNL     1      -5.696  12.178  20.581  0.00  0.00    +0.000 C 
ATOM      8  O   UNL     1      -6.603  11.869  21.371  0.00  0.00    +0.000 OA
ATOM      9  N   UNL     1      -5.609  11.294  19.488  0.00  0.00    +0.000 N 
ATOM     10  C   UNL     1      -4.661  11.286  18.498  0.00  0.00    +0.000 A 
ATOM     11  C   UNL     1      -4.558  10.303  17.505  0.00  0.00    +0.000 A 
ATOM     12  C   UNL     1      -3.425  10.709  16.808  0.00  0.00    +0.000 A 
ATOM     13  N   UNL     1      -3.049  11.893  17.406  0.00  0.00    +0.000 N 
ATOM     14  N   UNL     1      -3.757  12.208  18.460  0.00  0.00    +0.000 NA
ATOM     15  H   UNL     1      -5.516  13.270  21.777  0.00  0.00    +0.000 HD
ATOM     16  H   UNL     1      -6.281  10.542  19.517  0.00  0.00    +0.000 HD
ATOM     17  H   UNL     1      -2.268  12.400  17.056  0.00  0.00    +0.000 HD
BRANCH  12  18
ATOM     18  C   UNL     1      -2.653  10.203  15.677  0.00  0.00    +0.000 C 
BRANCH  18  19
ATOM     19  O   UNL     1      -3.266  10.742  14.513  0.00  0.00    +0.000 OA
ATOM     20  H   UNL     1      -2.886  11.630  14.396  0.00  0.00    +0.000 HD
ENDBRANCH  18  19
ENDBRANCH  12  18
ENDBRANCH   5   6
BRANCH   1  25
ATOM     21  C   UNL     1       0.123   9.337  21.949  0.00  0.00    +0.000 C 
ATOM     22  C   UNL     1      -0.614  10.624  22.012  0.00  0.00    +0.000 A 
ATOM     23  C   UNL     1      -0.604  11.549  20.971  0.00  0.00    +0.000 A 
ATOM     24  C   UNL     1      -1.391  12.733  21.036  0.00  0.00    +0.000 A 
ATOM     25  C   UNL     1      -2.224  13.043  22.162  0.00  0.00    +0.000 A 
ATOM     26  C   UNL     1      -2.167  12.157  23.235  0.00  0.00    +0.000 A 
ATOM     27  C   UNL     1      -1.395  10.952  23.136  0.00  0.00    +0.000 A 
ENDBRANCH   1  25
BRANCH   3  28
ATOM     28  C   UNL     1      -6.526  14.838  23.033  0.00  0.00    +0.000 C 
ATOM     29  C   UNL     1      -6.819  13.585  23.920  0.00  0.00    +0.000 C 
ATOM     30  C   UNL     1      -6.715  16.089  23.963  0.00  0.00    +0.000 C 
ATOM     31  C   UNL     1      -7.645  14.891  21.992  0.00  0.00    +0.000 C 
ENDBRANCH   3  28
TORSDOF 5
ENDMDL
MODEL 3
REMARK VINA RESULT:      -6.5      2.138      2.969
REMARK  Name = 
REMARK  9 active torsions:
REMARK  status: ('A' for Active; 'I' for Inactive)
REMARK    1  A    between atoms: C_1  and  C_2
REMARK    2  A    between atoms: C_5  and  N_6
REMARK    3  A    between atoms: C_8  and  C_9
REMARK    4  A    between atoms: C_9  and  C_10
REMARK    5  A    between atoms: C_9  and  C_11
REMARK    6  A    between atoms: C_9  and  C_12
REMARK    7  A    between atoms: C_14  and  N_15
REMARK    8  A    between atoms: C_21  and  C_22
REMARK    9  A    between atoms: C_22  and  O_23
REMARK                            x       y       z     vdW  Elec       q    Type
REMARK                         _______ _______ _______ _____ _____    ______ ____
ROOT
ATOM      1  N   UNL     1       1.042  13.540  20.126  0.00  0.00    +0.000 N 
ATOM      2  N   UNL     1       0.946  13.643  21.498  0.00  0.00    +0.000 NA
ATOM      3  C   UNL     1      -0.119  14.479  21.445  0.00  0.00    +0.000 A 
ATOM      4  C   UNL     1       0.357  15.771  21.023  0.00  0.00    +0.000 A 
ATOM      5  C   UNL     1      -0.246  14.489  19.973  0.00  0.00    +0.000 A 
ENDROOT
BRANCH   5   6
ATOM      6  N   UNL     1      -1.363  13.152  20.206  0.00  0.00    +0.000 N 
ATOM      7  C   UNL     1      -2.684  12.546  20.298  0.00  0.00    +0.000 C 
ATOM      8  O   UNL     1      -3.202  12.505  21.426  0.00  0.00    +0.000 OA
ATOM      9  N   UNL     1      -3.373  11.755  19.358  0.00  0.00    +0.000 N 
ATOM     10  C   UNL     1      -3.010  11.499  18.061  0.00  0.00    +0.000 A 
ATOM     11  C   UNL     1      -3.675  10.602  17.214  0.00  0.00    +0.000 A 
ATOM     12  C   UNL     1      -2.894  10.655  16.063  0.00  0.00    +0.000 A 
ATOM     13  N   UNL     1      -1.935  11.608  16.332  0.00  0.00    +0.000 N 
ATOM     14  N   UNL     1      -1.968  12.070  17.556  0.00  0.00    +0.000 NA
ATOM     15  H   UNL     1      -1.659  13.439  21.196  0.00  0.00    +0.000 HD
ATOM     16  H   UNL     1      -4.168  11.267  19.741  0.00  0.00    +0.000 HD
ATOM     17  H   UNL     1      -1.266  11.850  15.636  0.00  0.00    +0.000 HD
BRANCH  12  18
ATOM     18  C   UNL     1      -2.902   9.996  14.761  0.00  0.00    +0.000 C 
BRANCH  18  19
ATOM     19  O   UNL     1      -4.250  10.037  14.311  0.00  0.00    +0.000 OA
ATOM     20  H   UNL     1      -4.715  10.648  14.908  0.00  0.00    +0.000 HD
ENDBRANCH  18  19
ENDBRANCH  12  18
ENDBRANCH   5   6
BRANCH   1  25
ATOM     21  C   UNL     1       1.582   7.930  18.320  0.00  0.00    +0.000 C 
ATOM     22  C   UNL     1       1.495   9.344  18.766  0.00  0.00    +0.000 A 
ATOM     23  C   UNL     1       1.914  10.409  17.974  0.00  0.00    +0.000 A 
ATOM     24  C   UNL     1       1.736  11.755  18.404  0.00  0.00    +0.000 A 
ATOM     25  C   UNL     1       1.132  12.088  19.662  0.00  0.00    +0.000 A 
ATOM     26  C   UNL     1       0.791  11.018  20.486  0.00  0.00    +0.000 A 
ATOM     27  C   UNL     1       0.945   9.670  20.019  0.00  0.00    +0.000 A 
ENDBRANCH   1  25
BRANCH   3  28
ATOM     28  C   UNL     1      -1.050  14.868  22.823  0.00  0.00    +0.000 C 
ATOM     29  C   UNL     1      -2.424  15.479  22.399  0.00  0.00    +0.000 C 
ATOM     30  C   UNL     1      -1.377  13.531  23.579  0.00  0.00    +0.000 C 
ATOM     31  C   UNL     1      -0.463  15.826  23.861  0.00  0.00    +0.000 C 
ENDBRANCH   3  28
TORSDOF 5
ENDMDL
MODEL 4
REMARK VINA RESULT:      -6.4      2.782      5.514
REMARK  Name = 
REMARK  9 active torsions:
REMARK  status: ('A' for Active; 'I' for Inactive)
REMARK    1  A    between atoms: C_1  and  C_2
REMARK    2  A    between atoms: C_5  and  N_6
REMARK    3  A    between atoms: C_8  and  C_9
REMARK    4  A    between atoms: C_9  and  C_10
REMARK    5  A    between atoms: C_9  and  C_11
REMARK    6  A    between atoms: C_9  and  C_12
REMARK    7  A    between atoms: C_14  and  N_15
REMARK    8  A    between atoms: C_21  and  C_22
REMARK    9  A    between atoms: C_22  and  O_23
REMARK                            x       y       z     vdW  Elec       q    Type
REMARK                         _______ _______ _______ _____ _____    ______ ____
ROOT
ATOM      1  N   UNL     1      -0.576  12.913  21.761  0.00  0.00    +0.000 N 
ATOM      2  N   UNL     1       0.533  12.097  21.684  0.00  0.00    +0.000 NA
ATOM      3  C   UNL     1      -0.201  10.958  21.704  0.00  0.00    +0.000 A 
ATOM      4  C   UNL     1      -0.689  10.771  23.046  0.00  0.00    +0.000 A 
ATOM      5  C   UNL     1      -1.523  11.614  21.742  0.00  0.00    +0.000 A 
ENDROOT
BRANCH   5   6
ATOM      6  N   UNL     1      -1.469  11.498  19.989  0.00  0.00    +0.000 N 
ATOM      7  C   UNL     1      -1.625  10.811  18.713  0.00  0.00    +0.000 C 
ATOM      8  O   UNL     1      -0.626  10.220  18.272  0.00  0.00    +0.000 OA
ATOM      9  N   UNL     1      -2.653  10.923  17.757  0.00  0.00    +0.000 N 
ATOM     10  C   UNL     1      -3.836  11.603  17.883  0.00  0.00    +0.000 A 
ATOM     11  C   UNL     1      -4.764  11.780  16.848  0.00  0.00    +0.000 A 
ATOM     12  C   UNL     1      -5.732  12.573  17.456  0.00  0.00    +0.000 A 
ATOM     13  N   UNL     1      -5.312  12.702  18.762  0.00  0.00    +0.000 N 
ATOM     14  N   UNL     1      -4.141  12.170  19.003  0.00  0.00    +0.000 NA
ATOM     15  H   UNL     1      -0.574  10.909  19.955  0.00  0.00    +0.000 HD
ATOM     16  H   UNL     1      -2.421  10.522  16.861  0.00  0.00    +0.000 HD
ATOM     17  H   UNL     1      -5.865  13.210  19.415  0.00  0.00    +0.000 HD
BRANCH  12  18
ATOM     18  C   UNL     1      -6.980  13.205  17.040  0.00  0.00    +0.000 C 
BRANCH  18  19
ATOM     19  O   UNL     1      -6.605  14.360  16.300  0.00  0.00    +0.000 OA
ATOM     20  H   UNL     1      -7.107  14.319  15.467  0.00  0.00    +0.000 HD
ENDBRANCH  18  19
ENDBRANCH  12  18
ENDBRANCH   5   6
BRANCH   1  25
ATOM     21  C   UNL     1      -0.480  17.298  17.787  0.00  0.00    +0.000 C 
ATOM     22  C   UNL     1      -0.504  16.232  18.820  0.00  0.00    +0.000 A 
ATOM     23  C   UNL     1      -1.481  16.163  19.809  0.00  0.00    +0.000 A 
ATOM     24  C   UNL     1      -1.516  15.078  20.730  0.00  0.00    +0.000 A 
ATOM     25  C   UNL     1      -0.558  14.011  20.699  0.00  0.00    +0.000 A 
ATOM     26  C   UNL     1       0.466  14.127  19.763  0.00  0.00    +0.000 A 
ATOM     27  C   UNL     1       0.464  15.210  18.821  0.00  0.00    +0.000 A 
ENDBRANCH   1  25
BRANCH   3  28
ATOM     28  C   UNL     1       0.470   9.428  21.347  0.00  0.00    +0.000 C 
ATOM     29  C   UNL     1       1.506   9.017  22.443  0.00  0.00    +0.000 C 
ATOM     30  C   UNL     1      -0.684   8.365  21.414  0.00  0.00    +0.000 C 
ATOM     31  C   UNL     1       1.174   9.228  20.004  0.00  0.00    +0.000 C 
ENDBRANCH   3  28
TORSDOF 5
ENDMDL
MODEL 5
REMARK VINA RESULT:      -6.3      0.700      1.169
REMARK  Name = 
REMARK  9 active torsions:
REMARK  status: ('A' for Active; 'I' for Inactive)
REMARK    1  A    between atoms: C_1  and  C_2
REMARK    2  A    between atoms: C_5  and  N_6
REMARK    3  A    between atoms: C_8  and  C_9
REMARK    4  A    between atoms: C_9  and  C_10
REMARK    5  A    between atoms: C_9  and  C_11
REMARK    6  A    between atoms: C_9  and  C_12
REMARK    7  A    between atoms: C_14  and  N_15
REMARK    8  A    between atoms: C_21  and  C_22
REMARK    9  A    between atoms: C_22  and  O_23
REMARK                            x       y       z     vdW  Elec       q    Type
REMARK                         _______ _______ _______ _____ _____    ______ ____
ROOT
ATOM      1  N   UNL     1      -0.875  14.076  21.698  0.00  0.00    +0.000 N 
ATOM      2  N   UNL     1      -1.615  14.432  22.806  0.00  0.00    +0.000 NA
ATOM      3  C   UNL     1      -2.518  15.135  22.080  0.00  0.00    +0.000 A 
ATOM      4  C   UNL     1      -1.889  16.361  21.662  0.00  0.00    +0.000 A 
ATOM      5  C   UNL     1      -1.926  14.848  20.758  0.00  0.00    +0.000 A 
ENDROOT
BRANCH   5   6
ATOM      6  N   UNL     1      -3.028  13.479  20.724  0.00  0.00    +0.000 N 
ATOM      7  C   UNL     1      -4.289  12.817  20.419  0.00  0.00    +0.000 C 
ATOM      8  O   UNL     1      -5.160  12.841  21.304  0.00  0.00    +0.000 OA
ATOM      9  N   UNL     1      -4.600  11.918  19.380  0.00  0.00    +0.000 N 
ATOM     10  C   UNL     1      -3.812  11.576  18.312  0.00  0.00    +0.000 A 
ATOM     11  C   UNL     1      -4.129  10.582  17.378  0.00  0.00    +0.000 A 
ATOM     12  C   UNL     1      -3.004  10.581  16.559  0.00  0.00    +0.000 A 
ATOM     13  N   UNL     1      -2.213  11.599  17.046  0.00  0.00    +0.000 N 
ATOM     14  N   UNL     1      -2.671  12.157  18.138  0.00  0.00    +0.000 NA
ATOM     15  H   UNL     1      -3.650  13.830  21.523  0.00  0.00    +0.000 HD
ATOM     16  H   UNL     1      -5.468  11.423  19.516  0.00  0.00    +0.000 HD
ATOM     17  H   UNL     1      -1.352  11.818  16.598  0.00  0.00    +0.000 HD
BRANCH  12  18
ATOM     18  C   UNL     1      -2.554   9.818  15.399  0.00  0.00    +0.000 C 
BRANCH  18  19
ATOM     19  O   UNL     1      -3.366  10.244  14.313  0.00  0.00    +0.000 OA
ATOM     20  H   UNL     1      -2.761  10.651  13.668  0.00  0.00    +0.000 HD
ENDBRANCH  18  19
ENDBRANCH  12  18
ENDBRANCH   5   6
BRANCH   1  25
ATOM     21  C   UNL     1       0.059   8.233  21.554  0.00  0.00    +0.000 C 
ATOM     22  C   UNL     1      -0.223   9.690  21.600  0.00  0.00    +0.000 A 
ATOM     23  C   UNL     1      -0.782  10.313  22.713  0.00  0.00    +0.000 A 
ATOM     24  C   UNL     1      -0.959  11.726  22.748  0.00  0.00    +0.000 A 
ATOM     25  C   UNL     1      -0.585  12.577  21.656  0.00  0.00    +0.000 A 
ATOM     26  C   UNL     1      -0.104  11.941  20.514  0.00  0.00    +0.000 A 
ATOM     27  C   UNL     1       0.100  10.520  20.511  0.00  0.00    +0.000 A 
ENDBRANCH   1  25
BRANCH   3  28
ATOM     28  C   UNL     1      -3.992  15.691  22.740  0.00  0.00    +0.000 C 
ATOM     29  C   UNL     1      -4.602  14.617  23.697  0.00  0.00    +0.000 C 
ATOM     30  C   UNL     1      -3.680  16.947  23.632  0.00  0.00    +0.000 C 
ATOM     31  C   UNL     1      -5.118  16.099  21.788  0.00  0.00    +0.000 C 
ENDBRANCH   3  28
TORSDOF 5
ENDMDL
MODEL 6
REMARK VINA RESULT:      -6.3     10.216     13.442
REMARK  Name = 
REMARK  9 active torsions:
REMARK  status: ('A' for Active; 'I' for Inactive)
REMARK    1  A    between atoms: C_1  and  C_2
REMARK    2  A    between atoms: C_5  and  N_6
REMARK    3  A    between atoms: C_8  and  C_9
REMARK    4  A    between atoms: C_9  and  C_10
REMARK    5  A    between atoms: C_9  and  C_11
REMARK    6  A    between atoms: C_9  and  C_12
REMARK    7  A    between atoms: C_14  and  N_15
REMARK    8  A    between atoms: C_21  and  C_22
REMARK    9  A    between atoms: C_22  and  O_23
REMARK                            x       y       z     vdW  Elec       q    Type
REMARK                         _______ _______ _______ _____ _____    ______ ____
ROOT
ATOM      1  N   UNL     1       9.182  15.323  19.803  0.00  0.00    +0.000 N 
ATOM      2  N   UNL     1       9.375  14.601  18.644  0.00  0.00    +0.000 NA
ATOM      3  C   UNL     1      10.434  13.920  19.146  0.00  0.00    +0.000 A 
ATOM      4  C   UNL     1      11.555  14.822  19.195  0.00  0.00    +0.000 A 
ATOM      5  C   UNL     1      10.398  14.527  20.492  0.00  0.00    +0.000 A 
ENDROOT
BRANCH   5   6
ATOM      6  N   UNL     1       9.373  13.164  20.920  0.00  0.00    +0.000 N 
ATOM      7  C   UNL     1       9.118  11.818  21.415  0.00  0.00    +0.000 C 
ATOM      8  O   UNL     1       9.102  10.907  20.571  0.00  0.00    +0.000 OA
ATOM      9  N   UNL     1       8.623  11.404  22.666  0.00  0.00    +0.000 N 
ATOM     10  C   UNL     1       8.408  12.181  23.774  0.00  0.00    +0.000 A 
ATOM     11  C   UNL     1       7.796  11.732  24.952  0.00  0.00    +0.000 A 
ATOM     12  C   UNL     1       7.758  12.890  25.722  0.00  0.00    +0.000 A 
ATOM     13  N   UNL     1       8.404  13.840  24.961  0.00  0.00    +0.000 N 
ATOM     14  N   UNL     1       8.741  13.429  23.765  0.00  0.00    +0.000 NA
ATOM     15  H   UNL     1       9.630  12.573  20.064  0.00  0.00    +0.000 HD
ATOM     16  H   UNL     1       8.319  10.442  22.685  0.00  0.00    +0.000 HD
ATOM     17  H   UNL     1       8.534  14.759  25.318  0.00  0.00    +0.000 HD
BRANCH  12  18
ATOM     18  C   UNL     1       7.251  13.255  27.041  0.00  0.00    +0.000 C 
BRANCH  18  19
ATOM     19  O   UNL     1       7.635  12.200  27.913  0.00  0.00    +0.000 OA
ATOM     20  H   UNL     1       6.844  11.643  28.025  0.00  0.00    +0.000 HD
ENDBRANCH  18  19
ENDBRANCH  12  18
ENDBRANCH   5   6
BRANCH   1  25
ATOM     21  C   UNL     1       3.552  15.386  21.628  0.00  0.00    +0.000 C 
ATOM     22  C   UNL     1       4.969  15.418  21.183  0.00  0.00    +0.000 A 
ATOM     23  C   UNL     1       6.012  15.798  22.022  0.00  0.00    +0.000 A 
ATOM     24  C   UNL     1       7.365  15.734  21.582  0.00  0.00    +0.000 A 
ATOM     25  C   UNL     1       7.727  15.290  20.267  0.00  0.00    +0.000 A 
ATOM     26  C   UNL     1       6.675  14.991  19.404  0.00  0.00    +0.000 A 
ATOM     27  C   UNL     1       5.321  15.027  19.878  0.00  0.00    +0.000 A 
ENDBRANCH   1  25
BRANCH   3  28
ATOM     28  C   UNL     1      11.101  12.555  18.364  0.00  0.00    +0.000 C 
ATOM     29  C   UNL     1      11.916  12.993  17.104  0.00  0.00    +0.000 C 
ATOM     30  C   UNL     1      12.132  11.891  19.345  0.00  0.00    +0.000 C 
ATOM     31  C   UNL     1      10.162  11.443  17.894  0.00  0.00    +0.000 C 
ENDBRANCH   3  28
TORSDOF 5
ENDMDL
MODEL 7
REMARK VINA RESULT:      -6.3      1.254      1.583
REMARK  Name = 
REMARK  9 active torsions:
REMARK  status: ('A' for Active; 'I' for Inactive)
REMARK    1  A    between atoms: C_1  and  C_2
REMARK    2  A    between atoms: C_5  and  N_6
REMARK    3  A    between atoms: C_8  and  C_9
REMARK    4  A    between atoms: C_9  and  C_10
REMARK    5  A    between atoms: C_9  and  C_11
REMARK    6  A    between atoms: C_9  and  C_12
REMARK    7  A    between atoms: C_14  and  N_15
REMARK    8  A    between atoms: C_21  and  C_22
REMARK    9  A    between atoms: C_22  and  O_23
REMARK                            x       y       z     vdW  Elec       q    Type
REMARK                         _______ _______ _______ _____ _____    ______ ____
ROOT
ATOM      1  N   UNL     1      -0.071  13.567  21.131  0.00  0.00    +0.000 N 
ATOM      2  N   UNL     1      -0.746  14.058  22.230  0.00  0.00    +0.000 NA
ATOM      3  C   UNL     1      -1.572  14.830  21.482  0.00  0.00    +0.000 A 
ATOM      4  C   UNL     1      -0.809  15.953  21.000  0.00  0.00    +0.000 A 
ATOM      5  C   UNL     1      -1.039  14.416  20.168  0.00  0.00    +0.000 A 
ENDROOT
BRANCH   5   6
ATOM      6  N   UNL     1      -2.295  13.187  20.209  0.00  0.00    +0.000 N 
ATOM      7  C   UNL     1      -3.657  12.696  20.043  0.00  0.00    +0.000 C 
ATOM      8  O   UNL     1      -4.397  12.756  21.039  0.00  0.00    +0.000 OA
ATOM      9  N   UNL     1      -4.206  11.915  19.008  0.00  0.00    +0.000 N 
ATOM     10  C   UNL     1      -3.610  11.562  17.826  0.00  0.00    +0.000 A 
ATOM     11  C   UNL     1      -4.164  10.679  16.890  0.00  0.00    +0.000 A 
ATOM     12  C   UNL     1      -3.163  10.608  15.927  0.00  0.00    +0.000 A 
ATOM     13  N   UNL     1      -2.198  11.492  16.357  0.00  0.00    +0.000 N 
ATOM     14  N   UNL     1      -2.439  12.020  17.529  0.00  0.00    +0.000 NA
ATOM     15  H   UNL     1      -2.761  13.549  21.104  0.00  0.00    +0.000 HD
ATOM     16  H   UNL     1      -5.104  11.513  19.234  0.00  0.00    +0.000 HD
ATOM     17  H   UNL     1      -1.381  11.643  15.808  0.00  0.00    +0.000 HD
BRANCH  12  18
ATOM     18  C   UNL     1      -2.963   9.883  14.676  0.00  0.00    +0.000 C 
BRANCH  18  19
ATOM     19  O   UNL     1      -4.221   9.892  14.014  0.00  0.00    +0.000 OA
ATOM     20  H   UNL     1      -4.369   8.980  13.707  0.00  0.00    +0.000 HD
ENDBRANCH  18  19
ENDBRANCH  12  18
ENDBRANCH   5   6
BRANCH   1  25
ATOM     21  C   UNL     1       0.548   7.682  21.228  0.00  0.00    +0.000 C 
ATOM     22  C   UNL     1       0.442   9.163  21.198  0.00  0.00    +0.000 A 
ATOM     23  C   UNL     1       0.919   9.930  20.140  0.00  0.00    +0.000 A 
ATOM     24  C   UNL     1       0.723  11.340  20.110  0.00  0.00    +0.000 A 
ATOM     25  C   UNL     1       0.039  12.044  21.156  0.00  0.00    +0.000 A 
ATOM     26  C   UNL     1      -0.363  11.284  22.252  0.00  0.00    +0.000 A 
ATOM     27  C   UNL     1      -0.188   9.860  22.246  0.00  0.00    +0.000 A 
ENDBRANCH   1  25
BRANCH   3  28
ATOM     28  C   UNL     1      -2.959  15.586  22.131  0.00  0.00    +0.000 C 
ATOM     29  C   UNL     1      -3.639  14.662  23.192  0.00  0.00    +0.000 C 
ATOM     30  C   UNL     1      -2.492  16.872  22.904  0.00  0.00    +0.000 C 
ATOM     31  C   UNL     1      -4.072  16.027  21.179  0.00  0.00    +0.000 C 
ENDBRANCH   3  28
TORSDOF 5
ENDMDL
MODEL 8
REMARK VINA RESULT:      -6.2     10.364     13.532
REMARK  Name = 
REMARK  9 active torsions:
REMARK  status: ('A' for Active; 'I' for Inactive)
REMARK    1  A    between atoms: C_1  and  C_2
REMARK    2  A    between atoms: C_5  and  N_6
REMARK    3  A    between atoms: C_8  and  C_9
REMARK    4  A    between atoms: C_9  and  C_10
REMARK    5  A    between atoms: C_9  and  C_11
REMARK    6  A    between atoms: C_9  and  C_12
REMARK    7  A    between atoms: C_14  and  N_15
REMARK    8  A    between atoms: C_21  and  C_22
REMARK    9  A    between atoms: C_22  and  O_23
REMARK                            x       y       z     vdW  Elec       q    Type
REMARK                         _______ _______ _______ _____ _____    ______ ____
ROOT
ATOM      1  N   UNL     1       9.688  15.370  20.242  0.00  0.00    +0.000 N 
ATOM      2  N   UNL     1       9.782  14.803  18.987  0.00  0.00    +0.000 NA
ATOM      3  C   UNL     1      10.745  13.927  19.365  0.00  0.00    +0.000 A 
ATOM      4  C   UNL     1      11.974  14.663  19.517  0.00  0.00    +0.000 A 
ATOM      5  C   UNL     1      10.792  14.335  20.783  0.00  0.00    +0.000 A 
ENDROOT
BRANCH   5   6
ATOM      6  N   UNL     1       9.600  13.067  21.036  0.00  0.00    +0.000 N 
ATOM      7  C   UNL     1       9.168  11.731  21.423  0.00  0.00    +0.000 C 
ATOM      8  O   UNL     1       9.139  10.872  20.526  0.00  0.00    +0.000 OA
ATOM      9  N   UNL     1       8.519  11.307  22.598  0.00  0.00    +0.000 N 
ATOM     10  C   UNL     1       8.281  12.043  23.730  0.00  0.00    +0.000 A 
ATOM     11  C   UNL     1       7.520  11.600  24.820  0.00  0.00    +0.000 A 
ATOM     12  C   UNL     1       7.527  12.713  25.653  0.00  0.00    +0.000 A 
ATOM     13  N   UNL     1       8.333  13.628  25.011  0.00  0.00    +0.000 N 
ATOM     14  N   UNL     1       8.737  13.247  23.826  0.00  0.00    +0.000 NA
ATOM     15  H   UNL     1       9.875  12.497  20.171  0.00  0.00    +0.000 HD
ATOM     16  H   UNL     1       8.120  10.382  22.532  0.00  0.00    +0.000 HD
ATOM     17  H   UNL     1       8.521  14.509  25.434  0.00  0.00    +0.000 HD
BRANCH  12  18
ATOM     18  C   UNL     1       6.939  13.060  26.943  0.00  0.00    +0.000 C 
BRANCH  18  19
ATOM     19  O   UNL     1       7.687  12.346  27.918  0.00  0.00    +0.000 OA
ATOM     20  H   UNL     1       8.528  12.109  27.491  0.00  0.00    +0.000 HD
ENDBRANCH  18  19
ENDBRANCH  12  18
ENDBRANCH   5   6
BRANCH   1  25
ATOM     21  C   UNL     1       4.077  15.516  22.118  0.00  0.00    +0.000 C 
ATOM     22  C   UNL     1       5.480  15.431  21.640  0.00  0.00    +0.000 A 
ATOM     23  C   UNL     1       5.821  14.908  20.395  0.00  0.00    +0.000 A 
ATOM     24  C   UNL     1       7.170  14.921  19.941  0.00  0.00    +0.000 A 
ATOM     25  C   UNL     1       8.242  15.457  20.727  0.00  0.00    +0.000 A 
ATOM     26  C   UNL     1       7.910  15.902  22.004  0.00  0.00    +0.000 A 
ATOM     27  C   UNL     1       6.539  15.913  22.430  0.00  0.00    +0.000 A 
ENDBRANCH   1  25
BRANCH   3  28
ATOM     28  C   UNL     1      11.228  12.616  18.382  0.00  0.00    +0.000 C 
ATOM     29  C   UNL     1      12.065  13.124  17.165  0.00  0.00    +0.000 C 
ATOM     30  C   UNL     1      12.189  11.706  19.228  0.00  0.00    +0.000 C 
ATOM     31  C   UNL     1      10.152  11.696  17.801  0.00  0.00    +0.000 C 
ENDBRANCH   3  28
TORSDOF 5
ENDMDL
MODEL 9
REMARK VINA RESULT:      -6.2      2.001      2.640
REMARK  Name = 
REMARK  9 active torsions:
REMARK  status: ('A' for Active; 'I' for Inactive)
REMARK    1  A    between atoms: C_1  and  C_2
REMARK    2  A    between atoms: C_5  and  N_6
REMARK    3  A    between atoms: C_8  and  C_9
REMARK    4  A    between atoms: C_9  and  C_10
REMARK    5  A    between atoms: C_9  and  C_11
REMARK    6  A    between atoms: C_9  and  C_12
REMARK    7  A    between atoms: C_14  and  N_15
REMARK    8  A    between atoms: C_21  and  C_22
REMARK    9  A    between atoms: C_22  and  O_23
REMARK                            x       y       z     vdW  Elec       q    Type
REMARK                         _______ _______ _______ _____ _____    ______ ____
ROOT
ATOM      1  N   UNL     1       0.742  14.165  20.224  0.00  0.00    +0.000 N 
ATOM      2  N   UNL     1       0.717  14.280  21.598  0.00  0.00    +0.000 NA
ATOM      3  C   UNL     1      -0.407  15.037  21.598  0.00  0.00    +0.000 A 
ATOM      4  C   UNL     1      -0.052  16.354  21.137  0.00  0.00    +0.000 A 
ATOM      5  C   UNL     1      -0.619  15.017  20.137  0.00  0.00    +0.000 A 
ENDROOT
BRANCH   5   6
ATOM      6  N   UNL     1      -1.620  13.606  20.448  0.00  0.00    +0.000 N 
ATOM      7  C   UNL     1      -2.885  12.888  20.539  0.00  0.00    +0.000 C 
ATOM      8  O   UNL     1      -3.455  12.901  21.642  0.00  0.00    +0.000 OA
ATOM      9  N   UNL     1      -3.449  11.953  19.650  0.00  0.00    +0.000 N 
ATOM     10  C   UNL     1      -2.997  11.615  18.401  0.00  0.00    +0.000 A 
ATOM     11  C   UNL     1      -3.532  10.587  17.615  0.00  0.00    +0.000 A 
ATOM     12  C   UNL     1      -2.701  10.608  16.500  0.00  0.00    +0.000 A 
ATOM     13  N   UNL     1      -1.847  11.668  16.718  0.00  0.00    +0.000 N 
ATOM     14  N   UNL     1      -1.986  12.235  17.889  0.00  0.00    +0.000 NA
ATOM     15  H   UNL     1      -1.992  13.953  21.392  0.00  0.00    +0.000 HD
ATOM     16  H   UNL     1      -4.215  11.429  20.044  0.00  0.00    +0.000 HD
ATOM     17  H   UNL     1      -1.168  11.909  16.032  0.00  0.00    +0.000 HD
BRANCH  12  18
ATOM     18  C   UNL     1      -2.581   9.836  15.267  0.00  0.00    +0.000 C 
BRANCH  18  19
ATOM     19  O   UNL     1      -3.647  10.266  14.431  0.00  0.00    +0.000 OA
ATOM     20  H   UNL     1      -3.255  10.419  13.554  0.00  0.00    +0.000 HD
ENDBRANCH  18  19
ENDBRANCH  12  18
ENDBRANCH   5   6
BRANCH   1  25
ATOM     21  C   UNL     1       1.583   8.577  18.467  0.00  0.00    +0.000 C 
ATOM     22  C   UNL     1       1.421   9.987  18.903  0.00  0.00    +0.000 A 
ATOM     23  C   UNL     1       1.845  11.066  18.133  0.00  0.00    +0.000 A 
ATOM     24  C   UNL     1       1.596  12.405  18.549  0.00  0.00    +0.000 A 
ATOM     25  C   UNL     1       0.909  12.717  19.769  0.00  0.00    +0.000 A 
ATOM     26  C   UNL     1       0.561  11.636  20.576  0.00  0.00    +0.000 A 
ATOM     27  C   UNL     1       0.790  10.294  20.123  0.00  0.00    +0.000 A 
ENDBRANCH   1  25
BRANCH   3  28
ATOM     28  C   UNL     1      -1.283  15.377  23.025  0.00  0.00    +0.000 C 
ATOM     29  C   UNL     1      -1.409  14.094  23.908  0.00  0.00    +0.000 C 
ATOM     30  C   UNL     1      -0.452  16.410  23.868  0.00  0.00    +0.000 C 
ATOM     31  C   UNL     1      -2.697  15.948  22.902  0.00  0.00    +0.000 C 
ENDBRANCH   3  28
TORSDOF 5
ENDMDL
