MODEL 1
REMARK VINA RESULT:      -6.4      0.000      0.000
REMARK  Name = 
REMARK  11 active torsions:
REMARK  status: ('A' for Active; 'I' for Inactive)
REMARK    1  A    between atoms: C_1  and  O_2
REMARK    2  A    between atoms: O_2  and  P_3
REMARK    3  A    between atoms: P_3  and  O_5
REMARK    4  A    between atoms: P_3  and  C_7
REMARK    5  A    between atoms: O_5  and  C_6
REMARK    6  A    between atoms: C_7  and  C_8
REMARK    7  A    between atoms: C_7  and  O_9
REMARK    8  A    between atoms: O_9  and  C_10
REMARK    9  A    between atoms: C_10  and  C_12
REMARK   10  A    between atoms: C_12  and  O_13
REMARK   11  A    between atoms: O_13  and  C_14
REMARK                            x       y       z     vdW  Elec       q    Type
REMARK                         _______ _______ _______ _____ _____    ______ ____
ROOT
ATOM      1  C   UNL     1       6.257   5.065  19.248  0.00  0.00    +0.000 C 
ATOM      2  O   UNL     1       7.026   5.293  20.173  0.00  0.00    +0.000 OA
ENDROOT
BRANCH   1   3
ATOM      3  O   UNL     1       6.523   4.243  18.197  0.00  0.00    +0.000 OA
BRANCH   3   4
ATOM      4  C   UNL     1       5.680   4.467  17.048  0.00  0.00    +0.000 C 
ATOM      5  C   UNL     1       4.835   3.205  16.873  0.00  0.00    +0.000 C 
BRANCH   4   6
ATOM      6  P   UNL     1       6.577   4.872  15.505  0.00  0.00    +0.000 P 
ATOM      7  O   UNL     1       7.904   4.500  16.190  0.00  0.00    +0.000 OA
BRANCH   6   9
ATOM      8  C   UNL     1       7.135   4.501  12.889  0.00  0.00    +0.000 C 
ATOM      9  O   UNL     1       7.426   5.255  14.047  0.00  0.00    +0.000 OA
ENDBRANCH   6   9
BRANCH   6  10
ATOM     10  O   UNL     1       6.233   6.469  15.711  0.00  0.00    +0.000 OA
ATOM     11  C   UNL     1       4.885   6.896  15.743  0.00  0.00    +0.000 C 
ENDBRANCH   6  10
ENDBRANCH   4   6
ENDBRANCH   3   4
ENDBRANCH   1   3
BRANCH   1  12
ATOM     12  C   UNL     1       4.989   5.861  18.984  0.00  0.00    +0.000 C 
BRANCH  12  13
ATOM     13  O   UNL     1       3.947   5.636  19.910  0.00  0.00    +0.000 OA
BRANCH  13  14
ATOM     14  C   UNL     1       3.086   4.608  19.611  0.00  0.00    +0.000 A 
ATOM     15  C   UNL     1       3.025   3.377  20.277  0.00  0.00    +0.000 A 
ATOM     16  C   UNL     1       2.080   2.419  19.894  0.00  0.00    +0.000 A 
ATOM     17  C   UNL     1       1.208   2.687  18.844  0.00  0.00    +0.000 A 
ATOM     18  F   UNL     1       0.303   1.767  18.491  0.00  0.00    +0.000 F 
ATOM     19  C   UNL     1       1.262   3.894  18.164  0.00  0.00    +0.000 A 
ATOM     20  C   UNL     1       2.202   4.843  18.553  0.00  0.00    +0.000 A 
ATOM     21  F   UNL     1       2.244   6.011  17.889  0.00  0.00    +0.000 F 
ENDBRANCH  13  14
ENDBRANCH  12  13
ENDBRANCH   1  12
TORSDOF 8
ENDMDL
MODEL 2
REMARK VINA RESULT:      -6.4      1.588      2.104
REMARK  Name = 
REMARK  11 active torsions:
REMARK  status: ('A' for Active; 'I' for Inactive)
REMARK    1  A    between atoms: C_1  and  O_2
REMARK    2  A    between atoms: O_2  and  P_3
REMARK    3  A    between atoms: P_3  and  O_5
REMARK    4  A    between atoms: P_3  and  C_7
REMARK    5  A    between atoms: O_5  and  C_6
REMARK    6  A    between atoms: C_7  and  C_8
REMARK    7  A    between atoms: C_7  and  O_9
REMARK    8  A    between atoms: O_9  and  C_10
REMARK    9  A    between atoms: C_10  and  C_12
REMARK   10  A    between atoms: C_12  and  O_13
REMARK   11  A    between atoms: O_13  and  C_14
REMARK                            x       y       z     vdW  Elec       q    Type
REMARK                         _______ _______ _______ _____ _____    ______ ____
ROOT
ATOM      1  C   UNL     1       5.695   5.055  19.324  0.00  0.00    +0.000 C 
ATOM      2  O   UNL     1       5.580   3.858  19.551  0.00  0.00    +0.000 OA
ENDROOT
BRANCH   1   3
ATOM      3  O   UNL     1       6.871   5.738  19.319  0.00  0.00    +0.000 OA
BRANCH   3   4
ATOM      4  C   UNL     1       7.498   5.820  18.022  0.00  0.00    +0.000 C 
ATOM      5  C   UNL     1       7.656   7.308  17.707  0.00  0.00    +0.000 C 
BRANCH   4   6
ATOM      6  P   UNL     1       6.601   4.960  16.680  0.00  0.00    +0.000 P 
ATOM      7  O   UNL     1       7.936   4.409  16.152  0.00  0.00    +0.000 OA
BRANCH   6   9
ATOM      8  C   UNL     1       6.394   4.013  14.160  0.00  0.00    +0.000 C 
ATOM      9  O   UNL     1       5.752   4.147  15.410  0.00  0.00    +0.000 OA
ENDBRANCH   6   9
BRANCH   6  10
ATOM     10  O   UNL     1       6.240   6.406  15.979  0.00  0.00    +0.000 OA
ATOM     11  C   UNL     1       4.887   6.784  15.812  0.00  0.00    +0.000 C 
ENDBRANCH   6  10
ENDBRANCH   4   6
ENDBRANCH   3   4
ENDBRANCH   1   3
BRANCH   1  12
ATOM     12  C   UNL     1       4.525   6.024  19.270  0.00  0.00    +0.000 C 
BRANCH  12  13
ATOM     13  O   UNL     1       3.439   5.686  20.107  0.00  0.00    +0.000 OA
BRANCH  13  14
ATOM     14  C   UNL     1       2.581   4.728  19.624  0.00  0.00    +0.000 A 
ATOM     15  C   UNL     1       2.230   4.553  18.279  0.00  0.00    +0.000 A 
ATOM     16  C   UNL     1       1.364   3.518  17.910  0.00  0.00    +0.000 A 
ATOM     17  C   UNL     1       0.845   2.669  18.882  0.00  0.00    +0.000 A 
ATOM     18  F   UNL     1       0.023   1.678  18.516  0.00  0.00    +0.000 F 
ATOM     19  C   UNL     1       1.169   2.835  20.219  0.00  0.00    +0.000 A 
ATOM     20  C   UNL     1       2.034   3.864  20.579  0.00  0.00    +0.000 A 
ATOM     21  F   UNL     1       2.345   4.013  21.878  0.00  0.00    +0.000 F 
ENDBRANCH  13  14
ENDBRANCH  12  13
ENDBRANCH   1  12
TORSDOF 8
ENDMDL
MODEL 3
REMARK VINA RESULT:      -6.2      2.501      3.649
REMARK  Name = 
REMARK  11 active torsions:
REMARK  status: ('A' for Active; 'I' for Inactive)
REMARK    1  A    between atoms: C_1  and  O_2
REMARK    2  A    between atoms: O_2  and  P_3
REMARK    3  A    between atoms: P_3  and  O_5
REMARK    4  A    between atoms: P_3  and  C_7
REMARK    5  A    between atoms: O_5  and  C_6
REMARK    6  A    between atoms: C_7  and  C_8
REMARK    7  A    between atoms: C_7  and  O_9
REMARK    8  A    between atoms: O_9  and  C_10
REMARK    9  A    between atoms: C_10  and  C_12
REMARK   10  A    between atoms: C_12  and  O_13
REMARK   11  A    between atoms: O_13  and  C_14
REMARK                            x       y       z     vdW  Elec       q    Type
REMARK                         _______ _______ _______ _____ _____    ______ ____
ROOT
ATOM      1  C   UNL     1       4.049   4.735  17.344  0.00  0.00    +0.000 C 
ATOM      2  O   UNL     1       3.479   5.787  17.602  0.00  0.00    +0.000 OA
ENDROOT
BRANCH   1   3
ATOM      3  O   UNL     1       5.398   4.578  17.264  0.00  0.00    +0.000 OA
BRANCH   3   4
ATOM      4  C   UNL     1       6.063   5.598  16.490  0.00  0.00    +0.000 C 
ATOM      5  C   UNL     1       6.867   4.872  15.411  0.00  0.00    +0.000 C 
BRANCH   4   6
ATOM      6  P   UNL     1       7.135   6.720  17.459  0.00  0.00    +0.000 P 
ATOM      7  O   UNL     1       8.009   6.947  16.213  0.00  0.00    +0.000 OA
BRANCH   6   9
ATOM      8  C   UNL     1       8.280   9.118  17.940  0.00  0.00    +0.000 C 
ATOM      9  O   UNL     1       8.150   7.781  18.375  0.00  0.00    +0.000 OA
ENDBRANCH   6   9
BRANCH   6  10
ATOM     10  O   UNL     1       7.689   5.446  18.344  0.00  0.00    +0.000 OA
ATOM     11  C   UNL     1       8.060   5.642  19.694  0.00  0.00    +0.000 C 
ENDBRANCH   6  10
ENDBRANCH   4   6
ENDBRANCH   3   4
ENDBRANCH   1   3
BRANCH   1  12
ATOM     12  C   UNL     1       3.345   3.496  16.814  0.00  0.00    +0.000 C 
BRANCH  12  13
ATOM     13  O   UNL     1       3.376   2.383  17.681  0.00  0.00    +0.000 OA
BRANCH  13  14
ATOM     14  C   UNL     1       2.665   2.510  18.850  0.00  0.00    +0.000 A 
ATOM     15  C   UNL     1       1.280   2.701  18.945  0.00  0.00    +0.000 A 
ATOM     16  C   UNL     1       0.669   2.787  20.201  0.00  0.00    +0.000 A 
ATOM     17  C   UNL     1       1.440   2.691  21.354  0.00  0.00    +0.000 A 
ATOM     18  F   UNL     1       0.844   2.767  22.550  0.00  0.00    +0.000 F 
ATOM     19  C   UNL     1       2.813   2.515  21.282  0.00  0.00    +0.000 A 
ATOM     20  C   UNL     1       3.414   2.427  20.030  0.00  0.00    +0.000 A 
ATOM     21  F   UNL     1       4.745   2.253  19.970  0.00  0.00    +0.000 F 
ENDBRANCH  13  14
ENDBRANCH  12  13
ENDBRANCH   1  12
TORSDOF 8
ENDMDL
MODEL 4
REMARK VINA RESULT:      -6.2      3.246      6.152
REMARK  Name = 
REMARK  11 active torsions:
REMARK  status: ('A' for Active; 'I' for Inactive)
REMARK    1  A    between atoms: C_1  and  O_2
REMARK    2  A    between atoms: O_2  and  P_3
REMARK    3  A    between atoms: P_3  and  O_5
REMARK    4  A    between atoms: P_3  and  C_7
REMARK    5  A    between atoms: O_5  and  C_6
REMARK    6  A    between atoms: C_7  and  C_8
REMARK    7  A    between atoms: C_7  and  O_9
REMARK    8  A    between atoms: O_9  and  C_10
REMARK    9  A    between atoms: C_10  and  C_12
REMARK   10  A    between atoms: C_12  and  O_13
REMARK   11  A    between atoms: O_13  and  C_14
REMARK                            x       y       z     vdW  Elec       q    Type
REMARK                         _______ _______ _______ _____ _____    ______ ____
ROOT
ATOM      1  C   UNL     1       6.290   6.521  17.321  0.00  0.00    +0.000 C 
ATOM      2  O   UNL     1       6.295   7.671  16.901  0.00  0.00    +0.000 OA
ENDROOT
BRANCH   1   3
ATOM      3  O   UNL     1       5.643   6.102  18.441  0.00  0.00    +0.000 OA
BRANCH   3   4
ATOM      4  C   UNL     1       4.323   5.573  18.195  0.00  0.00    +0.000 C 
ATOM      5  C   UNL     1       3.378   6.773  18.125  0.00  0.00    +0.000 C 
BRANCH   4   6
ATOM      6  P   UNL     1       3.742   4.354  19.428  0.00  0.00    +0.000 P 
ATOM      7  O   UNL     1       5.067   3.587  19.282  0.00  0.00    +0.000 OA
BRANCH   6   9
ATOM      8  C   UNL     1       1.836   2.807  20.554  0.00  0.00    +0.000 C 
ATOM      9  O   UNL     1       3.192   3.201  20.595  0.00  0.00    +0.000 OA
ENDBRANCH   6   9
BRANCH   6  10
ATOM     10  O   UNL     1       2.616   3.797  18.364  0.00  0.00    +0.000 OA
ATOM     11  C   UNL     1       3.033   3.242  17.131  0.00  0.00    +0.000 C 
ENDBRANCH   6  10
ENDBRANCH   4   6
ENDBRANCH   3   4
ENDBRANCH   1   3
BRANCH   1  12
ATOM     12  C   UNL     1       7.215   5.428  16.810  0.00  0.00    +0.000 C 
BRANCH  12  13
ATOM     13  O   UNL     1       7.658   5.603  15.481  0.00  0.00    +0.000 OA
BRANCH  13  14
ATOM     14  C   UNL     1       7.016   4.850  14.527  0.00  0.00    +0.000 A 
ATOM     15  C   UNL     1       5.891   4.046  14.746  0.00  0.00    +0.000 A 
ATOM     16  C   UNL     1       5.311   3.348  13.680  0.00  0.00    +0.000 A 
ATOM     17  C   UNL     1       5.859   3.448  12.407  0.00  0.00    +0.000 A 
ATOM     18  F   UNL     1       5.291   2.782  11.394  0.00  0.00    +0.000 F 
ATOM     19  C   UNL     1       6.980   4.228  12.172  0.00  0.00    +0.000 A 
ATOM     20  C   UNL     1       7.550   4.922  13.235  0.00  0.00    +0.000 A 
ATOM     21  F   UNL     1       8.635   5.679  12.997  0.00  0.00    +0.000 F 
ENDBRANCH  13  14
ENDBRANCH  12  13
ENDBRANCH   1  12
TORSDOF 8
ENDMDL
MODEL 5
REMARK VINA RESULT:      -6.1      2.264      3.626
REMARK  Name = 
REMARK  11 active torsions:
REMARK  status: ('A' for Active; 'I' for Inactive)
REMARK    1  A    between atoms: C_1  and  O_2
REMARK    2  A    between atoms: O_2  and  P_3
REMARK    3  A    between atoms: P_3  and  O_5
REMARK    4  A    between atoms: P_3  and  C_7
REMARK    5  A    between atoms: O_5  and  C_6
REMARK    6  A    between atoms: C_7  and  C_8
REMARK    7  A    between atoms: C_7  and  O_9
REMARK    8  A    between atoms: O_9  and  C_10
REMARK    9  A    between atoms: C_10  and  C_12
REMARK   10  A    between atoms: C_12  and  O_13
REMARK   11  A    between atoms: O_13  and  C_14
REMARK                            x       y       z     vdW  Elec       q    Type
REMARK                         _______ _______ _______ _____ _____    ______ ____
ROOT
ATOM      1  C   UNL     1       5.395   4.607  15.289  0.00  0.00    +0.000 C 
ATOM      2  O   UNL     1       5.442   4.027  14.212  0.00  0.00    +0.000 OA
ENDROOT
BRANCH   1   3
ATOM      3  O   UNL     1       5.885   5.853  15.526  0.00  0.00    +0.000 OA
BRANCH   3   4
ATOM      4  C   UNL     1       5.612   6.350  16.853  0.00  0.00    +0.000 C 
ATOM      5  C   UNL     1       4.427   7.307  16.724  0.00  0.00    +0.000 C 
BRANCH   4   6
ATOM      6  P   UNL     1       7.027   7.168  17.674  0.00  0.00    +0.000 P 
ATOM      7  O   UNL     1       7.908   6.849  16.454  0.00  0.00    +0.000 OA
BRANCH   6   9
ATOM      8  C   UNL     1       8.482   9.343  18.338  0.00  0.00    +0.000 C 
ATOM      9  O   UNL     1       8.366   7.941  18.450  0.00  0.00    +0.000 OA
ENDBRANCH   6   9
BRANCH   6  10
ATOM     10  O   UNL     1       7.097   5.955  18.786  0.00  0.00    +0.000 OA
ATOM     11  C   UNL     1       8.056   4.926  18.639  0.00  0.00    +0.000 C 
ENDBRANCH   6  10
ENDBRANCH   4   6
ENDBRANCH   3   4
ENDBRANCH   1   3
BRANCH   1  12
ATOM     12  C   UNL     1       5.019   3.933  16.599  0.00  0.00    +0.000 C 
BRANCH  12  13
ATOM     13  O   UNL     1       3.634   3.728  16.781  0.00  0.00    +0.000 OA
BRANCH  13  14
ATOM     14  C   UNL     1       3.225   3.481  18.070  0.00  0.00    +0.000 A 
ATOM     15  C   UNL     1       4.017   2.924  19.083  0.00  0.00    +0.000 A 
ATOM     16  C   UNL     1       3.490   2.749  20.367  0.00  0.00    +0.000 A 
ATOM     17  C   UNL     1       2.177   3.121  20.634  0.00  0.00    +0.000 A 
ATOM     18  F   UNL     1       1.686   2.956  21.868  0.00  0.00    +0.000 F 
ATOM     19  C   UNL     1       1.374   3.662  19.642  0.00  0.00    +0.000 A 
ATOM     20  C   UNL     1       1.905   3.836  18.368  0.00  0.00    +0.000 A 
ATOM     21  F   UNL     1       1.119   4.364  17.414  0.00  0.00    +0.000 F 
ENDBRANCH  13  14
ENDBRANCH  12  13
ENDBRANCH   1  12
TORSDOF 8
ENDMDL
MODEL 6
REMARK VINA RESULT:      -6.1      2.904      4.078
REMARK  Name = 
REMARK  11 active torsions:
REMARK  status: ('A' for Active; 'I' for Inactive)
REMARK    1  A    between atoms: C_1  and  O_2
REMARK    2  A    between atoms: O_2  and  P_3
REMARK    3  A    between atoms: P_3  and  O_5
REMARK    4  A    between atoms: P_3  and  C_7
REMARK    5  A    between atoms: O_5  and  C_6
REMARK    6  A    between atoms: C_7  and  C_8
REMARK    7  A    between atoms: C_7  and  O_9
REMARK    8  A    between atoms: O_9  and  C_10
REMARK    9  A    between atoms: C_10  and  C_12
REMARK   10  A    between atoms: C_12  and  O_13
REMARK   11  A    between atoms: O_13  and  C_14
REMARK                            x       y       z     vdW  Elec       q    Type
REMARK                         _______ _______ _______ _____ _____    ______ ____
ROOT
ATOM      1  C   UNL     1       4.508   4.598  19.202  0.00  0.00    +0.000 C 
ATOM      2  O   UNL     1       4.450   3.442  19.599  0.00  0.00    +0.000 OA
ENDROOT
BRANCH   1   3
ATOM      3  O   UNL     1       5.595   5.407  19.313  0.00  0.00    +0.000 OA
BRANCH   3   4
ATOM      4  C   UNL     1       6.797   4.860  18.732  0.00  0.00    +0.000 C 
ATOM      5  C   UNL     1       7.959   5.701  19.259  0.00  0.00    +0.000 C 
BRANCH   4   6
ATOM      6  P   UNL     1       6.809   4.802  16.904  0.00  0.00    +0.000 P 
ATOM      7  O   UNL     1       8.225   4.202  16.940  0.00  0.00    +0.000 OA
BRANCH   6   9
ATOM      8  C   UNL     1       5.746   4.106  14.521  0.00  0.00    +0.000 C 
ATOM      9  O   UNL     1       6.821   4.748  15.174  0.00  0.00    +0.000 OA
ENDBRANCH   6   9
BRANCH   6  10
ATOM     10  O   UNL     1       6.866   6.447  16.841  0.00  0.00    +0.000 OA
ATOM     11  C   UNL     1       5.671   7.181  16.663  0.00  0.00    +0.000 C 
ENDBRANCH   6  10
ENDBRANCH   4   6
ENDBRANCH   3   4
ENDBRANCH   1   3
BRANCH   1  12
ATOM     12  C   UNL     1       3.297   5.404  18.759  0.00  0.00    +0.000 C 
BRANCH  12  13
ATOM     13  O   UNL     1       2.741   6.232  19.758  0.00  0.00    +0.000 OA
BRANCH  13  14
ATOM     14  C   UNL     1       2.221   7.430  19.328  0.00  0.00    +0.000 A 
ATOM     15  C   UNL     1       2.321   7.941  18.028  0.00  0.00    +0.000 A 
ATOM     16  C   UNL     1       1.721   9.164  17.709  0.00  0.00    +0.000 A 
ATOM     17  C   UNL     1       1.035   9.876  18.686  0.00  0.00    +0.000 A 
ATOM     18  F   UNL     1       0.459  11.041  18.368  0.00  0.00    +0.000 F 
ATOM     19  C   UNL     1       0.937   9.393  19.982  0.00  0.00    +0.000 A 
ATOM     20  C   UNL     1       1.532   8.174  20.292  0.00  0.00    +0.000 A 
ATOM     21  F   UNL     1       1.428   7.713  21.551  0.00  0.00    +0.000 F 
ENDBRANCH  13  14
ENDBRANCH  12  13
ENDBRANCH   1  12
TORSDOF 8
ENDMDL
MODEL 7
REMARK VINA RESULT:      -6.0      1.600      2.234
REMARK  Name = 
REMARK  11 active torsions:
REMARK  status: ('A' for Active; 'I' for Inactive)
REMARK    1  A    between atoms: C_1  and  O_2
REMARK    2  A    between atoms: O_2  and  P_3
REMARK    3  A    between atoms: P_3  and  O_5
REMARK    4  A    between atoms: P_3  and  C_7
REMARK    5  A    between atoms: O_5  and  C_6
REMARK    6  A    between atoms: C_7  and  C_8
REMARK    7  A    between atoms: C_7  and  O_9
REMARK    8  A    between atoms: O_9  and  C_10
REMARK    9  A    between atoms: C_10  and  C_12
REMARK   10  A    between atoms: C_12  and  O_13
REMARK   11  A    between atoms: O_13  and  C_14
REMARK                            x       y       z     vdW  Elec       q    Type
REMARK                         _______ _______ _______ _____ _____    ______ ____
ROOT
ATOM      1  C   UNL     1       6.831   5.345  19.478  0.00  0.00    +0.000 C 
ATOM      2  O   UNL     1       7.668   5.195  20.358  0.00  0.00    +0.000 OA
ENDROOT
BRANCH   1   3
ATOM      3  O   UNL     1       6.697   6.459  18.710  0.00  0.00    +0.000 OA
BRANCH   3   4
ATOM      4  C   UNL     1       7.389   6.389  17.446  0.00  0.00    +0.000 C 
ATOM      5  C   UNL     1       7.731   7.827  17.055  0.00  0.00    +0.000 C 
BRANCH   4   6
ATOM      6  P   UNL     1       6.464   5.551  16.109  0.00  0.00    +0.000 P 
ATOM      7  O   UNL     1       7.713   5.618  15.214  0.00  0.00    +0.000 OA
BRANCH   6   9
ATOM      8  C   UNL     1       6.324   4.069  13.856  0.00  0.00    +0.000 C 
ATOM      9  O   UNL     1       5.588   4.759  14.844  0.00  0.00    +0.000 OA
ENDBRANCH   6   9
BRANCH   6  10
ATOM     10  O   UNL     1       5.522   6.887  15.909  0.00  0.00    +0.000 OA
ATOM     11  C   UNL     1       4.291   6.985  16.599  0.00  0.00    +0.000 C 
ENDBRANCH   6  10
ENDBRANCH   4   6
ENDBRANCH   3   4
ENDBRANCH   1   3
BRANCH   1  12
ATOM     12  C   UNL     1       5.640   4.421  19.274  0.00  0.00    +0.000 C 
BRANCH  12  13
ATOM     13  O   UNL     1       4.413   4.925  19.758  0.00  0.00    +0.000 OA
BRANCH  13  14
ATOM     14  C   UNL     1       3.286   4.241  19.372  0.00  0.00    +0.000 A 
ATOM     15  C   UNL     1       2.375   4.657  18.391  0.00  0.00    +0.000 A 
ATOM     16  C   UNL     1       1.278   3.852  18.068  0.00  0.00    +0.000 A 
ATOM     17  C   UNL     1       1.087   2.643  18.728  0.00  0.00    +0.000 A 
ATOM     18  F   UNL     1       0.037   1.878  18.405  0.00  0.00    +0.000 F 
ATOM     19  C   UNL     1       1.969   2.220  19.710  0.00  0.00    +0.000 A 
ATOM     20  C   UNL     1       3.060   3.024  20.024  0.00  0.00    +0.000 A 
ATOM     21  F   UNL     1       3.911   2.603  20.976  0.00  0.00    +0.000 F 
ENDBRANCH  13  14
ENDBRANCH  12  13
ENDBRANCH   1  12
TORSDOF 8
ENDMDL
MODEL 8
REMARK VINA RESULT:      -6.0      3.356      6.405
REMARK  Name = 
REMARK  11 active torsions:
REMARK  status: ('A' for Active; 'I' for Inactive)
REMARK    1  A    between atoms: C_1  and  O_2
REMARK    2  A    between atoms: O_2  and  P_3
REMARK    3  A    between atoms: P_3  and  O_5
REMARK    4  A    between atoms: P_3  and  C_7
REMARK    5  A    between atoms: O_5  and  C_6
REMARK    6  A    between atoms: C_7  and  C_8
REMARK    7  A    between atoms: C_7  and  O_9
REMARK    8  A    between atoms: O_9  and  C_10
REMARK    9  A    between atoms: C_10  and  C_12
REMARK   10  A    between atoms: C_12  and  O_13
REMARK   11  A    between atoms: O_13  and  C_14
REMARK                            x       y       z     vdW  Elec       q    Type
REMARK                         _______ _______ _______ _____ _____    ______ ____
ROOT
ATOM      1  C   UNL     1       5.417   6.500  16.536  0.00  0.00    +0.000 C 
ATOM      2  O   UNL     1       5.074   7.251  15.632  0.00  0.00    +0.000 OA
ENDROOT
BRANCH   1   3
ATOM      3  O   UNL     1       4.810   6.410  17.749  0.00  0.00    +0.000 OA
BRANCH   3   4
ATOM      4  C   UNL     1       3.380   6.232  17.680  0.00  0.00    +0.000 C 
ATOM      5  C   UNL     1       2.753   7.484  18.292  0.00  0.00    +0.000 C 
BRANCH   4   6
ATOM      6  P   UNL     1       2.754   4.721  18.498  0.00  0.00    +0.000 P 
ATOM      7  O   UNL     1       2.089   5.592  19.578  0.00  0.00    +0.000 OA
BRANCH   6   9
ATOM      8  C   UNL     1       1.024   2.660  18.727  0.00  0.00    +0.000 C 
ATOM      9  O   UNL     1       2.162   3.291  19.274  0.00  0.00    +0.000 OA
ENDBRANCH   6   9
BRANCH   6  10
ATOM     10  O   UNL     1       4.287   4.308  18.935  0.00  0.00    +0.000 OA
ATOM     11  C   UNL     1       4.534   3.036  19.503  0.00  0.00    +0.000 C 
ENDBRANCH   6  10
ENDBRANCH   4   6
ENDBRANCH   3   4
ENDBRANCH   1   3
BRANCH   1  12
ATOM     12  C   UNL     1       6.732   5.735  16.549  0.00  0.00    +0.000 C 
BRANCH  12  13
ATOM     13  O   UNL     1       7.430   5.740  15.322  0.00  0.00    +0.000 OA
BRANCH  13  14
ATOM     14  C   UNL     1       6.942   4.901  14.348  0.00  0.00    +0.000 A 
ATOM     15  C   UNL     1       5.848   4.037  14.490  0.00  0.00    +0.000 A 
ATOM     16  C   UNL     1       5.431   3.252  13.409  0.00  0.00    +0.000 A 
ATOM     17  C   UNL     1       6.110   3.324  12.198  0.00  0.00    +0.000 A 
ATOM     18  F   UNL     1       5.697   2.574  11.169  0.00  0.00    +0.000 F 
ATOM     19  C   UNL     1       7.203   4.163  12.042  0.00  0.00    +0.000 A 
ATOM     20  C   UNL     1       7.610   4.943  13.119  0.00  0.00    +0.000 A 
ATOM     21  F   UNL     1       8.668   5.756  12.956  0.00  0.00    +0.000 F 
ENDBRANCH  13  14
ENDBRANCH  12  13
ENDBRANCH   1  12
TORSDOF 8
ENDMDL
MODEL 9
REMARK VINA RESULT:      -6.0      3.046      5.880
REMARK  Name = 
REMARK  11 active torsions:
REMARK  status: ('A' for Active; 'I' for Inactive)
REMARK    1  A    between atoms: C_1  and  O_2
REMARK    2  A    between atoms: O_2  and  P_3
REMARK    3  A    between atoms: P_3  and  O_5
REMARK    4  A    between atoms: P_3  and  C_7
REMARK    5  A    between atoms: O_5  and  C_6
REMARK    6  A    between atoms: C_7  and  C_8
REMARK    7  A    between atoms: C_7  and  O_9
REMARK    8  A    between atoms: O_9  and  C_10
REMARK    9  A    between atoms: C_10  and  C_12
REMARK   10  A    between atoms: C_12  and  O_13
REMARK   11  A    between atoms: O_13  and  C_14
REMARK                            x       y       z     vdW  Elec       q    Type
REMARK                         _______ _______ _______ _____ _____    ______ ____
ROOT
ATOM      1  C   UNL     1       3.430   3.158  17.856  0.00  0.00    +0.000 C 
ATOM      2  O   UNL     1       3.902   2.090  18.223  0.00  0.00    +0.000 OA
ENDROOT
BRANCH   1   3
ATOM      3  O   UNL     1       2.220   3.648  18.236  0.00  0.00    +0.000 OA
BRANCH   3   4
ATOM      4  C   UNL     1       2.256   4.425  19.451  0.00  0.00    +0.000 C 
ATOM      5  C   UNL     1       0.989   4.074  20.231  0.00  0.00    +0.000 C 
BRANCH   4   6
ATOM      6  P   UNL     1       2.391   6.232  19.203  0.00  0.00    +0.000 P 
ATOM      7  O   UNL     1       3.895   6.155  19.517  0.00  0.00    +0.000 OA
BRANCH   6   9
ATOM      8  C   UNL     1       1.997   8.492  17.777  0.00  0.00    +0.000 C 
ATOM      9  O   UNL     1       2.518   7.942  18.969  0.00  0.00    +0.000 OA
ENDBRANCH   6   9
BRANCH   6  10
ATOM     10  O   UNL     1       1.515   6.497  20.572  0.00  0.00    +0.000 OA
ATOM     11  C   UNL     1       1.459   7.797  21.126  0.00  0.00    +0.000 C 
ENDBRANCH   6  10
ENDBRANCH   4   6
ENDBRANCH   3   4
ENDBRANCH   1   3
BRANCH   1  12
ATOM     12  C   UNL     1       3.998   3.988  16.715  0.00  0.00    +0.000 C 
BRANCH  12  13
ATOM     13  O   UNL     1       5.390   3.853  16.522  0.00  0.00    +0.000 OA
BRANCH  13  14
ATOM     14  C   UNL     1       6.179   4.784  17.155  0.00  0.00    +0.000 A 
ATOM     15  C   UNL     1       6.886   4.577  18.347  0.00  0.00    +0.000 A 
ATOM     16  C   UNL     1       7.680   5.600  18.877  0.00  0.00    +0.000 A 
ATOM     17  C   UNL     1       7.759   6.824  18.223  0.00  0.00    +0.000 A 
ATOM     18  F   UNL     1       8.528   7.793  18.735  0.00  0.00    +0.000 F 
ATOM     19  C   UNL     1       7.057   7.053  17.050  0.00  0.00    +0.000 A 
ATOM     20  C   UNL     1       6.271   6.030  16.527  0.00  0.00    +0.000 A 
ATOM     21  F   UNL     1       5.597   6.261  15.387  0.00  0.00    +0.000 F 
ENDBRANCH  13  14
ENDBRANCH  12  13
ENDBRANCH   1  12
TORSDOF 8
ENDMDL
