MODEL 1
REMARK VINA RESULT:      -6.8      0.000      0.000
REMARK  Name = 
REMARK  1 active torsions:
REMARK  status: ('A' for Active; 'I' for Inactive)
REMARK    1  A    between atoms: C_5  and  N_6
REMARK                            x       y       z     vdW  Elec       q    Type
REMARK                         _______ _______ _______ _____ _____    ______ ____
ROOT
ATOM      1  C   UNL     1       1.383   2.499  20.776  0.00  0.00    +0.000 A 
ATOM      2  C   UNL     1       2.167   2.091  19.705  0.00  0.00    +0.000 A 
ATOM      3  C   UNL     1       2.760   3.044  18.872  0.00  0.00    +0.000 A 
ATOM      4  C   UNL     1       2.588   4.430  19.094  0.00  0.00    +0.000 A 
ATOM      5  C   UNL     1       3.148   5.434  18.255  0.00  0.00    +0.000 A 
ATOM      6  C   UNL     1       2.971   6.789  18.585  0.00  0.00    +0.000 A 
ATOM      7  C   UNL     1       2.271   7.163  19.727  0.00  0.00    +0.000 A 
ATOM      8  C   UNL     1       1.696   6.188  20.534  0.00  0.00    +0.000 A 
ATOM      9  C   UNL     1       1.835   4.828  20.225  0.00  0.00    +0.000 A 
ATOM     10  C   UNL     1       1.227   3.857  21.043  0.00  0.00    +0.000 A 
ENDROOT
BRANCH   5  11
ATOM     11  N   UNL     1       3.733   5.077  17.007  0.00  0.00    +0.000 N 
ATOM     12  C   UNL     1       5.083   4.964  16.829  0.00  0.00    +0.000 C 
ATOM     13  N   UNL     1       5.962   4.522  17.663  0.00  0.00    +0.000 NA
ATOM     14  C   UNL     1       7.311   4.611  17.081  0.00  0.00    +0.000 C 
ATOM     15  C   UNL     1       7.222   4.592  15.567  0.00  0.00    +0.000 C 
ATOM     16  S   UNL     1       5.673   5.457  15.253  0.00  0.00    +0.000 S 
ATOM     17  H   UNL     1       3.283   5.589  16.256  0.00  0.00    +0.000 HD
ENDBRANCH   5  11
TORSDOF 1
ENDMDL
MODEL 2
REMARK VINA RESULT:      -6.8      0.752      2.789
REMARK  Name = 
REMARK  1 active torsions:
REMARK  status: ('A' for Active; 'I' for Inactive)
REMARK    1  A    between atoms: C_5  and  N_6
REMARK                            x       y       z     vdW  Elec       q    Type
REMARK                         _______ _______ _______ _____ _____    ______ ____
ROOT
ATOM      1  C   UNL     1       1.841   7.375  20.174  0.00  0.00    +0.000 A 
ATOM      2  C   UNL     1       2.442   7.401  18.921  0.00  0.00    +0.000 A 
ATOM      3  C   UNL     1       2.720   6.203  18.256  0.00  0.00    +0.000 A 
ATOM      4  C   UNL     1       2.399   4.949  18.825  0.00  0.00    +0.000 A 
ATOM      5  C   UNL     1       2.692   3.705  18.198  0.00  0.00    +0.000 A 
ATOM      6  C   UNL     1       2.285   2.509  18.812  0.00  0.00    +0.000 A 
ATOM      7  C   UNL     1       1.588   2.522  20.016  0.00  0.00    +0.000 A 
ATOM      8  C   UNL     1       1.326   3.732  20.649  0.00  0.00    +0.000 A 
ATOM      9  C   UNL     1       1.734   4.943  20.075  0.00  0.00    +0.000 A 
ATOM     10  C   UNL     1       1.479   6.156  20.742  0.00  0.00    +0.000 A 
ENDROOT
BRANCH   5  11
ATOM     11  N   UNL     1       3.533   3.666  17.050  0.00  0.00    +0.000 N 
ATOM     12  C   UNL     1       4.825   4.109  17.064  0.00  0.00    +0.000 C 
ATOM     13  N   UNL     1       5.687   4.020  18.020  0.00  0.00    +0.000 NA
ATOM     14  C   UNL     1       6.951   4.666  17.632  0.00  0.00    +0.000 C 
ATOM     15  C   UNL     1       7.082   4.678  16.121  0.00  0.00    +0.000 C 
ATOM     16  S   UNL     1       5.373   4.865  15.580  0.00  0.00    +0.000 S 
ATOM     17  H   UNL     1       3.020   3.987  16.236  0.00  0.00    +0.000 HD
ENDBRANCH   5  11
TORSDOF 1
ENDMDL
MODEL 3
REMARK VINA RESULT:      -6.7      2.423      5.720
REMARK  Name = 
REMARK  1 active torsions:
REMARK  status: ('A' for Active; 'I' for Inactive)
REMARK    1  A    between atoms: C_5  and  N_6
REMARK                            x       y       z     vdW  Elec       q    Type
REMARK                         _______ _______ _______ _____ _____    ______ ____
ROOT
ATOM      1  C   UNL     1       6.551   4.649  14.283  0.00  0.00    +0.000 A 
ATOM      2  C   UNL     1       5.579   3.774  14.751  0.00  0.00    +0.000 A 
ATOM      3  C   UNL     1       5.312   3.696  16.121  0.00  0.00    +0.000 A 
ATOM      4  C   UNL     1       6.006   4.497  17.057  0.00  0.00    +0.000 A 
ATOM      5  C   UNL     1       5.788   4.428  18.462  0.00  0.00    +0.000 A 
ATOM      6  C   UNL     1       6.485   5.303  19.313  0.00  0.00    +0.000 A 
ATOM      7  C   UNL     1       7.372   6.244  18.803  0.00  0.00    +0.000 A 
ATOM      8  C   UNL     1       7.613   6.295  17.434  0.00  0.00    +0.000 A 
ATOM      9  C   UNL     1       6.951   5.425  16.558  0.00  0.00    +0.000 A 
ATOM     10  C   UNL     1       7.224   5.478  15.178  0.00  0.00    +0.000 A 
ENDROOT
BRANCH   5  11
ATOM     11  N   UNL     1       5.003   3.376  19.012  0.00  0.00    +0.000 N 
ATOM     12  C   UNL     1       3.683   3.526  19.329  0.00  0.00    +0.000 C 
ATOM     13  N   UNL     1       2.788   4.218  18.709  0.00  0.00    +0.000 NA
ATOM     14  C   UNL     1       1.498   4.138  19.413  0.00  0.00    +0.000 C 
ATOM     15  C   UNL     1       1.434   2.861  20.229  0.00  0.00    +0.000 C 
ATOM     16  S   UNL     1       3.147   2.635  20.742  0.00  0.00    +0.000 S 
ATOM     17  H   UNL     1       5.526   2.900  19.739  0.00  0.00    +0.000 HD
ENDBRANCH   5  11
TORSDOF 1
ENDMDL
MODEL 4
REMARK VINA RESULT:      -6.6      1.489      2.962
REMARK  Name = 
REMARK  1 active torsions:
REMARK  status: ('A' for Active; 'I' for Inactive)
REMARK    1  A    between atoms: C_5  and  N_6
REMARK                            x       y       z     vdW  Elec       q    Type
REMARK                         _______ _______ _______ _____ _____    ______ ____
ROOT
ATOM      1  C   UNL     1       1.273   5.720  20.807  0.00  0.00    +0.000 A 
ATOM      2  C   UNL     1       2.088   6.547  20.044  0.00  0.00    +0.000 A 
ATOM      3  C   UNL     1       2.912   5.997  19.058  0.00  0.00    +0.000 A 
ATOM      4  C   UNL     1       2.937   4.606  18.806  0.00  0.00    +0.000 A 
ATOM      5  C   UNL     1       3.782   4.001  17.833  0.00  0.00    +0.000 A 
ATOM      6  C   UNL     1       3.699   2.615  17.612  0.00  0.00    +0.000 A 
ATOM      7  C   UNL     1       2.794   1.830  18.318  0.00  0.00    +0.000 A 
ATOM      8  C   UNL     1       1.988   2.410  19.291  0.00  0.00    +0.000 A 
ATOM      9  C   UNL     1       2.058   3.785  19.552  0.00  0.00    +0.000 A 
ATOM     10  C   UNL     1       1.249   4.350  20.556  0.00  0.00    +0.000 A 
ENDROOT
BRANCH   5  11
ATOM     11  N   UNL     1       4.815   4.759  17.214  0.00  0.00    +0.000 N 
ATOM     12  C   UNL     1       5.855   5.302  17.914  0.00  0.00    +0.000 C 
ATOM     13  N   UNL     1       6.472   4.809  18.934  0.00  0.00    +0.000 NA
ATOM     14  C   UNL     1       7.507   5.742  19.409  0.00  0.00    +0.000 C 
ATOM     15  C   UNL     1       7.947   6.645  18.272  0.00  0.00    +0.000 C 
ATOM     16  S   UNL     1       6.430   6.849  17.321  0.00  0.00    +0.000 S 
ATOM     17  H   UNL     1       4.413   5.410  16.548  0.00  0.00    +0.000 HD
ENDBRANCH   5  11
TORSDOF 1
ENDMDL
MODEL 5
REMARK VINA RESULT:      -6.6      2.443      5.706
REMARK  Name = 
REMARK  1 active torsions:
REMARK  status: ('A' for Active; 'I' for Inactive)
REMARK    1  A    between atoms: C_5  and  N_6
REMARK                            x       y       z     vdW  Elec       q    Type
REMARK                         _______ _______ _______ _____ _____    ______ ____
ROOT
ATOM      1  C   UNL     1       7.984   6.887  18.545  0.00  0.00    +0.000 A 
ATOM      2  C   UNL     1       7.616   5.877  19.426  0.00  0.00    +0.000 A 
ATOM      3  C   UNL     1       6.721   4.885  19.016  0.00  0.00    +0.000 A 
ATOM      4  C   UNL     1       6.174   4.876  17.712  0.00  0.00    +0.000 A 
ATOM      5  C   UNL     1       5.236   3.904  17.262  0.00  0.00    +0.000 A 
ATOM      6  C   UNL     1       4.788   3.940  15.931  0.00  0.00    +0.000 A 
ATOM      7  C   UNL     1       5.259   4.900  15.042  0.00  0.00    +0.000 A 
ATOM      8  C   UNL     1       6.151   5.871  15.483  0.00  0.00    +0.000 A 
ATOM      9  C   UNL     1       6.604   5.878  16.809  0.00  0.00    +0.000 A 
ATOM     10  C   UNL     1       7.491   6.882  17.242  0.00  0.00    +0.000 A 
ENDROOT
BRANCH   5  11
ATOM     11  N   UNL     1       4.631   3.012  18.193  0.00  0.00    +0.000 N 
ATOM     12  C   UNL     1       3.447   3.286  18.817  0.00  0.00    +0.000 C 
ATOM     13  N   UNL     1       2.417   3.899  18.338  0.00  0.00    +0.000 NA
ATOM     14  C   UNL     1       1.368   4.017  19.364  0.00  0.00    +0.000 C 
ATOM     15  C   UNL     1       1.529   2.917  20.395  0.00  0.00    +0.000 C 
ATOM     16  S   UNL     1       3.316   2.699  20.464  0.00  0.00    +0.000 S 
ATOM     17  H   UNL     1       5.333   2.651  18.830  0.00  0.00    +0.000 HD
ENDBRANCH   5  11
TORSDOF 1
ENDMDL
MODEL 6
REMARK VINA RESULT:      -6.5      3.332      5.449
REMARK  Name = 
REMARK  1 active torsions:
REMARK  status: ('A' for Active; 'I' for Inactive)
REMARK    1  A    between atoms: C_5  and  N_6
REMARK                            x       y       z     vdW  Elec       q    Type
REMARK                         _______ _______ _______ _____ _____    ______ ____
ROOT
ATOM      1  C   UNL     1      -0.310  10.224  21.513  0.00  0.00    +0.000 A 
ATOM      2  C   UNL     1       0.216   9.173  22.254  0.00  0.00    +0.000 A 
ATOM      3  C   UNL     1       1.074   8.251  21.646  0.00  0.00    +0.000 A 
ATOM      4  C   UNL     1       1.432   8.362  20.283  0.00  0.00    +0.000 A 
ATOM      5  C   UNL     1       2.278   7.431  19.616  0.00  0.00    +0.000 A 
ATOM      6  C   UNL     1       2.626   7.652  18.273  0.00  0.00    +0.000 A 
ATOM      7  C   UNL     1       2.170   8.774  17.589  0.00  0.00    +0.000 A 
ATOM      8  C   UNL     1       1.319   9.671  18.225  0.00  0.00    +0.000 A 
ATOM      9  C   UNL     1       0.935   9.472  19.558  0.00  0.00    +0.000 A 
ATOM     10  C   UNL     1       0.056  10.381  20.178  0.00  0.00    +0.000 A 
ENDROOT
BRANCH   5  11
ATOM     11  N   UNL     1       2.627   6.204  20.249  0.00  0.00    +0.000 N 
ATOM     12  C   UNL     1       2.116   4.999  19.860  0.00  0.00    +0.000 C 
ATOM     13  N   UNL     1       1.835   4.602  18.665  0.00  0.00    +0.000 NA
ATOM     14  C   UNL     1       1.264   3.246  18.696  0.00  0.00    +0.000 C 
ATOM     15  C   UNL     1       1.729   2.519  19.944  0.00  0.00    +0.000 C 
ATOM     16  S   UNL     1       1.843   3.848  21.155  0.00  0.00    +0.000 S 
ATOM     17  H   UNL     1       2.620   6.323  21.257  0.00  0.00    +0.000 HD
ENDBRANCH   5  11
TORSDOF 1
ENDMDL
MODEL 7
REMARK VINA RESULT:      -6.4      2.872      5.602
REMARK  Name = 
REMARK  1 active torsions:
REMARK  status: ('A' for Active; 'I' for Inactive)
REMARK    1  A    between atoms: C_5  and  N_6
REMARK                            x       y       z     vdW  Elec       q    Type
REMARK                         _______ _______ _______ _____ _____    ______ ____
ROOT
ATOM      1  C   UNL     1       6.619   4.740  16.260  0.00  0.00    +0.000 A 
ATOM      2  C   UNL     1       6.557   6.059  16.691  0.00  0.00    +0.000 A 
ATOM      3  C   UNL     1       5.371   6.560  17.234  0.00  0.00    +0.000 A 
ATOM      4  C   UNL     1       4.218   5.752  17.366  0.00  0.00    +0.000 A 
ATOM      5  C   UNL     1       2.981   6.229  17.885  0.00  0.00    +0.000 A 
ATOM      6  C   UNL     1       1.904   5.339  18.031  0.00  0.00    +0.000 A 
ATOM      7  C   UNL     1       2.032   3.996  17.692  0.00  0.00    +0.000 A 
ATOM      8  C   UNL     1       3.227   3.531  17.156  0.00  0.00    +0.000 A 
ATOM      9  C   UNL     1       4.316   4.395  16.977  0.00  0.00    +0.000 A 
ATOM     10  C   UNL     1       5.511   3.909  16.412  0.00  0.00    +0.000 A 
ENDROOT
BRANCH   5  11
ATOM     11  N   UNL     1       2.785   7.624  18.093  0.00  0.00    +0.000 N 
ATOM     12  C   UNL     1       2.030   8.120  19.118  0.00  0.00    +0.000 C 
ATOM     13  N   UNL     1       1.918   7.661  20.319  0.00  0.00    +0.000 NA
ATOM     14  C   UNL     1       0.967   8.475  21.092  0.00  0.00    +0.000 C 
ATOM     15  C   UNL     1       0.892   9.874  20.510  0.00  0.00    +0.000 C 
ATOM     16  S   UNL     1       1.132   9.580  18.748  0.00  0.00    +0.000 S 
ATOM     17  H   UNL     1       2.587   8.080  17.209  0.00  0.00    +0.000 HD
ENDBRANCH   5  11
TORSDOF 1
ENDMDL
MODEL 8
REMARK VINA RESULT:      -6.3      2.173      3.746
REMARK  Name = 
REMARK  1 active torsions:
REMARK  status: ('A' for Active; 'I' for Inactive)
REMARK    1  A    between atoms: C_5  and  N_6
REMARK                            x       y       z     vdW  Elec       q    Type
REMARK                         _______ _______ _______ _____ _____    ______ ____
ROOT
ATOM      1  C   UNL     1       2.585   5.029  18.814  0.00  0.00    +0.000 A 
ATOM      2  C   UNL     1       2.579   4.191  17.706  0.00  0.00    +0.000 A 
ATOM      3  C   UNL     1       3.779   3.873  17.064  0.00  0.00    +0.000 A 
ATOM      4  C   UNL     1       5.018   4.382  17.518  0.00  0.00    +0.000 A 
ATOM      5  C   UNL     1       6.260   4.109  16.878  0.00  0.00    +0.000 A 
ATOM      6  C   UNL     1       7.448   4.612  17.433  0.00  0.00    +0.000 A 
ATOM      7  C   UNL     1       7.432   5.359  18.606  0.00  0.00    +0.000 A 
ATOM      8  C   UNL     1       6.220   5.655  19.220  0.00  0.00    +0.000 A 
ATOM      9  C   UNL     1       5.013   5.187  18.683  0.00  0.00    +0.000 A 
ATOM     10  C   UNL     1       3.794   5.515  19.307  0.00  0.00    +0.000 A 
ENDROOT
BRANCH   5  11
ATOM     11  N   UNL     1       6.281   3.480  15.601  0.00  0.00    +0.000 N 
ATOM     12  C   UNL     1       6.701   4.118  14.469  0.00  0.00    +0.000 C 
ATOM     13  N   UNL     1       7.653   4.981  14.348  0.00  0.00    +0.000 NA
ATOM     14  C   UNL     1       7.745   5.451  12.956  0.00  0.00    +0.000 C 
ATOM     15  C   UNL     1       7.175   4.402  12.019  0.00  0.00    +0.000 C 
ATOM     16  S   UNL     1       5.851   3.675  13.001  0.00  0.00    +0.000 S 
ATOM     17  H   UNL     1       5.421   2.960  15.459  0.00  0.00    +0.000 HD
ENDBRANCH   5  11
TORSDOF 1
ENDMDL
MODEL 9
REMARK VINA RESULT:      -6.3      1.343      2.938
REMARK  Name = 
REMARK  1 active torsions:
REMARK  status: ('A' for Active; 'I' for Inactive)
REMARK    1  A    between atoms: C_5  and  N_6
REMARK                            x       y       z     vdW  Elec       q    Type
REMARK                         _______ _______ _______ _____ _____    ______ ____
ROOT
ATOM      1  C   UNL     1       1.275   5.688  20.795  0.00  0.00    +0.000 A 
ATOM      2  C   UNL     1       2.196   6.496  20.139  0.00  0.00    +0.000 A 
ATOM      3  C   UNL     1       3.088   5.933  19.222  0.00  0.00    +0.000 A 
ATOM      4  C   UNL     1       3.079   4.548  18.935  0.00  0.00    +0.000 A 
ATOM      5  C   UNL     1       3.988   3.929  18.032  0.00  0.00    +0.000 A 
ATOM      6  C   UNL     1       3.868   2.554  17.765  0.00  0.00    +0.000 A 
ATOM      7  C   UNL     1       2.865   1.794  18.356  0.00  0.00    +0.000 A 
ATOM      8  C   UNL     1       1.992   2.387  19.262  0.00  0.00    +0.000 A 
ATOM      9  C   UNL     1       2.095   3.750  19.568  0.00  0.00    +0.000 A 
ATOM     10  C   UNL     1       1.216   4.327  20.504  0.00  0.00    +0.000 A 
ENDROOT
BRANCH   5  11
ATOM     11  N   UNL     1       5.109   4.654  17.539  0.00  0.00    +0.000 N 
ATOM     12  C   UNL     1       5.601   4.486  16.275  0.00  0.00    +0.000 C 
ATOM     13  N   UNL     1       4.943   4.256  15.189  0.00  0.00    +0.000 NA
ATOM     14  C   UNL     1       5.867   4.101  14.054  0.00  0.00    +0.000 C 
ATOM     15  C   UNL     1       7.164   4.832  14.340  0.00  0.00    +0.000 C 
ATOM     16  S   UNL     1       7.341   4.636  16.123  0.00  0.00    +0.000 S 
ATOM     17  H   UNL     1       5.841   4.677  18.241  0.00  0.00    +0.000 HD
ENDBRANCH   5  11
TORSDOF 1
ENDMDL
