MODEL 1
REMARK VINA RESULT:      -9.2      0.000      0.000
REMARK  Name = 
REMARK  3 active torsions:
REMARK  status: ('A' for Active; 'I' for Inactive)
REMARK    1  A    between atoms: C_4  and  C_5
REMARK    2  A    between atoms: C_9  and  C_10
REMARK    3  A    between atoms: C_10  and  N_11
REMARK                            x       y       z     vdW  Elec       q    Type
REMARK                         _______ _______ _______ _____ _____    ______ ____
ROOT
ATOM      1  N   UNL     1       0.224  10.573  19.199  0.00  0.00    +0.000 N 
ATOM      2  C   UNL     1      -1.057  10.690  18.615  0.00  0.00    +0.000 A 
ATOM      3  C   UNL     1      -2.100  11.418  19.245  0.00  0.00    +0.000 A 
ATOM      4  C   UNL     1      -3.300  11.638  18.499  0.00  0.00    +0.000 A 
ATOM      5  C   UNL     1      -3.315  11.083  17.235  0.00  0.00    +0.000 A 
ATOM      6  C   UNL     1      -2.411  10.113  16.819  0.00  0.00    +0.000 A 
ATOM      7  N   UNL     1      -1.270   9.987  17.495  0.00  0.00    +0.000 NA
ATOM      8  N   UNL     1      -4.340  11.640  16.528  0.00  0.00    +0.000 N 
ATOM      9  C   UNL     1      -5.261  12.137  17.393  0.00  0.00    +0.000 A 
ATOM     10  C   UNL     1      -6.579  12.520  17.115  0.00  0.00    +0.000 A 
ATOM     11  C   UNL     1      -7.402  12.812  18.195  0.00  0.00    +0.000 A 
ATOM     12  C   UNL     1      -6.882  12.785  19.488  0.00  0.00    +0.000 A 
ATOM     13  C   UNL     1      -5.521  12.490  19.736  0.00  0.00    +0.000 A 
ATOM     14  C   UNL     1      -4.667  12.137  18.663  0.00  0.00    +0.000 A 
ATOM     15  H   UNL     1       0.132   9.965  20.008  0.00  0.00    +0.000 HD
ATOM     16  H   UNL     1      -4.445  11.611  15.527  0.00  0.00    +0.000 HD
ENDROOT
BRANCH   1  17
ATOM     17  C   UNL     1       1.255  10.034  18.271  0.00  0.00    +0.000 C 
BRANCH  17  22
ATOM     18  C   UNL     1       3.187   6.695  18.261  0.00  0.00    +0.000 A 
ATOM     19  C   UNL     1       2.870   6.205  19.538  0.00  0.00    +0.000 A 
ATOM     20  C   UNL     1       2.049   6.938  20.401  0.00  0.00    +0.000 A 
ATOM     21  C   UNL     1       1.531   8.177  20.003  0.00  0.00    +0.000 A 
ATOM     22  C   UNL     1       1.846   8.715  18.746  0.00  0.00    +0.000 A 
ATOM     23  C   UNL     1       2.661   7.953  17.900  0.00  0.00    +0.000 A 
BRANCH  18  27
ATOM     24  C   UNL     1       5.524   4.497  15.398  0.00  0.00    +0.000 A 
ATOM     25  C   UNL     1       4.802   3.825  16.377  0.00  0.00    +0.000 A 
ATOM     26  C   UNL     1       4.090   4.551  17.331  0.00  0.00    +0.000 A 
ATOM     27  C   UNL     1       4.050   5.960  17.313  0.00  0.00    +0.000 A 
ATOM     28  C   UNL     1       4.808   6.614  16.328  0.00  0.00    +0.000 A 
ATOM     29  C   UNL     1       5.541   5.889  15.382  0.00  0.00    +0.000 A 
ENDBRANCH  18  27
ENDBRANCH  17  22
ENDBRANCH   1  17
TORSDOF 3
ENDMDL
MODEL 2
REMARK VINA RESULT:      -9.0      4.325     10.622
REMARK  Name = 
REMARK  3 active torsions:
REMARK  status: ('A' for Active; 'I' for Inactive)
REMARK    1  A    between atoms: C_4  and  C_5
REMARK    2  A    between atoms: C_9  and  C_10
REMARK    3  A    between atoms: C_10  and  N_11
REMARK                            x       y       z     vdW  Elec       q    Type
REMARK                         _______ _______ _______ _____ _____    ______ ____
ROOT
ATOM      1  N   UNL     1       2.947   4.872  18.299  0.00  0.00    +0.000 N 
ATOM      2  C   UNL     1       4.089   4.910  17.468  0.00  0.00    +0.000 A 
ATOM      3  C   UNL     1       4.081   4.352  16.163  0.00  0.00    +0.000 A 
ATOM      4  C   UNL     1       5.217   4.598  15.330  0.00  0.00    +0.000 A 
ATOM      5  C   UNL     1       6.222   5.343  15.912  0.00  0.00    +0.000 A 
ATOM      6  C   UNL     1       6.310   5.564  17.281  0.00  0.00    +0.000 A 
ATOM      7  N   UNL     1       5.211   5.396  18.016  0.00  0.00    +0.000 NA
ATOM      8  N   UNL     1       7.062   5.781  14.931  0.00  0.00    +0.000 N 
ATOM      9  C   UNL     1       6.942   4.975  13.846  0.00  0.00    +0.000 A 
ATOM     10  C   UNL     1       7.807   4.878  12.749  0.00  0.00    +0.000 A 
ATOM     11  C   UNL     1       7.589   3.840  11.852  0.00  0.00    +0.000 A 
ATOM     12  C   UNL     1       6.498   2.991  12.028  0.00  0.00    +0.000 A 
ATOM     13  C   UNL     1       5.581   3.169  13.091  0.00  0.00    +0.000 A 
ATOM     14  C   UNL     1       5.802   4.184  14.052  0.00  0.00    +0.000 A 
ATOM     15  H   UNL     1       2.816   3.907  18.587  0.00  0.00    +0.000 HD
ATOM     16  H   UNL     1       7.731   6.529  15.023  0.00  0.00    +0.000 HD
ENDROOT
BRANCH   1  17
ATOM     17  C   UNL     1       3.052   5.751  19.495  0.00  0.00    +0.000 C 
BRANCH  17  22
ATOM     18  C   UNL     1       1.180   9.078  20.052  0.00  0.00    +0.000 A 
ATOM     19  C   UNL     1       1.361   9.693  18.803  0.00  0.00    +0.000 A 
ATOM     20  C   UNL     1       2.081   9.053  17.789  0.00  0.00    +0.000 A 
ATOM     21  C   UNL     1       2.636   7.785  18.007  0.00  0.00    +0.000 A 
ATOM     22  C   UNL     1       2.502   7.149  19.250  0.00  0.00    +0.000 A 
ATOM     23  C   UNL     1       1.766   7.809  20.242  0.00  0.00    +0.000 A 
BRANCH  18  27
ATOM     24  C   UNL     1      -1.186  10.858  23.170  0.00  0.00    +0.000 A 
ATOM     25  C   UNL     1      -1.115  11.455  21.917  0.00  0.00    +0.000 A 
ATOM     26  C   UNL     1      -0.303  10.896  20.931  0.00  0.00    +0.000 A 
ATOM     27  C   UNL     1       0.428   9.712  21.155  0.00  0.00    +0.000 A 
ATOM     28  C   UNL     1       0.357   9.142  22.437  0.00  0.00    +0.000 A 
ATOM     29  C   UNL     1      -0.440   9.713  23.436  0.00  0.00    +0.000 A 
ENDBRANCH  18  27
ENDBRANCH  17  22
ENDBRANCH   1  17
TORSDOF 3
ENDMDL
MODEL 3
REMARK VINA RESULT:      -9.0      0.998      1.633
REMARK  Name = 
REMARK  3 active torsions:
REMARK  status: ('A' for Active; 'I' for Inactive)
REMARK    1  A    between atoms: C_4  and  C_5
REMARK    2  A    between atoms: C_9  and  C_10
REMARK    3  A    between atoms: C_10  and  N_11
REMARK                            x       y       z     vdW  Elec       q    Type
REMARK                         _______ _______ _______ _____ _____    ______ ____
ROOT
ATOM      1  N   UNL     1       0.043  10.023  17.745  0.00  0.00    +0.000 N 
ATOM      2  C   UNL     1      -0.992  10.846  18.241  0.00  0.00    +0.000 A 
ATOM      3  C   UNL     1      -2.332  10.715  17.790  0.00  0.00    +0.000 A 
ATOM      4  C   UNL     1      -3.339  11.461  18.478  0.00  0.00    +0.000 A 
ATOM      5  C   UNL     1      -2.880  12.259  19.507  0.00  0.00    +0.000 A 
ATOM      6  C   UNL     1      -1.541  12.593  19.671  0.00  0.00    +0.000 A 
ATOM      7  N   UNL     1      -0.626  11.830  19.074  0.00  0.00    +0.000 NA
ATOM      8  N   UNL     1      -3.944  12.634  20.273  0.00  0.00    +0.000 N 
ATOM      9  C   UNL     1      -5.081  12.540  19.537  0.00  0.00    +0.000 A 
ATOM     10  C   UNL     1      -6.335  13.095  19.822  0.00  0.00    +0.000 A 
ATOM     11  C   UNL     1      -7.301  13.037  18.825  0.00  0.00    +0.000 A 
ATOM     12  C   UNL     1      -7.022  12.381  17.628  0.00  0.00    +0.000 A 
ATOM     13  C   UNL     1      -5.779  11.743  17.401  0.00  0.00    +0.000 A 
ATOM     14  C   UNL     1      -4.754  11.827  18.375  0.00  0.00    +0.000 A 
ATOM     15  H   UNL     1       0.217  10.304  16.785  0.00  0.00    +0.000 HD
ATOM     16  H   UNL     1      -3.891  13.008  21.207  0.00  0.00    +0.000 HD
ENDROOT
BRANCH   1  17
ATOM     17  C   UNL     1       1.300  10.104  18.537  0.00  0.00    +0.000 C 
BRANCH  17  22
ATOM     18  C   UNL     1       3.083   6.686  18.420  0.00  0.00    +0.000 A 
ATOM     19  C   UNL     1       2.706   6.151  19.662  0.00  0.00    +0.000 A 
ATOM     20  C   UNL     1       1.892   6.878  20.536  0.00  0.00    +0.000 A 
ATOM     21  C   UNL     1       1.440   8.157  20.184  0.00  0.00    +0.000 A 
ATOM     22  C   UNL     1       1.818   8.739  18.964  0.00  0.00    +0.000 A 
ATOM     23  C   UNL     1       2.625   7.982  18.106  0.00  0.00    +0.000 A 
BRANCH  18  27
ATOM     24  C   UNL     1       5.408   4.517  15.525  0.00  0.00    +0.000 A 
ATOM     25  C   UNL     1       4.654   3.834  16.473  0.00  0.00    +0.000 A 
ATOM     26  C   UNL     1       3.946   4.548  17.438  0.00  0.00    +0.000 A 
ATOM     27  C   UNL     1       3.942   5.958  17.462  0.00  0.00    +0.000 A 
ATOM     28  C   UNL     1       4.731   6.623  16.510  0.00  0.00    +0.000 A 
ATOM     29  C   UNL     1       5.460   5.908  15.552  0.00  0.00    +0.000 A 
ENDBRANCH  18  27
ENDBRANCH  17  22
ENDBRANCH   1  17
TORSDOF 3
ENDMDL
MODEL 4
REMARK VINA RESULT:      -9.0      4.092      5.299
REMARK  Name = 
REMARK  3 active torsions:
REMARK  status: ('A' for Active; 'I' for Inactive)
REMARK    1  A    between atoms: C_4  and  C_5
REMARK    2  A    between atoms: C_9  and  C_10
REMARK    3  A    between atoms: C_10  and  N_11
REMARK                            x       y       z     vdW  Elec       q    Type
REMARK                         _______ _______ _______ _____ _____    ______ ____
ROOT
ATOM      1  N   UNL     1       2.709   7.469  17.895  0.00  0.00    +0.000 N 
ATOM      2  C   UNL     1       2.088   7.951  19.069  0.00  0.00    +0.000 A 
ATOM      3  C   UNL     1       1.554   9.264  19.147  0.00  0.00    +0.000 A 
ATOM      4  C   UNL     1       0.786   9.600  20.305  0.00  0.00    +0.000 A 
ATOM      5  C   UNL     1       0.671   8.596  21.246  0.00  0.00    +0.000 A 
ATOM      6  C   UNL     1       1.487   7.471  21.261  0.00  0.00    +0.000 A 
ATOM      7  N   UNL     1       2.131   7.147  20.141  0.00  0.00    +0.000 NA
ATOM      8  N   UNL     1      -0.337   8.920  22.106  0.00  0.00    +0.000 N 
ATOM      9  C   UNL     1      -0.538  10.262  22.074  0.00  0.00    +0.000 A 
ATOM     10  C   UNL     1      -1.251  11.044  22.990  0.00  0.00    +0.000 A 
ATOM     11  C   UNL     1      -1.156  12.424  22.865  0.00  0.00    +0.000 A 
ATOM     12  C   UNL     1      -0.429  12.974  21.810  0.00  0.00    +0.000 A 
ATOM     13  C   UNL     1       0.203  12.162  20.839  0.00  0.00    +0.000 A 
ATOM     14  C   UNL     1       0.169  10.752  20.967  0.00  0.00    +0.000 A 
ATOM     15  H   UNL     1       3.593   7.959  17.799  0.00  0.00    +0.000 HD
ATOM     16  H   UNL     1      -0.800   8.282  22.732  0.00  0.00    +0.000 HD
ENDROOT
BRANCH   1  17
ATOM     17  C   UNL     1       2.937   5.999  17.903  0.00  0.00    +0.000 C 
BRANCH  17  22
ATOM     18  C   UNL     1       6.130   4.911  16.032  0.00  0.00    +0.000 A 
ATOM     19  C   UNL     1       7.038   4.812  17.098  0.00  0.00    +0.000 A 
ATOM     20  C   UNL     1       6.636   5.097  18.407  0.00  0.00    +0.000 A 
ATOM     21  C   UNL     1       5.318   5.488  18.674  0.00  0.00    +0.000 A 
ATOM     22  C   UNL     1       4.387   5.625  17.633  0.00  0.00    +0.000 A 
ATOM     23  C   UNL     1       4.816   5.323  16.335  0.00  0.00    +0.000 A 
BRANCH  18  27
ATOM     24  C   UNL     1       7.048   4.168  11.897  0.00  0.00    +0.000 A 
ATOM     25  C   UNL     1       6.048   3.443  12.534  0.00  0.00    +0.000 A 
ATOM     26  C   UNL     1       5.795   3.657  13.889  0.00  0.00    +0.000 A 
ATOM     27  C   UNL     1       6.506   4.621  14.632  0.00  0.00    +0.000 A 
ATOM     28  C   UNL     1       7.526   5.323  13.970  0.00  0.00    +0.000 A 
ATOM     29  C   UNL     1       7.797   5.096  12.616  0.00  0.00    +0.000 A 
ENDBRANCH  18  27
ENDBRANCH  17  22
ENDBRANCH   1  17
TORSDOF 3
ENDMDL
MODEL 5
REMARK VINA RESULT:      -8.9      3.166      4.962
REMARK  Name = 
REMARK  3 active torsions:
REMARK  status: ('A' for Active; 'I' for Inactive)
REMARK    1  A    between atoms: C_4  and  C_5
REMARK    2  A    between atoms: C_9  and  C_10
REMARK    3  A    between atoms: C_10  and  N_11
REMARK                            x       y       z     vdW  Elec       q    Type
REMARK                         _______ _______ _______ _____ _____    ______ ____
ROOT
ATOM      1  N   UNL     1       2.954   7.403  17.646  0.00  0.00    +0.000 N 
ATOM      2  C   UNL     1       2.204   8.180  18.558  0.00  0.00    +0.000 A 
ATOM      3  C   UNL     1       1.583   9.395  18.168  0.00  0.00    +0.000 A 
ATOM      4  C   UNL     1       0.697  10.017  19.103  0.00  0.00    +0.000 A 
ATOM      5  C   UNL     1       0.566   9.363  20.312  0.00  0.00    +0.000 A 
ATOM      6  C   UNL     1       1.448   8.380  20.744  0.00  0.00    +0.000 A 
ATOM      7  N   UNL     1       2.205   7.770  19.833  0.00  0.00    +0.000 NA
ATOM      8  N   UNL     1      -0.531   9.855  20.955  0.00  0.00    +0.000 N 
ATOM      9  C   UNL     1      -0.815  11.092  20.473  0.00  0.00    +0.000 A 
ATOM     10  C   UNL     1      -1.653  12.061  21.038  0.00  0.00    +0.000 A 
ATOM     11  C   UNL     1      -1.636  13.330  20.473  0.00  0.00    +0.000 A 
ATOM     12  C   UNL     1      -0.857  13.574  19.343  0.00  0.00    +0.000 A 
ATOM     13  C   UNL     1      -0.092  12.552  18.732  0.00  0.00    +0.000 A 
ATOM     14  C   UNL     1      -0.047  11.261  19.312  0.00  0.00    +0.000 A 
ATOM     15  H   UNL     1       3.810   7.912  17.449  0.00  0.00    +0.000 HD
ATOM     16  H   UNL     1      -1.005   9.414  21.726  0.00  0.00    +0.000 HD
ENDROOT
BRANCH   1  17
ATOM     17  C   UNL     1       3.274   6.040  18.148  0.00  0.00    +0.000 C 
BRANCH  17  22
ATOM     18  C   UNL     1       6.193   4.816  15.943  0.00  0.00    +0.000 A 
ATOM     19  C   UNL     1       7.175   4.575  16.917  0.00  0.00    +0.000 A 
ATOM     20  C   UNL     1       6.910   4.808  18.270  0.00  0.00    +0.000 A 
ATOM     21  C   UNL     1       5.658   5.287  18.675  0.00  0.00    +0.000 A 
ATOM     22  C   UNL     1       4.659   5.567  17.731  0.00  0.00    +0.000 A 
ATOM     23  C   UNL     1       4.949   5.314  16.384  0.00  0.00    +0.000 A 
BRANCH  18  27
ATOM     24  C   UNL     1       7.033   4.039  11.798  0.00  0.00    +0.000 A 
ATOM     25  C   UNL     1       7.787   4.970  12.503  0.00  0.00    +0.000 A 
ATOM     26  C   UNL     1       7.472   5.250  13.832  0.00  0.00    +0.000 A 
ATOM     27  C   UNL     1       6.423   4.587  14.501  0.00  0.00    +0.000 A 
ATOM     28  C   UNL     1       5.662   3.670  13.758  0.00  0.00    +0.000 A 
ATOM     29  C   UNL     1       5.962   3.401  12.418  0.00  0.00    +0.000 A 
ENDBRANCH  18  27
ENDBRANCH  17  22
ENDBRANCH   1  17
TORSDOF 3
ENDMDL
MODEL 6
REMARK VINA RESULT:      -8.8      1.873      3.314
REMARK  Name = 
REMARK  3 active torsions:
REMARK  status: ('A' for Active; 'I' for Inactive)
REMARK    1  A    between atoms: C_4  and  C_5
REMARK    2  A    between atoms: C_9  and  C_10
REMARK    3  A    between atoms: C_10  and  N_11
REMARK                            x       y       z     vdW  Elec       q    Type
REMARK                         _______ _______ _______ _____ _____    ______ ____
ROOT
ATOM      1  N   UNL     1       0.313   9.580  17.507  0.00  0.00    +0.000 N 
ATOM      2  C   UNL     1      -0.654  10.468  18.029  0.00  0.00    +0.000 A 
ATOM      3  C   UNL     1      -2.011  10.422  17.614  0.00  0.00    +0.000 A 
ATOM      4  C   UNL     1      -2.950  11.231  18.327  0.00  0.00    +0.000 A 
ATOM      5  C   UNL     1      -2.414  11.999  19.341  0.00  0.00    +0.000 A 
ATOM      6  C   UNL     1      -1.052  12.247  19.468  0.00  0.00    +0.000 A 
ATOM      7  N   UNL     1      -0.204  11.427  18.849  0.00  0.00    +0.000 NA
ATOM      8  N   UNL     1      -3.431  12.442  20.135  0.00  0.00    +0.000 N 
ATOM      9  C   UNL     1      -4.591  12.420  19.430  0.00  0.00    +0.000 A 
ATOM     10  C   UNL     1      -5.798  13.053  19.747  0.00  0.00    +0.000 A 
ATOM     11  C   UNL     1      -6.793  13.056  18.777  0.00  0.00    +0.000 A 
ATOM     12  C   UNL     1      -6.589  12.382  17.574  0.00  0.00    +0.000 A 
ATOM     13  C   UNL     1      -5.395  11.667  17.316  0.00  0.00    +0.000 A 
ATOM     14  C   UNL     1      -4.341  11.686  18.261  0.00  0.00    +0.000 A 
ATOM     15  H   UNL     1       0.478   9.849  16.542  0.00  0.00    +0.000 HD
ATOM     16  H   UNL     1      -3.328  12.812  21.066  0.00  0.00    +0.000 HD
ENDROOT
BRANCH   1  17
ATOM     17  C   UNL     1       1.593   9.582  18.265  0.00  0.00    +0.000 C 
BRANCH  17  22
ATOM     18  C   UNL     1       2.644   5.918  18.858  0.00  0.00    +0.000 A 
ATOM     19  C   UNL     1       3.792   5.841  18.054  0.00  0.00    +0.000 A 
ATOM     20  C   UNL     1       4.227   6.950  17.321  0.00  0.00    +0.000 A 
ATOM     21  C   UNL     1       3.519   8.157  17.377  0.00  0.00    +0.000 A 
ATOM     22  C   UNL     1       2.351   8.268  18.147  0.00  0.00    +0.000 A 
ATOM     23  C   UNL     1       1.947   7.144  18.879  0.00  0.00    +0.000 A 
BRANCH  18  27
ATOM     24  C   UNL     1       1.327   2.470  21.066  0.00  0.00    +0.000 A 
ATOM     25  C   UNL     1       0.952   2.638  19.737  0.00  0.00    +0.000 A 
ATOM     26  C   UNL     1       1.343   3.785  19.048  0.00  0.00    +0.000 A 
ATOM     27  C   UNL     1       2.144   4.775  19.652  0.00  0.00    +0.000 A 
ATOM     28  C   UNL     1       2.489   4.594  21.001  0.00  0.00    +0.000 A 
ATOM     29  C   UNL     1       2.081   3.453  21.702  0.00  0.00    +0.000 A 
ENDBRANCH  18  27
ENDBRANCH  17  22
ENDBRANCH   1  17
TORSDOF 3
ENDMDL
MODEL 7
REMARK VINA RESULT:      -8.8      3.478      4.809
REMARK  Name = 
REMARK  3 active torsions:
REMARK  status: ('A' for Active; 'I' for Inactive)
REMARK    1  A    between atoms: C_4  and  C_5
REMARK    2  A    between atoms: C_9  and  C_10
REMARK    3  A    between atoms: C_10  and  N_11
REMARK                            x       y       z     vdW  Elec       q    Type
REMARK                         _______ _______ _______ _____ _____    ______ ____
ROOT
ATOM      1  N   UNL     1       2.800   7.265  18.817  0.00  0.00    +0.000 N 
ATOM      2  C   UNL     1       1.913   8.336  19.064  0.00  0.00    +0.000 A 
ATOM      3  C   UNL     1       1.427   8.617  20.367  0.00  0.00    +0.000 A 
ATOM      4  C   UNL     1       0.683   9.825  20.552  0.00  0.00    +0.000 A 
ATOM      5  C   UNL     1       0.497  10.580  19.411  0.00  0.00    +0.000 A 
ATOM      6  C   UNL     1       0.704  10.085  18.129  0.00  0.00    +0.000 A 
ATOM      7  N   UNL     1       1.464   9.000  17.990  0.00  0.00    +0.000 NA
ATOM      8  N   UNL     1       0.087  11.828  19.779  0.00  0.00    +0.000 N 
ATOM      9  C   UNL     1      -0.464  11.771  21.018  0.00  0.00    +0.000 A 
ATOM     10  C   UNL     1      -1.263  12.734  21.646  0.00  0.00    +0.000 A 
ATOM     11  C   UNL     1      -1.881  12.374  22.837  0.00  0.00    +0.000 A 
ATOM     12  C   UNL     1      -1.635  11.120  23.394  0.00  0.00    +0.000 A 
ATOM     13  C   UNL     1      -0.746  10.200  22.789  0.00  0.00    +0.000 A 
ATOM     14  C   UNL     1      -0.140  10.514  21.549  0.00  0.00    +0.000 A 
ATOM     15  H   UNL     1       2.274   6.404  18.932  0.00  0.00    +0.000 HD
ATOM     16  H   UNL     1       0.106  12.647  19.193  0.00  0.00    +0.000 HD
ENDROOT
BRANCH   1  17
ATOM     17  C   UNL     1       3.422   7.306  17.465  0.00  0.00    +0.000 C 
BRANCH  17  22
ATOM     18  C   UNL     1       6.068   5.010  15.852  0.00  0.00    +0.000 A 
ATOM     19  C   UNL     1       6.655   4.443  16.994  0.00  0.00    +0.000 A 
ATOM     20  C   UNL     1       6.213   4.795  18.273  0.00  0.00    +0.000 A 
ATOM     21  C   UNL     1       5.177   5.723  18.434  0.00  0.00    +0.000 A 
ATOM     22  C   UNL     1       4.583   6.334  17.320  0.00  0.00    +0.000 A 
ATOM     23  C   UNL     1       5.039   5.953  16.051  0.00  0.00    +0.000 A 
BRANCH  18  27
ATOM     24  C   UNL     1       7.150   4.125  11.785  0.00  0.00    +0.000 A 
ATOM     25  C   UNL     1       6.119   3.427  12.404  0.00  0.00    +0.000 A 
ATOM     26  C   UNL     1       5.812   3.688  13.739  0.00  0.00    +0.000 A 
ATOM     27  C   UNL     1       6.499   4.672  14.479  0.00  0.00    +0.000 A 
ATOM     28  C   UNL     1       7.552   5.344  13.838  0.00  0.00    +0.000 A 
ATOM     29  C   UNL     1       7.876   5.070  12.504  0.00  0.00    +0.000 A 
ENDBRANCH  18  27
ENDBRANCH  17  22
ENDBRANCH   1  17
TORSDOF 3
ENDMDL
MODEL 8
REMARK VINA RESULT:      -8.7      2.220      3.637
REMARK  Name = 
REMARK  3 active torsions:
REMARK  status: ('A' for Active; 'I' for Inactive)
REMARK    1  A    between atoms: C_4  and  C_5
REMARK    2  A    between atoms: C_9  and  C_10
REMARK    3  A    between atoms: C_10  and  N_11
REMARK                            x       y       z     vdW  Elec       q    Type
REMARK                         _______ _______ _______ _____ _____    ______ ____
ROOT
ATOM      1  N   UNL     1       1.552   9.869  19.239  0.00  0.00    +0.000 N 
ATOM      2  C   UNL     1       0.239  10.390  19.281  0.00  0.00    +0.000 A 
ATOM      3  C   UNL     1      -0.262  11.057  20.429  0.00  0.00    +0.000 A 
ATOM      4  C   UNL     1      -1.530  11.710  20.317  0.00  0.00    +0.000 A 
ATOM      5  C   UNL     1      -2.144  11.591  19.086  0.00  0.00    +0.000 A 
ATOM      6  C   UNL     1      -1.762  10.655  18.132  0.00  0.00    +0.000 A 
ATOM      7  N   UNL     1      -0.544  10.123  18.228  0.00  0.00    +0.000 NA
ATOM      8  N   UNL     1      -3.145  12.515  19.009  0.00  0.00    +0.000 N 
ATOM      9  C   UNL     1      -3.522  12.871  20.264  0.00  0.00    +0.000 A 
ATOM     10  C   UNL     1      -4.684  13.550  20.649  0.00  0.00    +0.000 A 
ATOM     11  C   UNL     1      -4.957  13.630  22.009  0.00  0.00    +0.000 A 
ATOM     12  C   UNL     1      -4.050  13.108  22.929  0.00  0.00    +0.000 A 
ATOM     13  C   UNL     1      -2.834  12.512  22.518  0.00  0.00    +0.000 A 
ATOM     14  C   UNL     1      -2.549  12.368  21.138  0.00  0.00    +0.000 A 
ATOM     15  H   UNL     1       1.577   9.066  19.859  0.00  0.00    +0.000 HD
ATOM     16  H   UNL     1      -3.596  12.820  18.162  0.00  0.00    +0.000 HD
ENDROOT
BRANCH   1  17
ATOM     17  C   UNL     1       1.991   9.474  17.873  0.00  0.00    +0.000 C 
BRANCH  17  22
ATOM     18  C   UNL     1       2.815   5.794  18.682  0.00  0.00    +0.000 A 
ATOM     19  C   UNL     1       3.976   5.610  17.914  0.00  0.00    +0.000 A 
ATOM     20  C   UNL     1       4.491   6.653  17.138  0.00  0.00    +0.000 A 
ATOM     21  C   UNL     1       3.853   7.899  17.113  0.00  0.00    +0.000 A 
ATOM     22  C   UNL     1       2.675   8.115  17.843  0.00  0.00    +0.000 A 
ATOM     23  C   UNL     1       2.189   7.056  18.620  0.00  0.00    +0.000 A 
BRANCH  18  27
ATOM     24  C   UNL     1       1.248   2.546  21.024  0.00  0.00    +0.000 A 
ATOM     25  C   UNL     1       0.908   2.670  19.682  0.00  0.00    +0.000 A 
ATOM     26  C   UNL     1       1.382   3.755  18.947  0.00  0.00    +0.000 A 
ATOM     27  C   UNL     1       2.231   4.724  19.519  0.00  0.00    +0.000 A 
ATOM     28  C   UNL     1       2.539   4.589  20.882  0.00  0.00    +0.000 A 
ATOM     29  C   UNL     1       2.049   3.511  21.628  0.00  0.00    +0.000 A 
ENDBRANCH  18  27
ENDBRANCH  17  22
ENDBRANCH   1  17
TORSDOF 3
ENDMDL
MODEL 9
REMARK VINA RESULT:      -8.7      1.167      1.939
REMARK  Name = 
REMARK  3 active torsions:
REMARK  status: ('A' for Active; 'I' for Inactive)
REMARK    1  A    between atoms: C_4  and  C_5
REMARK    2  A    between atoms: C_9  and  C_10
REMARK    3  A    between atoms: C_10  and  N_11
REMARK                            x       y       z     vdW  Elec       q    Type
REMARK                         _______ _______ _______ _____ _____    ______ ____
ROOT
ATOM      1  N   UNL     1       0.379   9.550  17.506  0.00  0.00    +0.000 N 
ATOM      2  C   UNL     1      -0.589  10.448  18.008  0.00  0.00    +0.000 A 
ATOM      3  C   UNL     1      -1.965  10.322  17.680  0.00  0.00    +0.000 A 
ATOM      4  C   UNL     1      -2.892  11.158  18.376  0.00  0.00    +0.000 A 
ATOM      5  C   UNL     1      -2.328  12.029  19.287  0.00  0.00    +0.000 A 
ATOM      6  C   UNL     1      -0.972  12.331  19.312  0.00  0.00    +0.000 A 
ATOM      7  N   UNL     1      -0.130  11.489  18.715  0.00  0.00    +0.000 NA
ATOM      8  N   UNL     1      -3.315  12.506  20.100  0.00  0.00    +0.000 N 
ATOM      9  C   UNL     1      -4.511  12.384  19.470  0.00  0.00    +0.000 A 
ATOM     10  C   UNL     1      -5.722  13.003  19.803  0.00  0.00    +0.000 A 
ATOM     11  C   UNL     1      -6.769  12.889  18.897  0.00  0.00    +0.000 A 
ATOM     12  C   UNL     1      -6.608  12.120  17.746  0.00  0.00    +0.000 A 
ATOM     13  C   UNL     1      -5.405  11.424  17.479  0.00  0.00    +0.000 A 
ATOM     14  C   UNL     1      -4.301  11.560  18.355  0.00  0.00    +0.000 A 
ATOM     15  H   UNL     1       0.480   9.739  16.513  0.00  0.00    +0.000 HD
ATOM     16  H   UNL     1      -3.174  12.958  20.988  0.00  0.00    +0.000 HD
ENDROOT
BRANCH   1  17
ATOM     17  C   UNL     1       1.700   9.660  18.183  0.00  0.00    +0.000 C 
BRANCH  17  22
ATOM     18  C   UNL     1       3.709   6.368  18.123  0.00  0.00    +0.000 A 
ATOM     19  C   UNL     1       3.238   5.752  19.294  0.00  0.00    +0.000 A 
ATOM     20  C   UNL     1       2.289   6.385  20.102  0.00  0.00    +0.000 A 
ATOM     21  C   UNL     1       1.794   7.649  19.755  0.00  0.00    +0.000 A 
ATOM     22  C   UNL     1       2.259   8.310  18.609  0.00  0.00    +0.000 A 
ATOM     23  C   UNL     1       3.201   7.646  17.813  0.00  0.00    +0.000 A 
BRANCH  18  27
ATOM     24  C   UNL     1       6.743   4.505  15.711  0.00  0.00    +0.000 A 
ATOM     25  C   UNL     1       6.937   5.786  16.216  0.00  0.00    +0.000 A 
ATOM     26  C   UNL     1       5.924   6.399  16.953  0.00  0.00    +0.000 A 
ATOM     27  C   UNL     1       4.711   5.740  17.236  0.00  0.00    +0.000 A 
ATOM     28  C   UNL     1       4.531   4.457  16.694  0.00  0.00    +0.000 A 
ATOM     29  C   UNL     1       5.537   3.847  15.936  0.00  0.00    +0.000 A 
ENDBRANCH  18  27
ENDBRANCH  17  22
ENDBRANCH   1  17
TORSDOF 3
ENDMDL
