MODEL 1
REMARK VINA RESULT:      -8.4      0.000      0.000
REMARK  Name = 
REMARK  4 active torsions:
REMARK  status: ('A' for Active; 'I' for Inactive)
REMARK    1  A    between atoms: C_2  and  C_3
REMARK    2  A    between atoms: C_14  and  S_15
REMARK    3  A    between atoms: S_15  and  N_18
REMARK    4  A    between atoms: C_20  and  C_21
REMARK                            x       y       z     vdW  Elec       q    Type
REMARK                         _______ _______ _______ _____ _____    ______ ____
ROOT
ATOM      1  O   UNL     1       6.229   3.067  15.644  0.00  0.00    +0.000 OA
ATOM      2  C   UNL     1       5.681   4.149  15.863  0.00  0.00    +0.000 C 
ATOM      3  N   UNL     1       4.555   4.140  16.663  0.00  0.00    +0.000 N 
ATOM      4  C   UNL     1       3.921   5.231  17.205  0.00  0.00    +0.000 C 
ATOM      5  O   UNL     1       4.264   6.359  16.853  0.00  0.00    +0.000 OA
ATOM      6  N   UNL     1       2.939   4.987  18.170  0.00  0.00    +0.000 N 
ATOM      7  C   UNL     1       2.564   3.659  18.681  0.00  0.00    +0.000 C 
ATOM      8  C   UNL     1       2.826   3.567  20.171  0.00  0.00    +0.000 C 
ATOM      9  C   UNL     1       1.979   4.593  20.913  0.00  0.00    +0.000 C 
ATOM     10  C   UNL     1       1.905   5.928  20.212  0.00  0.00    +0.000 A 
ATOM     11  C   UNL     1       1.399   7.036  20.926  0.00  0.00    +0.000 A 
ATOM     12  C   UNL     1       1.326   8.296  20.324  0.00  0.00    +0.000 A 
ATOM     13  C   UNL     1       1.752   8.468  19.013  0.00  0.00    +0.000 A 
ATOM     14  C   UNL     1       2.236   7.372  18.301  0.00  0.00    +0.000 A 
ATOM     15  C   UNL     1       2.346   6.096  18.882  0.00  0.00    +0.000 A 
ATOM     16  H   UNL     1       4.266   3.205  16.874  0.00  0.00    +0.000 HD
ENDROOT
BRANCH  12  17
ATOM     17  S   UNL     1       0.771   9.713  21.258  0.00  0.00    +0.000 S 
ATOM     18  O   UNL     1      -0.505   9.351  21.821  0.00  0.00    +0.000 OA
ATOM     19  O   UNL     1       1.877  10.121  22.108  0.00  0.00    +0.000 OA
BRANCH  17  20
ATOM     20  N   UNL     1       0.602  10.887  20.096  0.00  0.00    +0.000 N 
ATOM     21  C   UNL     1       1.456  12.092  20.125  0.00  0.00    +0.000 C 
ATOM     22  C   UNL     1       1.104  12.709  18.752  0.00  0.00    +0.000 C 
ATOM     23  N   UNL     1      -0.183  12.138  18.437  0.00  0.00    +0.000 N 
ATOM     24  C   UNL     1      -0.398  10.966  19.121  0.00  0.00    +0.000 C 
ATOM     25  O   UNL     1      -1.259  10.154  18.866  0.00  0.00    +0.000 OA
ATOM     26  H   UNL     1      -0.710  12.326  17.593  0.00  0.00    +0.000 HD
BRANCH  22  27
ATOM     27  C   UNL     1       1.113  14.214  18.690  0.00  0.00    +0.000 A 
ATOM     28  C   UNL     1      -0.086  14.935  18.824  0.00  0.00    +0.000 A 
ATOM     29  C   UNL     1      -0.095  16.327  18.715  0.00  0.00    +0.000 A 
ATOM     30  C   UNL     1       1.090  17.017  18.474  0.00  0.00    +0.000 A 
ATOM     31  C   UNL     1       2.290  16.319  18.365  0.00  0.00    +0.000 A 
ATOM     32  C   UNL     1       2.303  14.928  18.479  0.00  0.00    +0.000 A 
ENDBRANCH  22  27
ENDBRANCH  17  20
ENDBRANCH  12  17
BRANCH   2  33
ATOM     33  C   UNL     1       6.142   5.486  15.300  0.00  0.00    +0.000 C 
ATOM     34 CL   UNL     1       7.318   5.272  13.990  0.00  0.00    +0.000 Cl
ENDBRANCH   2  33
TORSDOF 4
ENDMDL
MODEL 2
REMARK VINA RESULT:      -8.4      3.768      9.167
REMARK  Name = 
REMARK  4 active torsions:
REMARK  status: ('A' for Active; 'I' for Inactive)
REMARK    1  A    between atoms: C_2  and  C_3
REMARK    2  A    between atoms: C_14  and  S_15
REMARK    3  A    between atoms: S_15  and  N_18
REMARK    4  A    between atoms: C_20  and  C_21
REMARK                            x       y       z     vdW  Elec       q    Type
REMARK                         _______ _______ _______ _____ _____    ______ ____
ROOT
ATOM      1  O   UNL     1      -2.515  12.833  19.174  0.00  0.00    +0.000 OA
ATOM      2  C   UNL     1      -1.876  11.957  18.589  0.00  0.00    +0.000 C 
ATOM      3  N   UNL     1      -0.792  11.413  19.249  0.00  0.00    +0.000 N 
ATOM      4  C   UNL     1      -0.081  10.296  18.883  0.00  0.00    +0.000 C 
ATOM      5  O   UNL     1      -0.299   9.779  17.789  0.00  0.00    +0.000 OA
ATOM      6  N   UNL     1       0.831   9.785  19.813  0.00  0.00    +0.000 N 
ATOM      7  C   UNL     1       1.055  10.323  21.164  0.00  0.00    +0.000 C 
ATOM      8  C   UNL     1       0.721   9.282  22.214  0.00  0.00    +0.000 C 
ATOM      9  C   UNL     1       1.629   8.070  22.053  0.00  0.00    +0.000 C 
ATOM     10  C   UNL     1       1.861   7.681  20.612  0.00  0.00    +0.000 A 
ATOM     11  C   UNL     1       2.438   6.422  20.339  0.00  0.00    +0.000 A 
ATOM     12  C   UNL     1       2.657   6.013  19.019  0.00  0.00    +0.000 A 
ATOM     13  C   UNL     1       2.307   6.845  17.963  0.00  0.00    +0.000 A 
ATOM     14  C   UNL     1       1.751   8.095  18.233  0.00  0.00    +0.000 A 
ATOM     15  C   UNL     1       1.495   8.529  19.545  0.00  0.00    +0.000 A 
ATOM     16  H   UNL     1      -0.602  11.901  20.102  0.00  0.00    +0.000 HD
ENDROOT
BRANCH  12  17
ATOM     17  S   UNL     1       3.304   4.384  18.675  0.00  0.00    +0.000 S 
ATOM     18  O   UNL     1       3.755   3.853  19.935  0.00  0.00    +0.000 OA
ATOM     19  O   UNL     1       2.302   3.689  17.884  0.00  0.00    +0.000 OA
BRANCH  17  20
ATOM     20  N   UNL     1       4.582   4.694  17.662  0.00  0.00    +0.000 N 
ATOM     21  C   UNL     1       4.371   4.793  16.203  0.00  0.00    +0.000 C 
ATOM     22  C   UNL     1       5.752   5.328  15.763  0.00  0.00    +0.000 C 
ATOM     23  N   UNL     1       6.631   4.944  16.841  0.00  0.00    +0.000 N 
ATOM     24  C   UNL     1       5.938   4.729  18.007  0.00  0.00    +0.000 C 
ATOM     25  O   UNL     1       6.430   4.651  19.110  0.00  0.00    +0.000 OA
ATOM     26  H   UNL     1       7.622   5.145  16.880  0.00  0.00    +0.000 HD
BRANCH  22  27
ATOM     27  C   UNL     1       6.234   4.862  14.414  0.00  0.00    +0.000 A 
ATOM     28  C   UNL     1       5.515   3.884  13.705  0.00  0.00    +0.000 A 
ATOM     29  C   UNL     1       5.982   3.407  12.478  0.00  0.00    +0.000 A 
ATOM     30  C   UNL     1       7.167   3.902  11.941  0.00  0.00    +0.000 A 
ATOM     31  C   UNL     1       7.877   4.891  12.619  0.00  0.00    +0.000 A 
ATOM     32  C   UNL     1       7.410   5.373  13.843  0.00  0.00    +0.000 A 
ENDBRANCH  22  27
ENDBRANCH  17  20
ENDBRANCH  12  17
BRANCH   2  33
ATOM     33  C   UNL     1      -2.182  11.449  17.187  0.00  0.00    +0.000 C 
ATOM     34 CL   UNL     1      -3.613  10.401  17.171  0.00  0.00    +0.000 Cl
ENDBRANCH   2  33
TORSDOF 4
ENDMDL
MODEL 3
REMARK VINA RESULT:      -8.4      2.171      3.158
REMARK  Name = 
REMARK  4 active torsions:
REMARK  status: ('A' for Active; 'I' for Inactive)
REMARK    1  A    between atoms: C_2  and  C_3
REMARK    2  A    between atoms: C_14  and  S_15
REMARK    3  A    between atoms: S_15  and  N_18
REMARK    4  A    between atoms: C_20  and  C_21
REMARK                            x       y       z     vdW  Elec       q    Type
REMARK                         _______ _______ _______ _____ _____    ______ ____
ROOT
ATOM      1  O   UNL     1       6.239   3.254  15.735  0.00  0.00    +0.000 OA
ATOM      2  C   UNL     1       5.709   4.329  16.025  0.00  0.00    +0.000 C 
ATOM      3  N   UNL     1       4.544   4.284  16.765  0.00  0.00    +0.000 N 
ATOM      4  C   UNL     1       3.914   5.342  17.373  0.00  0.00    +0.000 C 
ATOM      5  O   UNL     1       4.304   6.485  17.142  0.00  0.00    +0.000 OA
ATOM      6  N   UNL     1       2.877   5.043  18.263  0.00  0.00    +0.000 N 
ATOM      7  C   UNL     1       2.441   3.687  18.632  0.00  0.00    +0.000 C 
ATOM      8  C   UNL     1       2.624   3.454  20.118  0.00  0.00    +0.000 C 
ATOM      9  C   UNL     1       1.768   4.435  20.909  0.00  0.00    +0.000 C 
ATOM     10  C   UNL     1       1.766   5.830  20.330  0.00  0.00    +0.000 A 
ATOM     11  C   UNL     1       1.255   6.885  21.117  0.00  0.00    +0.000 A 
ATOM     12  C   UNL     1       1.246   8.195  20.629  0.00  0.00    +0.000 A 
ATOM     13  C   UNL     1       1.743   8.471  19.361  0.00  0.00    +0.000 A 
ATOM     14  C   UNL     1       2.233   7.427  18.577  0.00  0.00    +0.000 A 
ATOM     15  C   UNL     1       2.279   6.102  19.044  0.00  0.00    +0.000 A 
ATOM     16  H   UNL     1       4.219   3.343  16.876  0.00  0.00    +0.000 HD
ENDROOT
BRANCH  12  17
ATOM     17  S   UNL     1       0.683   9.539  21.661  0.00  0.00    +0.000 S 
ATOM     18  O   UNL     1      -0.252   8.967  22.596  0.00  0.00    +0.000 OA
ATOM     19  O   UNL     1       1.867  10.246  22.121  0.00  0.00    +0.000 OA
BRANCH  17  20
ATOM     20  N   UNL     1      -0.085  10.543  20.584  0.00  0.00    +0.000 N 
ATOM     21  C   UNL     1      -1.392  10.162  20.012  0.00  0.00    +0.000 C 
ATOM     22  C   UNL     1      -1.781  11.484  19.313  0.00  0.00    +0.000 C 
ATOM     23  N   UNL     1      -0.518  12.156  19.119  0.00  0.00    +0.000 N 
ATOM     24  C   UNL     1       0.437  11.699  19.995  0.00  0.00    +0.000 C 
ATOM     25  O   UNL     1       1.490  12.248  20.231  0.00  0.00    +0.000 OA
ATOM     26  H   UNL     1      -0.405  13.064  18.688  0.00  0.00    +0.000 HD
BRANCH  22  27
ATOM     27  C   UNL     1      -2.575  11.342  18.041  0.00  0.00    +0.000 A 
ATOM     28  C   UNL     1      -3.943  11.663  18.022  0.00  0.00    +0.000 A 
ATOM     29  C   UNL     1      -4.701  11.485  16.862  0.00  0.00    +0.000 A 
ATOM     30  C   UNL     1      -4.102  10.988  15.707  0.00  0.00    +0.000 A 
ATOM     31  C   UNL     1      -2.742  10.691  15.703  0.00  0.00    +0.000 A 
ATOM     32  C   UNL     1      -1.982  10.873  16.859  0.00  0.00    +0.000 A 
ENDBRANCH  22  27
ENDBRANCH  17  20
ENDBRANCH  12  17
BRANCH   2  33
ATOM     33  C   UNL     1       6.234   5.695  15.609  0.00  0.00    +0.000 C 
ATOM     34 CL   UNL     1       7.443   6.307  16.754  0.00  0.00    +0.000 Cl
ENDBRANCH   2  33
TORSDOF 4
ENDMDL
MODEL 4
REMARK VINA RESULT:      -8.2      2.076      3.249
REMARK  Name = 
REMARK  4 active torsions:
REMARK  status: ('A' for Active; 'I' for Inactive)
REMARK    1  A    between atoms: C_2  and  C_3
REMARK    2  A    between atoms: C_14  and  S_15
REMARK    3  A    between atoms: S_15  and  N_18
REMARK    4  A    between atoms: C_20  and  C_21
REMARK                            x       y       z     vdW  Elec       q    Type
REMARK                         _______ _______ _______ _____ _____    ______ ____
ROOT
ATOM      1  O   UNL     1       6.377   3.080  15.509  0.00  0.00    +0.000 OA
ATOM      2  C   UNL     1       5.844   4.159  15.775  0.00  0.00    +0.000 C 
ATOM      3  N   UNL     1       4.707   4.129  16.559  0.00  0.00    +0.000 N 
ATOM      4  C   UNL     1       4.085   5.203  17.147  0.00  0.00    +0.000 C 
ATOM      5  O   UNL     1       4.451   6.341  16.857  0.00  0.00    +0.000 OA
ATOM      6  N   UNL     1       3.085   4.928  18.086  0.00  0.00    +0.000 N 
ATOM      7  C   UNL     1       2.681   3.583  18.524  0.00  0.00    +0.000 C 
ATOM      8  C   UNL     1       2.921   3.412  20.011  0.00  0.00    +0.000 C 
ATOM      9  C   UNL     1       2.081   4.413  20.793  0.00  0.00    +0.000 C 
ATOM     10  C   UNL     1       2.039   5.784  20.159  0.00  0.00    +0.000 A 
ATOM     11  C   UNL     1       1.543   6.863  20.922  0.00  0.00    +0.000 A 
ATOM     12  C   UNL     1       1.499   8.153  20.383  0.00  0.00    +0.000 A 
ATOM     13  C   UNL     1       1.945   8.383  19.088  0.00  0.00    +0.000 A 
ATOM     14  C   UNL     1       2.421   7.315  18.328  0.00  0.00    +0.000 A 
ATOM     15  C   UNL     1       2.501   6.010  18.846  0.00  0.00    +0.000 A 
ATOM     16  H   UNL     1       4.399   3.190  16.719  0.00  0.00    +0.000 HD
ENDROOT
BRANCH  12  17
ATOM     17  S   UNL     1       0.955   9.530  21.380  0.00  0.00    +0.000 S 
ATOM     18  O   UNL     1       0.065   8.984  22.373  0.00  0.00    +0.000 OA
ATOM     19  O   UNL     1       2.144  10.271  21.766  0.00  0.00    +0.000 OA
BRANCH  17  20
ATOM     20  N   UNL     1       0.132  10.479  20.294  0.00  0.00    +0.000 N 
ATOM     21  C   UNL     1      -1.219  10.089  19.839  0.00  0.00    +0.000 C 
ATOM     22  C   UNL     1      -1.632  11.372  19.082  0.00  0.00    +0.000 C 
ATOM     23  N   UNL     1      -0.375  12.003  18.759  0.00  0.00    +0.000 N 
ATOM     24  C   UNL     1       0.631  11.583  19.596  0.00  0.00    +0.000 C 
ATOM     25  O   UNL     1       1.707  12.124  19.724  0.00  0.00    +0.000 OA
ATOM     26  H   UNL     1      -0.276  12.878  18.262  0.00  0.00    +0.000 HD
BRANCH  22  27
ATOM     27  C   UNL     1      -2.514  11.165  17.879  0.00  0.00    +0.000 A 
ATOM     28  C   UNL     1      -2.015  10.512  16.739  0.00  0.00    +0.000 A 
ATOM     29  C   UNL     1      -2.808  10.363  15.599  0.00  0.00    +0.000 A 
ATOM     30  C   UNL     1      -4.109  10.859  15.583  0.00  0.00    +0.000 A 
ATOM     31  C   UNL     1      -4.627  11.485  16.714  0.00  0.00    +0.000 A 
ATOM     32  C   UNL     1      -3.838  11.632  17.856  0.00  0.00    +0.000 A 
ENDBRANCH  22  27
ENDBRANCH  17  20
ENDBRANCH  12  17
BRANCH   2  33
ATOM     33  C   UNL     1       6.335   5.514  15.286  0.00  0.00    +0.000 C 
ATOM     34 CL   UNL     1       7.543   5.345  13.998  0.00  0.00    +0.000 Cl
ENDBRANCH   2  33
TORSDOF 4
ENDMDL
MODEL 5
REMARK VINA RESULT:      -8.2      3.502      4.993
REMARK  Name = 
REMARK  4 active torsions:
REMARK  status: ('A' for Active; 'I' for Inactive)
REMARK    1  A    between atoms: C_2  and  C_3
REMARK    2  A    between atoms: C_14  and  S_15
REMARK    3  A    between atoms: S_15  and  N_18
REMARK    4  A    between atoms: C_20  and  C_21
REMARK                            x       y       z     vdW  Elec       q    Type
REMARK                         _______ _______ _______ _____ _____    ______ ____
ROOT
ATOM      1  O   UNL     1       2.674   2.176  18.384  0.00  0.00    +0.000 OA
ATOM      2  C   UNL     1       2.237   2.976  19.214  0.00  0.00    +0.000 C 
ATOM      3  N   UNL     1       2.665   4.285  19.121  0.00  0.00    +0.000 N 
ATOM      4  C   UNL     1       2.152   5.369  19.792  0.00  0.00    +0.000 C 
ATOM      5  O   UNL     1       1.328   5.184  20.686  0.00  0.00    +0.000 OA
ATOM      6  N   UNL     1       2.576   6.636  19.380  0.00  0.00    +0.000 N 
ATOM      7  C   UNL     1       3.491   6.901  18.258  0.00  0.00    +0.000 C 
ATOM      8  C   UNL     1       2.804   7.735  17.195  0.00  0.00    +0.000 C 
ATOM      9  C   UNL     1       2.395   9.083  17.773  0.00  0.00    +0.000 C 
ATOM     10  C   UNL     1       1.840   8.990  19.175  0.00  0.00    +0.000 A 
ATOM     11  C   UNL     1       1.166  10.111  19.708  0.00  0.00    +0.000 A 
ATOM     12  C   UNL     1       0.623  10.067  20.995  0.00  0.00    +0.000 A 
ATOM     13  C   UNL     1       0.741   8.915  21.763  0.00  0.00    +0.000 A 
ATOM     14  C   UNL     1       1.420   7.813  21.245  0.00  0.00    +0.000 A 
ATOM     15  C   UNL     1       1.959   7.815  19.946  0.00  0.00    +0.000 A 
ATOM     16  H   UNL     1       3.383   4.386  18.430  0.00  0.00    +0.000 HD
ENDROOT
BRANCH  12  17
ATOM     17  S   UNL     1      -0.306  11.453  21.632  0.00  0.00    +0.000 S 
ATOM     18  O   UNL     1      -0.897  11.009  22.869  0.00  0.00    +0.000 OA
ATOM     19  O   UNL     1       0.575  12.607  21.593  0.00  0.00    +0.000 OA
BRANCH  17  20
ATOM     20  N   UNL     1      -1.464  11.695  20.467  0.00  0.00    +0.000 N 
ATOM     21  C   UNL     1      -1.784  10.625  19.500  0.00  0.00    +0.000 C 
ATOM     22  C   UNL     1      -3.044  11.225  18.835  0.00  0.00    +0.000 C 
ATOM     23  N   UNL     1      -2.925  12.641  19.086  0.00  0.00    +0.000 N 
ATOM     24  C   UNL     1      -2.111  12.898  20.163  0.00  0.00    +0.000 C 
ATOM     25  O   UNL     1      -2.038  13.955  20.749  0.00  0.00    +0.000 OA
ATOM     26  H   UNL     1      -3.593  13.340  18.789  0.00  0.00    +0.000 HD
BRANCH  22  27
ATOM     27  C   UNL     1      -3.232  10.898  17.377  0.00  0.00    +0.000 A 
ATOM     28  C   UNL     1      -2.371   9.988  16.739  0.00  0.00    +0.000 A 
ATOM     29  C   UNL     1      -2.504   9.718  15.375  0.00  0.00    +0.000 A 
ATOM     30  C   UNL     1      -3.500  10.348  14.632  0.00  0.00    +0.000 A 
ATOM     31  C   UNL     1      -4.377  11.232  15.256  0.00  0.00    +0.000 A 
ATOM     32  C   UNL     1      -4.250  11.499  16.620  0.00  0.00    +0.000 A 
ENDBRANCH  22  27
ENDBRANCH  17  20
ENDBRANCH  12  17
BRANCH   2  33
ATOM     33  C   UNL     1       1.281   2.619  20.343  0.00  0.00    +0.000 C 
ATOM     34 CL   UNL     1       2.148   2.318  21.861  0.00  0.00    +0.000 Cl
ENDBRANCH   2  33
TORSDOF 4
ENDMDL
MODEL 6
REMARK VINA RESULT:      -8.1      1.065      1.067
REMARK  Name = 
REMARK  4 active torsions:
REMARK  status: ('A' for Active; 'I' for Inactive)
REMARK    1  A    between atoms: C_2  and  C_3
REMARK    2  A    between atoms: C_14  and  S_15
REMARK    3  A    between atoms: S_15  and  N_18
REMARK    4  A    between atoms: C_20  and  C_21
REMARK                            x       y       z     vdW  Elec       q    Type
REMARK                         _______ _______ _______ _____ _____    ______ ____
ROOT
ATOM      1  O   UNL     1       7.257   3.892  16.514  0.00  0.00    +0.000 OA
ATOM      2  C   UNL     1       6.601   4.930  16.620  0.00  0.00    +0.000 C 
ATOM      3  N   UNL     1       5.348   4.833  17.193  0.00  0.00    +0.000 N 
ATOM      4  C   UNL     1       4.547   5.872  17.600  0.00  0.00    +0.000 C 
ATOM      5  O   UNL     1       4.866   7.024  17.312  0.00  0.00    +0.000 OA
ATOM      6  N   UNL     1       3.421   5.550  18.365  0.00  0.00    +0.000 N 
ATOM      7  C   UNL     1       3.054   4.194  18.804  0.00  0.00    +0.000 C 
ATOM      8  C   UNL     1       3.037   4.111  20.318  0.00  0.00    +0.000 C 
ATOM      9  C   UNL     1       1.994   5.066  20.881  0.00  0.00    +0.000 C 
ATOM     10  C   UNL     1       1.956   6.399  20.170  0.00  0.00    +0.000 A 
ATOM     11  C   UNL     1       1.247   7.462  20.771  0.00  0.00    +0.000 A 
ATOM     12  C   UNL     1       1.197   8.717  20.157  0.00  0.00    +0.000 A 
ATOM     13  C   UNL     1       1.847   8.930  18.948  0.00  0.00    +0.000 A 
ATOM     14  C   UNL     1       2.535   7.876  18.347  0.00  0.00    +0.000 A 
ATOM     15  C   UNL     1       2.626   6.608  18.947  0.00  0.00    +0.000 A 
ATOM     16  H   UNL     1       5.093   3.878  17.352  0.00  0.00    +0.000 HD
ENDROOT
BRANCH  12  17
ATOM     17  S   UNL     1       0.375  10.083  20.962  0.00  0.00    +0.000 S 
ATOM     18  O   UNL     1      -0.987   9.666  21.176  0.00  0.00    +0.000 OA
ATOM     19  O   UNL     1       1.218  10.490  22.073  0.00  0.00    +0.000 OA
BRANCH  17  20
ATOM     20  N   UNL     1       0.460  11.294  19.829  0.00  0.00    +0.000 N 
ATOM     21  C   UNL     1       1.455  12.377  19.969  0.00  0.00    +0.000 C 
ATOM     22  C   UNL     1       1.307  13.063  18.592  0.00  0.00    +0.000 C 
ATOM     23  N   UNL     1      -0.009  12.671  18.150  0.00  0.00    +0.000 N 
ATOM     24  C   UNL     1      -0.432  11.523  18.776  0.00  0.00    +0.000 C 
ATOM     25  O   UNL     1      -1.363  10.835  18.422  0.00  0.00    +0.000 OA
ATOM     26  H   UNL     1      -0.431  12.944  17.272  0.00  0.00    +0.000 HD
BRANCH  22  27
ATOM     27  C   UNL     1       1.514  14.555  18.580  0.00  0.00    +0.000 A 
ATOM     28  C   UNL     1       0.503  15.413  19.047  0.00  0.00    +0.000 A 
ATOM     29  C   UNL     1       0.664  16.800  18.991  0.00  0.00    +0.000 A 
ATOM     30  C   UNL     1       1.834  17.347  18.472  0.00  0.00    +0.000 A 
ATOM     31  C   UNL     1       2.855  16.509  18.029  0.00  0.00    +0.000 A 
ATOM     32  C   UNL     1       2.700  15.124  18.089  0.00  0.00    +0.000 A 
ENDBRANCH  22  27
ENDBRANCH  17  20
ENDBRANCH  12  17
BRANCH   2  33
ATOM     33  C   UNL     1       7.061   6.301  16.145  0.00  0.00    +0.000 C 
ATOM     34 CL   UNL     1       7.846   7.213  17.447  0.00  0.00    +0.000 Cl
ENDBRANCH   2  33
TORSDOF 4
ENDMDL
MODEL 7
REMARK VINA RESULT:      -8.0      4.101      9.115
REMARK  Name = 
REMARK  4 active torsions:
REMARK  status: ('A' for Active; 'I' for Inactive)
REMARK    1  A    between atoms: C_2  and  C_3
REMARK    2  A    between atoms: C_14  and  S_15
REMARK    3  A    between atoms: S_15  and  N_18
REMARK    4  A    between atoms: C_20  and  C_21
REMARK                            x       y       z     vdW  Elec       q    Type
REMARK                         _______ _______ _______ _____ _____    ______ ____
ROOT
ATOM      1  O   UNL     1      -3.519  11.824  17.875  0.00  0.00    +0.000 OA
ATOM      2  C   UNL     1      -2.646  11.051  17.473  0.00  0.00    +0.000 C 
ATOM      3  N   UNL     1      -1.551  10.850  18.289  0.00  0.00    +0.000 N 
ATOM      4  C   UNL     1      -0.581   9.888  18.143  0.00  0.00    +0.000 C 
ATOM      5  O   UNL     1      -0.561   9.208  17.119  0.00  0.00    +0.000 OA
ATOM      6  N   UNL     1       0.310   9.712  19.207  0.00  0.00    +0.000 N 
ATOM      7  C   UNL     1       0.263  10.443  20.482  0.00  0.00    +0.000 C 
ATOM      8  C   UNL     1       0.046   9.487  21.638  0.00  0.00    +0.000 C 
ATOM      9  C   UNL     1       1.204   8.502  21.724  0.00  0.00    +0.000 C 
ATOM     10  C   UNL     1       1.671   8.007  20.375  0.00  0.00    +0.000 A 
ATOM     11  C   UNL     1       2.531   6.888  20.330  0.00  0.00    +0.000 A 
ATOM     12  C   UNL     1       2.978   6.385  19.104  0.00  0.00    +0.000 A 
ATOM     13  C   UNL     1       2.576   6.984  17.916  0.00  0.00    +0.000 A 
ATOM     14  C   UNL     1       1.740   8.099  17.961  0.00  0.00    +0.000 A 
ATOM     15  C   UNL     1       1.253   8.617  19.174  0.00  0.00    +0.000 A 
ATOM     16  H   UNL     1      -1.565  11.467  19.078  0.00  0.00    +0.000 HD
ENDROOT
BRANCH  12  17
ATOM     17  S   UNL     1       3.992   4.916  19.045  0.00  0.00    +0.000 S 
ATOM     18  O   UNL     1       4.691   4.857  20.304  0.00  0.00    +0.000 OA
ATOM     19  O   UNL     1       3.134   3.826  18.612  0.00  0.00    +0.000 OA
BRANCH  17  20
ATOM     20  N   UNL     1       5.036   5.230  17.793  0.00  0.00    +0.000 N 
ATOM     21  C   UNL     1       4.644   4.926  16.402  0.00  0.00    +0.000 C 
ATOM     22  C   UNL     1       5.798   5.613  15.637  0.00  0.00    +0.000 C 
ATOM     23  N   UNL     1       6.859   5.693  16.611  0.00  0.00    +0.000 N 
ATOM     24  C   UNL     1       6.373   5.629  17.895  0.00  0.00    +0.000 C 
ATOM     25  O   UNL     1       6.991   5.925  18.893  0.00  0.00    +0.000 OA
ATOM     26  H   UNL     1       7.770   6.099  16.443  0.00  0.00    +0.000 HD
BRANCH  22  27
ATOM     27  C   UNL     1       6.222   4.944  14.356  0.00  0.00    +0.000 A 
ATOM     28  C   UNL     1       7.398   5.350  13.701  0.00  0.00    +0.000 A 
ATOM     29  C   UNL     1       7.772   4.773  12.485  0.00  0.00    +0.000 A 
ATOM     30  C   UNL     1       6.980   3.782  11.910  0.00  0.00    +0.000 A 
ATOM     31  C   UNL     1       5.826   3.351  12.559  0.00  0.00    +0.000 A 
ATOM     32  C   UNL     1       5.453   3.922  13.776  0.00  0.00    +0.000 A 
ENDBRANCH  22  27
ENDBRANCH  17  20
ENDBRANCH  12  17
BRANCH   2  33
ATOM     33  C   UNL     1      -2.680  10.324  16.137  0.00  0.00    +0.000 C 
ATOM     34 CL   UNL     1      -3.677  11.186  14.949  0.00  0.00    +0.000 Cl
ENDBRANCH   2  33
TORSDOF 4
ENDMDL
MODEL 8
REMARK VINA RESULT:      -8.0      3.304      4.874
REMARK  Name = 
REMARK  4 active torsions:
REMARK  status: ('A' for Active; 'I' for Inactive)
REMARK    1  A    between atoms: C_2  and  C_3
REMARK    2  A    between atoms: C_14  and  S_15
REMARK    3  A    between atoms: S_15  and  N_18
REMARK    4  A    between atoms: C_20  and  C_21
REMARK                            x       y       z     vdW  Elec       q    Type
REMARK                         _______ _______ _______ _____ _____    ______ ____
ROOT
ATOM      1  O   UNL     1       7.480   4.120  11.831  0.00  0.00    +0.000 OA
ATOM      2  C   UNL     1       6.529   3.862  12.573  0.00  0.00    +0.000 C 
ATOM      3  N   UNL     1       6.742   3.954  13.934  0.00  0.00    +0.000 N 
ATOM      4  C   UNL     1       5.787   3.922  14.920  0.00  0.00    +0.000 C 
ATOM      5  O   UNL     1       4.628   3.637  14.623  0.00  0.00    +0.000 OA
ATOM      6  N   UNL     1       6.193   4.263  16.215  0.00  0.00    +0.000 N 
ATOM      7  C   UNL     1       7.548   4.694  16.593  0.00  0.00    +0.000 C 
ATOM      8  C   UNL     1       7.521   6.099  17.161  0.00  0.00    +0.000 C 
ATOM      9  C   UNL     1       6.668   6.135  18.422  0.00  0.00    +0.000 C 
ATOM     10  C   UNL     1       5.407   5.310  18.315  0.00  0.00    +0.000 A 
ATOM     11  C   UNL     1       4.402   5.487  19.291  0.00  0.00    +0.000 A 
ATOM     12  C   UNL     1       3.211   4.756  19.225  0.00  0.00    +0.000 A 
ATOM     13  C   UNL     1       3.007   3.847  18.195  0.00  0.00    +0.000 A 
ATOM     14  C   UNL     1       4.006   3.659  17.240  0.00  0.00    +0.000 A 
ATOM     15  C   UNL     1       5.205   4.393  17.262  0.00  0.00    +0.000 A 
ATOM     16  H   UNL     1       7.708   4.120  14.141  0.00  0.00    +0.000 HD
ENDROOT
BRANCH  12  17
ATOM     17  S   UNL     1       1.906   5.048  20.408  0.00  0.00    +0.000 S 
ATOM     18  O   UNL     1       0.741   4.370  19.899  0.00  0.00    +0.000 OA
ATOM     19  O   UNL     1       2.444   4.733  21.720  0.00  0.00    +0.000 OA
BRANCH  17  20
ATOM     20  N   UNL     1       1.711   6.696  20.353  0.00  0.00    +0.000 N 
ATOM     21  C   UNL     1       1.227   7.429  21.541  0.00  0.00    +0.000 C 
ATOM     22  C   UNL     1       1.462   8.885  21.079  0.00  0.00    +0.000 C 
ATOM     23  N   UNL     1       1.496   8.789  19.640  0.00  0.00    +0.000 N 
ATOM     24  C   UNL     1       1.807   7.517  19.224  0.00  0.00    +0.000 C 
ATOM     25  O   UNL     1       2.151   7.210  18.105  0.00  0.00    +0.000 OA
ATOM     26  H   UNL     1       1.640   9.568  19.010  0.00  0.00    +0.000 HD
BRANCH  22  27
ATOM     27  C   UNL     1       0.468   9.899  21.580  0.00  0.00    +0.000 A 
ATOM     28  C   UNL     1       0.307  11.124  20.911  0.00  0.00    +0.000 A 
ATOM     29  C   UNL     1      -0.573  12.092  21.398  0.00  0.00    +0.000 A 
ATOM     30  C   UNL     1      -1.308  11.849  22.556  0.00  0.00    +0.000 A 
ATOM     31  C   UNL     1      -1.180  10.629  23.216  0.00  0.00    +0.000 A 
ATOM     32  C   UNL     1      -0.304   9.658  22.728  0.00  0.00    +0.000 A 
ENDBRANCH  22  27
ENDBRANCH  17  20
ENDBRANCH  12  17
BRANCH   2  33
ATOM     33  C   UNL     1       5.150   3.430  12.097  0.00  0.00    +0.000 C 
ATOM     34 CL   UNL     1       5.223   1.921  11.168  0.00  0.00    +0.000 Cl
ENDBRANCH   2  33
TORSDOF 4
ENDMDL
MODEL 9
REMARK VINA RESULT:      -7.9      3.320      4.433
REMARK  Name = 
REMARK  4 active torsions:
REMARK  status: ('A' for Active; 'I' for Inactive)
REMARK    1  A    between atoms: C_2  and  C_3
REMARK    2  A    between atoms: C_14  and  S_15
REMARK    3  A    between atoms: S_15  and  N_18
REMARK    4  A    between atoms: C_20  and  C_21
REMARK                            x       y       z     vdW  Elec       q    Type
REMARK                         _______ _______ _______ _____ _____    ______ ____
ROOT
ATOM      1  O   UNL     1       6.204   3.848  18.334  0.00  0.00    +0.000 OA
ATOM      2  C   UNL     1       5.748   4.912  17.912  0.00  0.00    +0.000 C 
ATOM      3  N   UNL     1       4.479   5.267  18.326  0.00  0.00    +0.000 N 
ATOM      4  C   UNL     1       3.869   6.486  18.157  0.00  0.00    +0.000 C 
ATOM      5  O   UNL     1       4.406   7.332  17.443  0.00  0.00    +0.000 OA
ATOM      6  N   UNL     1       2.676   6.707  18.852  0.00  0.00    +0.000 N 
ATOM      7  C   UNL     1       2.049   5.755  19.783  0.00  0.00    +0.000 C 
ATOM      8  C   UNL     1       1.961   6.349  21.174  0.00  0.00    +0.000 C 
ATOM      9  C   UNL     1       1.092   7.599  21.154  0.00  0.00    +0.000 C 
ATOM     10  C   UNL     1       1.328   8.472  19.944  0.00  0.00    +0.000 A 
ATOM     11  C   UNL     1       0.805   9.784  19.948  0.00  0.00    +0.000 A 
ATOM     12  C   UNL     1       1.011  10.634  18.857  0.00  0.00    +0.000 A 
ATOM     13  C   UNL     1       1.734  10.193  17.756  0.00  0.00    +0.000 A 
ATOM     14  C   UNL     1       2.237   8.892  17.743  0.00  0.00    +0.000 A 
ATOM     15  C   UNL     1       2.069   8.019  18.832  0.00  0.00    +0.000 A 
ATOM     16  H   UNL     1       4.045   4.530  18.846  0.00  0.00    +0.000 HD
ENDROOT
BRANCH  12  17
ATOM     17  S   UNL     1       0.427  12.321  18.903  0.00  0.00    +0.000 S 
ATOM     18  O   UNL     1       1.599  13.156  18.836  0.00  0.00    +0.000 OA
ATOM     19  O   UNL     1      -0.630  12.431  17.913  0.00  0.00    +0.000 OA
BRANCH  17  20
ATOM     20  N   UNL     1      -0.299  12.426  20.393  0.00  0.00    +0.000 N 
ATOM     21  C   UNL     1      -1.702  11.999  20.569  0.00  0.00    +0.000 C 
ATOM     22  C   UNL     1      -1.810  12.047  22.111  0.00  0.00    +0.000 C 
ATOM     23  N   UNL     1      -0.756  12.951  22.502  0.00  0.00    +0.000 N 
ATOM     24  C   UNL     1       0.219  13.040  21.538  0.00  0.00    +0.000 C 
ATOM     25  O   UNL     1       1.323  13.510  21.700  0.00  0.00    +0.000 OA
ATOM     26  H   UNL     1      -0.538  13.208  23.456  0.00  0.00    +0.000 HD
BRANCH  22  27
ATOM     27  C   UNL     1      -3.157  12.437  22.659  0.00  0.00    +0.000 A 
ATOM     28  C   UNL     1      -3.436  12.281  24.028  0.00  0.00    +0.000 A 
ATOM     29  C   UNL     1      -4.699  12.590  24.538  0.00  0.00    +0.000 A 
ATOM     30  C   UNL     1      -5.698  13.063  23.690  0.00  0.00    +0.000 A 
ATOM     31  C   UNL     1      -5.429  13.248  22.336  0.00  0.00    +0.000 A 
ATOM     32  C   UNL     1      -4.166  12.944  21.825  0.00  0.00    +0.000 A 
ENDBRANCH  22  27
ENDBRANCH  17  20
ENDBRANCH  12  17
BRANCH   2  33
ATOM     33  C   UNL     1       6.470   5.848  16.954  0.00  0.00    +0.000 C 
ATOM     34 CL   UNL     1       6.231   5.365  15.265  0.00  0.00    +0.000 Cl
ENDBRANCH   2  33
TORSDOF 4
ENDMDL
