MODEL 1
REMARK VINA RESULT:      -8.0      0.000      0.000
REMARK  Name = 
REMARK  6 active torsions:
REMARK  status: ('A' for Active; 'I' for Inactive)
REMARK    1  A    between atoms: N_1  and  C_2
REMARK    2  A    between atoms: N_10  and  C_11
REMARK    3  A    between atoms: C_13  and  C_14
REMARK    4  A    between atoms: N_16  and  C_17
REMARK    5  A    between atoms: C_23  and  O_24
REMARK    6  A    between atoms: C_25  and  O_26
REMARK                            x       y       z     vdW  Elec       q    Type
REMARK                         _______ _______ _______ _____ _____    ______ ____
ROOT
ATOM      1  C   UNL     1       7.342   5.050  16.941  0.00  0.00    +0.000 C 
ATOM      2  O   UNL     1       7.022   4.238  18.095  0.00  0.00    +0.000 OA
ATOM      3  C   UNL     1       6.622   5.113  19.164  0.00  0.00    +0.000 C 
ATOM      4  C   UNL     1       7.045   6.528  18.759  0.00  0.00    +0.000 C 
ATOM      5  C   UNL     1       6.973   6.502  17.240  0.00  0.00    +0.000 C 
ENDROOT
BRANCH   1  14
ATOM      6  C   UNL     1       6.494   3.833  12.325  0.00  0.00    +0.000 A 
ATOM      7  N   UNL     1       7.418   4.665  11.798  0.00  0.00    +0.000 NA
ATOM      8  C   UNL     1       8.125   5.455  12.641  0.00  0.00    +0.000 A 
ATOM      9  N   UNL     1       8.034   5.537  13.984  0.00  0.00    +0.000 NA
ATOM     10  C   UNL     1       7.084   4.714  14.454  0.00  0.00    +0.000 A 
ATOM     11  C   UNL     1       6.282   3.859  13.715  0.00  0.00    +0.000 A 
ATOM     12  N   UNL     1       5.412   3.170  14.535  0.00  0.00    +0.000 NA
ATOM     13  C   UNL     1       5.710   3.576  15.752  0.00  0.00    +0.000 A 
ATOM     14  N   UNL     1       6.720   4.505  15.753  0.00  0.00    +0.000 N 
BRANCH   6  15
ATOM     15  N   UNL     1       5.800   2.992  11.465  0.00  0.00    +0.000 N 
ATOM     16  H   UNL     1       5.419   2.182  11.934  0.00  0.00    +0.000 HD
ATOM     17  H   UNL     1       6.247   2.863  10.565  0.00  0.00    +0.000 HD
ENDBRANCH   6  15
ENDBRANCH   1  14
BRANCH   3  18
ATOM     18  C   UNL     1       5.115   5.016  19.454  0.00  0.00    +0.000 C 
ATOM     19  O   UNL     1       4.458   6.034  19.674  0.00  0.00    +0.000 OA
ATOM     20  N   UNL     1       4.632   3.711  19.517  0.00  0.00    +0.000 N 
ATOM     21  H   UNL     1       5.306   2.955  19.505  0.00  0.00    +0.000 HD
BRANCH  20  22
ATOM     22  C   UNL     1       3.265   3.350  19.625  0.00  0.00    +0.000 A 
ATOM     23  C   UNL     1       2.624   3.253  20.862  0.00  0.00    +0.000 A 
ATOM     24  C   UNL     1       1.273   2.935  20.948  0.00  0.00    +0.000 A 
ATOM     25  C   UNL     1       0.538   2.700  19.798  0.00  0.00    +0.000 A 
ATOM     26  C   UNL     1       1.157   2.785  18.552  0.00  0.00    +0.000 A 
ATOM     27  C   UNL     1       2.517   3.120  18.464  0.00  0.00    +0.000 A 
ENDBRANCH  20  22
ENDBRANCH   3  18
BRANCH   4  28
ATOM     28  O   UNL     1       8.409   6.810  19.141  0.00  0.00    +0.000 OA
ATOM     29  H   UNL     1       9.012   6.307  18.562  0.00  0.00    +0.000 HD
ENDBRANCH   4  28
BRANCH   5  30
ATOM     30  O   UNL     1       7.910   7.408  16.650  0.00  0.00    +0.000 OA
ATOM     31  H   UNL     1       8.450   7.768  17.385  0.00  0.00    +0.000 HD
ENDBRANCH   5  30
TORSDOF 6
ENDMDL
MODEL 2
REMARK VINA RESULT:      -7.9      1.827      6.681
REMARK  Name = 
REMARK  6 active torsions:
REMARK  status: ('A' for Active; 'I' for Inactive)
REMARK    1  A    between atoms: N_1  and  C_2
REMARK    2  A    between atoms: N_10  and  C_11
REMARK    3  A    between atoms: C_13  and  C_14
REMARK    4  A    between atoms: N_16  and  C_17
REMARK    5  A    between atoms: C_23  and  O_24
REMARK    6  A    between atoms: C_25  and  O_26
REMARK                            x       y       z     vdW  Elec       q    Type
REMARK                         _______ _______ _______ _____ _____    ______ ____
ROOT
ATOM      1  C   UNL     1       5.868   5.803  19.164  0.00  0.00    +0.000 C 
ATOM      2  O   UNL     1       5.736   6.333  17.823  0.00  0.00    +0.000 OA
ATOM      3  C   UNL     1       7.037   6.341  17.212  0.00  0.00    +0.000 C 
ATOM      4  C   UNL     1       8.056   6.134  18.336  0.00  0.00    +0.000 C 
ATOM      5  C   UNL     1       7.298   5.299  19.357  0.00  0.00    +0.000 C 
ENDROOT
BRANCH   1  14
ATOM      6  C   UNL     1       1.579   3.740  20.086  0.00  0.00    +0.000 A 
ATOM      7  N   UNL     1       0.961   4.882  20.456  0.00  0.00    +0.000 NA
ATOM      8  C   UNL     1       1.682   6.028  20.465  0.00  0.00    +0.000 A 
ATOM      9  N   UNL     1       2.982   6.201  20.149  0.00  0.00    +0.000 NA
ATOM     10  C   UNL     1       3.556   5.034  19.817  0.00  0.00    +0.000 A 
ATOM     11  C   UNL     1       2.949   3.789  19.770  0.00  0.00    +0.000 A 
ATOM     12  N   UNL     1       3.852   2.815  19.394  0.00  0.00    +0.000 NA
ATOM     13  C   UNL     1       4.975   3.469  19.182  0.00  0.00    +0.000 A 
ATOM     14  N   UNL     1       4.843   4.814  19.418  0.00  0.00    +0.000 N 
BRANCH   6  15
ATOM     15  N   UNL     1       0.829   2.572  20.034  0.00  0.00    +0.000 N 
ATOM     16  H   UNL     1      -0.118   2.702  20.362  0.00  0.00    +0.000 HD
ATOM     17  H   UNL     1       1.334   1.745  20.329  0.00  0.00    +0.000 HD
ENDBRANCH   6  15
ENDBRANCH   1  14
BRANCH   3  18
ATOM     18  C   UNL     1       7.162   5.277  16.110  0.00  0.00    +0.000 C 
ATOM     19  O   UNL     1       7.832   4.260  16.300  0.00  0.00    +0.000 OA
ATOM     20  N   UNL     1       6.532   5.619  14.916  0.00  0.00    +0.000 N 
ATOM     21  H   UNL     1       6.174   6.562  14.823  0.00  0.00    +0.000 HD
BRANCH  20  22
ATOM     22  C   UNL     1       6.373   4.760  13.800  0.00  0.00    +0.000 A 
ATOM     23  C   UNL     1       5.226   3.982  13.624  0.00  0.00    +0.000 A 
ATOM     24  C   UNL     1       5.071   3.172  12.504  0.00  0.00    +0.000 A 
ATOM     25  C   UNL     1       6.064   3.120  11.539  0.00  0.00    +0.000 A 
ATOM     26  C   UNL     1       7.220   3.882  11.695  0.00  0.00    +0.000 A 
ATOM     27  C   UNL     1       7.371   4.711  12.818  0.00  0.00    +0.000 A 
ENDBRANCH  20  22
ENDBRANCH   3  18
BRANCH   4  28
ATOM     28  O   UNL     1       8.426   7.382  18.961  0.00  0.00    +0.000 OA
ATOM     29  H   UNL     1       8.135   8.121  18.394  0.00  0.00    +0.000 HD
ENDBRANCH   4  28
BRANCH   5  30
ATOM     30  O   UNL     1       7.759   5.543  20.689  0.00  0.00    +0.000 OA
ATOM     31  H   UNL     1       7.871   4.665  21.110  0.00  0.00    +0.000 HD
ENDBRANCH   5  30
TORSDOF 6
ENDMDL
MODEL 3
REMARK VINA RESULT:      -7.6      1.811      6.314
REMARK  Name = 
REMARK  6 active torsions:
REMARK  status: ('A' for Active; 'I' for Inactive)
REMARK    1  A    between atoms: N_1  and  C_2
REMARK    2  A    between atoms: N_10  and  C_11
REMARK    3  A    between atoms: C_13  and  C_14
REMARK    4  A    between atoms: N_16  and  C_17
REMARK    5  A    between atoms: C_23  and  O_24
REMARK    6  A    between atoms: C_25  and  O_26
REMARK                            x       y       z     vdW  Elec       q    Type
REMARK                         _______ _______ _______ _____ _____    ______ ____
ROOT
ATOM      1  C   UNL     1       5.795   5.589  19.087  0.00  0.00    +0.000 C 
ATOM      2  O   UNL     1       5.648   6.171  17.770  0.00  0.00    +0.000 OA
ATOM      3  C   UNL     1       6.956   6.310  17.191  0.00  0.00    +0.000 C 
ATOM      4  C   UNL     1       7.965   6.129  18.328  0.00  0.00    +0.000 C 
ATOM      5  C   UNL     1       7.255   5.190  19.290  0.00  0.00    +0.000 C 
ENDROOT
BRANCH   1  14
ATOM      6  C   UNL     1       1.865   2.782  18.660  0.00  0.00    +0.000 A 
ATOM      7  N   UNL     1       1.121   3.697  18.001  0.00  0.00    +0.000 NA
ATOM      8  C   UNL     1       1.664   4.914  17.764  0.00  0.00    +0.000 A 
ATOM      9  N   UNL     1       2.888   5.365  18.107  0.00  0.00    +0.000 NA
ATOM     10  C   UNL     1       3.574   4.430  18.783  0.00  0.00    +0.000 A 
ATOM     11  C   UNL     1       3.147   3.152  19.104  0.00  0.00    +0.000 A 
ATOM     12  N   UNL     1       4.118   2.473  19.812  0.00  0.00    +0.000 NA
ATOM     13  C   UNL     1       5.126   3.316  19.885  0.00  0.00    +0.000 A 
ATOM     14  N   UNL     1       4.847   4.511  19.270  0.00  0.00    +0.000 N 
BRANCH   6  15
ATOM     15  N   UNL     1       1.324   1.519  18.865  0.00  0.00    +0.000 N 
ATOM     16  H   UNL     1       1.921   0.925  19.423  0.00  0.00    +0.000 HD
ATOM     17  H   UNL     1       0.879   1.123  18.046  0.00  0.00    +0.000 HD
ENDBRANCH   6  15
ENDBRANCH   1  14
BRANCH   3  18
ATOM     18  C   UNL     1       7.187   5.314  16.043  0.00  0.00    +0.000 C 
ATOM     19  O   UNL     1       7.962   4.367  16.188  0.00  0.00    +0.000 OA
ATOM     20  N   UNL     1       6.518   5.639  14.866  0.00  0.00    +0.000 N 
ATOM     21  H   UNL     1       6.062   6.542  14.814  0.00  0.00    +0.000 HD
BRANCH  20  22
ATOM     22  C   UNL     1       6.445   4.817  13.713  0.00  0.00    +0.000 A 
ATOM     23  C   UNL     1       7.445   4.823  12.738  0.00  0.00    +0.000 A 
ATOM     24  C   UNL     1       7.376   3.983  11.632  0.00  0.00    +0.000 A 
ATOM     25  C   UNL     1       6.302   3.122  11.476  0.00  0.00    +0.000 A 
ATOM     26  C   UNL     1       5.288   3.101  12.433  0.00  0.00    +0.000 A 
ATOM     27  C   UNL     1       5.364   3.939  13.557  0.00  0.00    +0.000 A 
ENDBRANCH  20  22
ENDBRANCH   3  18
BRANCH   4  28
ATOM     28  O   UNL     1       8.222   7.371  19.019  0.00  0.00    +0.000 OA
ATOM     29  H   UNL     1       7.598   8.050  18.699  0.00  0.00    +0.000 HD
ENDBRANCH   4  28
BRANCH   5  30
ATOM     30  O   UNL     1       7.668   5.404  20.642  0.00  0.00    +0.000 OA
ATOM     31  H   UNL     1       6.857   5.360  21.192  0.00  0.00    +0.000 HD
ENDBRANCH   5  30
TORSDOF 6
ENDMDL
MODEL 4
REMARK VINA RESULT:      -7.6      1.811      6.671
REMARK  Name = 
REMARK  6 active torsions:
REMARK  status: ('A' for Active; 'I' for Inactive)
REMARK    1  A    between atoms: N_1  and  C_2
REMARK    2  A    between atoms: N_10  and  C_11
REMARK    3  A    between atoms: C_13  and  C_14
REMARK    4  A    between atoms: N_16  and  C_17
REMARK    5  A    between atoms: C_23  and  O_24
REMARK    6  A    between atoms: C_25  and  O_26
REMARK                            x       y       z     vdW  Elec       q    Type
REMARK                         _______ _______ _______ _____ _____    ______ ____
ROOT
ATOM      1  C   UNL     1       5.736   5.744  19.011  0.00  0.00    +0.000 C 
ATOM      2  O   UNL     1       5.214   6.727  18.085  0.00  0.00    +0.000 OA
ATOM      3  C   UNL     1       6.245   7.041  17.134  0.00  0.00    +0.000 C 
ATOM      4  C   UNL     1       7.555   6.493  17.704  0.00  0.00    +0.000 C 
ATOM      5  C   UNL     1       7.113   5.293  18.528  0.00  0.00    +0.000 C 
ENDROOT
BRANCH   1  14
ATOM      6  C   UNL     1       1.634   3.325  19.918  0.00  0.00    +0.000 A 
ATOM      7  N   UNL     1       0.983   4.372  20.470  0.00  0.00    +0.000 NA
ATOM      8  C   UNL     1       1.643   5.549  20.584  0.00  0.00    +0.000 A 
ATOM      9  N   UNL     1       2.907   5.838  20.214  0.00  0.00    +0.000 NA
ATOM     10  C   UNL     1       3.517   4.760  19.699  0.00  0.00    +0.000 A 
ATOM     11  C   UNL     1       2.974   3.497  19.528  0.00  0.00    +0.000 A 
ATOM     12  N   UNL     1       3.898   2.635  18.974  0.00  0.00    +0.000 NA
ATOM     13  C   UNL     1       4.969   3.376  18.780  0.00  0.00    +0.000 A 
ATOM     14  N   UNL     1       4.784   4.670  19.197  0.00  0.00    +0.000 N 
BRANCH   6  15
ATOM     15  N   UNL     1       0.943   2.130  19.761  0.00  0.00    +0.000 N 
ATOM     16  H   UNL     1       1.550   1.355  19.532  0.00  0.00    +0.000 HD
ATOM     17  H   UNL     1       0.068   2.223  19.259  0.00  0.00    +0.000 HD
ENDBRANCH   6  15
ENDBRANCH   1  14
BRANCH   3  18
ATOM     18  C   UNL     1       5.933   6.475  15.739  0.00  0.00    +0.000 C 
ATOM     19  O   UNL     1       5.013   6.946  15.068  0.00  0.00    +0.000 OA
ATOM     20  N   UNL     1       6.717   5.380  15.383  0.00  0.00    +0.000 N 
ATOM     21  H   UNL     1       7.309   4.971  16.095  0.00  0.00    +0.000 HD
BRANCH  20  22
ATOM     22  C   UNL     1       6.732   4.768  14.105  0.00  0.00    +0.000 A 
ATOM     23  C   UNL     1       5.832   3.756  13.760  0.00  0.00    +0.000 A 
ATOM     24  C   UNL     1       5.837   3.192  12.489  0.00  0.00    +0.000 A 
ATOM     25  C   UNL     1       6.746   3.625  11.538  0.00  0.00    +0.000 A 
ATOM     26  C   UNL     1       7.657   4.629  11.859  0.00  0.00    +0.000 A 
ATOM     27  C   UNL     1       7.644   5.209  13.138  0.00  0.00    +0.000 A 
ENDBRANCH  20  22
ENDBRANCH   3  18
BRANCH   4  28
ATOM     28  O   UNL     1       8.191   7.438  18.592  0.00  0.00    +0.000 OA
ATOM     29  H   UNL     1       8.367   7.003  19.448  0.00  0.00    +0.000 HD
ENDBRANCH   4  28
BRANCH   5  30
ATOM     30  O   UNL     1       7.995   5.051  19.627  0.00  0.00    +0.000 OA
ATOM     31  H   UNL     1       8.636   5.794  19.640  0.00  0.00    +0.000 HD
ENDBRANCH   5  30
TORSDOF 6
ENDMDL
MODEL 5
REMARK VINA RESULT:      -7.6      3.653      7.561
REMARK  Name = 
REMARK  6 active torsions:
REMARK  status: ('A' for Active; 'I' for Inactive)
REMARK    1  A    between atoms: N_1  and  C_2
REMARK    2  A    between atoms: N_10  and  C_11
REMARK    3  A    between atoms: C_13  and  C_14
REMARK    4  A    between atoms: N_16  and  C_17
REMARK    5  A    between atoms: C_23  and  O_24
REMARK    6  A    between atoms: C_25  and  O_26
REMARK                            x       y       z     vdW  Elec       q    Type
REMARK                         _______ _______ _______ _____ _____    ______ ____
ROOT
ATOM      1  C   UNL     1       3.797   5.733  19.059  0.00  0.00    +0.000 C 
ATOM      2  O   UNL     1       5.206   5.989  18.850  0.00  0.00    +0.000 OA
ATOM      3  C   UNL     1       5.763   4.876  18.129  0.00  0.00    +0.000 C 
ATOM      4  C   UNL     1       4.737   3.742  18.203  0.00  0.00    +0.000 C 
ATOM      5  C   UNL     1       3.405   4.470  18.293  0.00  0.00    +0.000 C 
ENDROOT
BRANCH   1  14
ATOM      6  C   UNL     1       0.917   9.616  19.430  0.00  0.00    +0.000 A 
ATOM      7  N   UNL     1       0.466   9.326  20.670  0.00  0.00    +0.000 NA
ATOM      8  C   UNL     1       0.902   8.189  21.262  0.00  0.00    +0.000 A 
ATOM      9  N   UNL     1       1.751   7.263  20.772  0.00  0.00    +0.000 NA
ATOM     10  C   UNL     1       2.146   7.582  19.529  0.00  0.00    +0.000 A 
ATOM     11  C   UNL     1       1.781   8.702  18.799  0.00  0.00    +0.000 A 
ATOM     12  N   UNL     1       2.376   8.694  17.554  0.00  0.00    +0.000 NA
ATOM     13  C   UNL     1       3.118   7.606  17.549  0.00  0.00    +0.000 A 
ATOM     14  N   UNL     1       3.016   6.905  18.724  0.00  0.00    +0.000 N 
BRANCH   6  15
ATOM     15  N   UNL     1       0.505  10.804  18.841  0.00  0.00    +0.000 N 
ATOM     16  H   UNL     1       1.033  11.603  19.163  0.00  0.00    +0.000 HD
ATOM     17  H   UNL     1      -0.500  10.893  18.752  0.00  0.00    +0.000 HD
ENDBRANCH   6  15
ENDBRANCH   1  14
BRANCH   3  18
ATOM     18  C   UNL     1       6.117   5.248  16.680  0.00  0.00    +0.000 C 
ATOM     19  O   UNL     1       6.379   6.415  16.384  0.00  0.00    +0.000 OA
ATOM     20  N   UNL     1       6.030   4.186  15.783  0.00  0.00    +0.000 N 
ATOM     21  H   UNL     1       5.623   3.320  16.114  0.00  0.00    +0.000 HD
BRANCH  20  22
ATOM     22  C   UNL     1       6.441   4.226  14.427  0.00  0.00    +0.000 A 
ATOM     23  C   UNL     1       5.842   3.428  13.450  0.00  0.00    +0.000 A 
ATOM     24  C   UNL     1       6.233   3.507  12.118  0.00  0.00    +0.000 A 
ATOM     25  C   UNL     1       7.236   4.383  11.737  0.00  0.00    +0.000 A 
ATOM     26  C   UNL     1       7.854   5.186  12.694  0.00  0.00    +0.000 A 
ATOM     27  C   UNL     1       7.450   5.116  14.037  0.00  0.00    +0.000 A 
ENDBRANCH  20  22
ENDBRANCH   3  18
BRANCH   4  28
ATOM     28  O   UNL     1       4.899   2.950  19.399  0.00  0.00    +0.000 OA
ATOM     29  H   UNL     1       4.258   3.252  20.071  0.00  0.00    +0.000 HD
ENDBRANCH   4  28
BRANCH   5  30
ATOM     30  O   UNL     1       2.432   3.708  19.012  0.00  0.00    +0.000 OA
ATOM     31  H   UNL     1       2.897   2.916  19.357  0.00  0.00    +0.000 HD
ENDBRANCH   5  30
TORSDOF 6
ENDMDL
MODEL 6
REMARK VINA RESULT:      -7.5      4.015      7.764
REMARK  Name = 
REMARK  6 active torsions:
REMARK  status: ('A' for Active; 'I' for Inactive)
REMARK    1  A    between atoms: N_1  and  C_2
REMARK    2  A    between atoms: N_10  and  C_11
REMARK    3  A    between atoms: C_13  and  C_14
REMARK    4  A    between atoms: N_16  and  C_17
REMARK    5  A    between atoms: C_23  and  O_24
REMARK    6  A    between atoms: C_25  and  O_26
REMARK                            x       y       z     vdW  Elec       q    Type
REMARK                         _______ _______ _______ _____ _____    ______ ____
ROOT
ATOM      1  C   UNL     1       3.276   6.058  19.007  0.00  0.00    +0.000 C 
ATOM      2  O   UNL     1       4.696   6.174  18.755  0.00  0.00    +0.000 OA
ATOM      3  C   UNL     1       5.118   5.018  18.012  0.00  0.00    +0.000 C 
ATOM      4  C   UNL     1       3.987   3.991  18.112  0.00  0.00    +0.000 C 
ATOM      5  C   UNL     1       2.737   4.846  18.248  0.00  0.00    +0.000 C 
ENDROOT
BRANCH   1  14
ATOM      6  C   UNL     1       0.815  10.207  19.489  0.00  0.00    +0.000 A 
ATOM      7  N   UNL     1       0.381   9.957  20.744  0.00  0.00    +0.000 NA
ATOM      8  C   UNL     1       0.720   8.778  21.317  0.00  0.00    +0.000 A 
ATOM      9  N   UNL     1       1.455   7.775  20.795  0.00  0.00    +0.000 NA
ATOM     10  C   UNL     1       1.837   8.060  19.540  0.00  0.00    +0.000 A 
ATOM     11  C   UNL     1       1.560   9.215  18.826  0.00  0.00    +0.000 A 
ATOM     12  N   UNL     1       2.108   9.155  17.561  0.00  0.00    +0.000 NA
ATOM     13  C   UNL     1       2.736   7.998  17.527  0.00  0.00    +0.000 A 
ATOM     14  N   UNL     1       2.606   7.304  18.703  0.00  0.00    +0.000 N 
BRANCH   6  15
ATOM     15  N   UNL     1       0.504  11.434  18.918  0.00  0.00    +0.000 N 
ATOM     16  H   UNL     1      -0.252  11.906  19.393  0.00  0.00    +0.000 HD
ATOM     17  H   UNL     1       0.510  11.430  17.904  0.00  0.00    +0.000 HD
ENDBRANCH   6  15
ENDBRANCH   1  14
BRANCH   3  18
ATOM     18  C   UNL     1       5.462   5.365  16.554  0.00  0.00    +0.000 C 
ATOM     19  O   UNL     1       5.404   6.532  16.163  0.00  0.00    +0.000 OA
ATOM     20  N   UNL     1       5.750   4.258  15.760  0.00  0.00    +0.000 N 
ATOM     21  H   UNL     1       5.582   3.339  16.150  0.00  0.00    +0.000 HD
BRANCH  20  22
ATOM     22  C   UNL     1       6.237   4.311  14.429  0.00  0.00    +0.000 A 
ATOM     23  C   UNL     1       7.346   5.084  14.079  0.00  0.00    +0.000 A 
ATOM     24  C   UNL     1       7.832   5.096  12.776  0.00  0.00    +0.000 A 
ATOM     25  C   UNL     1       7.214   4.339  11.795  0.00  0.00    +0.000 A 
ATOM     26  C   UNL     1       6.101   3.564  12.118  0.00  0.00    +0.000 A 
ATOM     27  C   UNL     1       5.619   3.540  13.436  0.00  0.00    +0.000 A 
ENDBRANCH  20  22
ENDBRANCH   3  18
BRANCH   4  28
ATOM     28  O   UNL     1       4.106   3.176  19.299  0.00  0.00    +0.000 OA
ATOM     29  H   UNL     1       4.439   3.728  20.032  0.00  0.00    +0.000 HD
ENDBRANCH   4  28
BRANCH   5  30
ATOM     30  O   UNL     1       1.716   4.179  18.994  0.00  0.00    +0.000 OA
ATOM     31  H   UNL     1       1.236   3.605  18.358  0.00  0.00    +0.000 HD
ENDBRANCH   5  30
TORSDOF 6
ENDMDL
MODEL 7
REMARK VINA RESULT:      -7.5      1.832      6.254
REMARK  Name = 
REMARK  6 active torsions:
REMARK  status: ('A' for Active; 'I' for Inactive)
REMARK    1  A    between atoms: N_1  and  C_2
REMARK    2  A    between atoms: N_10  and  C_11
REMARK    3  A    between atoms: C_13  and  C_14
REMARK    4  A    between atoms: N_16  and  C_17
REMARK    5  A    between atoms: C_23  and  O_24
REMARK    6  A    between atoms: C_25  and  O_26
REMARK                            x       y       z     vdW  Elec       q    Type
REMARK                         _______ _______ _______ _____ _____    ______ ____
ROOT
ATOM      1  C   UNL     1       5.779   5.658  19.007  0.00  0.00    +0.000 C 
ATOM      2  O   UNL     1       5.212   6.648  18.117  0.00  0.00    +0.000 OA
ATOM      3  C   UNL     1       6.216   7.019  17.157  0.00  0.00    +0.000 C 
ATOM      4  C   UNL     1       7.552   6.497  17.691  0.00  0.00    +0.000 C 
ATOM      5  C   UNL     1       7.161   5.263  18.489  0.00  0.00    +0.000 C 
ENDROOT
BRANCH   1  14
ATOM      6  C   UNL     1       1.924   2.751  18.568  0.00  0.00    +0.000 A 
ATOM      7  N   UNL     1       1.149   3.657  17.932  0.00  0.00    +0.000 NA
ATOM      8  C   UNL     1       1.656   4.893  17.712  0.00  0.00    +0.000 A 
ATOM      9  N   UNL     1       2.870   5.372  18.051  0.00  0.00    +0.000 NA
ATOM     10  C   UNL     1       3.588   4.445  18.703  0.00  0.00    +0.000 A 
ATOM     11  C   UNL     1       3.200   3.149  19.005  0.00  0.00    +0.000 A 
ATOM     12  N   UNL     1       4.196   2.485  19.692  0.00  0.00    +0.000 NA
ATOM     13  C   UNL     1       5.182   3.354  19.770  0.00  0.00    +0.000 A 
ATOM     14  N   UNL     1       4.863   4.552  19.180  0.00  0.00    +0.000 N 
BRANCH   6  15
ATOM     15  N   UNL     1       1.421   1.471  18.755  0.00  0.00    +0.000 N 
ATOM     16  H   UNL     1       1.825   0.796  18.121  0.00  0.00    +0.000 HD
ATOM     17  H   UNL     1       0.422   1.440  18.921  0.00  0.00    +0.000 HD
ENDBRANCH   6  15
ENDBRANCH   1  14
BRANCH   3  18
ATOM     18  C   UNL     1       5.898   6.481  15.753  0.00  0.00    +0.000 C 
ATOM     19  O   UNL     1       4.973   6.963  15.097  0.00  0.00    +0.000 OA
ATOM     20  N   UNL     1       6.682   5.395  15.370  0.00  0.00    +0.000 N 
ATOM     21  H   UNL     1       7.279   4.972  16.070  0.00  0.00    +0.000 HD
BRANCH  20  22
ATOM     22  C   UNL     1       6.690   4.808  14.080  0.00  0.00    +0.000 A 
ATOM     23  C   UNL     1       7.621   5.180  13.107  0.00  0.00    +0.000 A 
ATOM     24  C   UNL     1       7.639   4.568  11.858  0.00  0.00    +0.000 A 
ATOM     25  C   UNL     1       6.721   3.575  11.555  0.00  0.00    +0.000 A 
ATOM     26  C   UNL     1       5.779   3.190  12.508  0.00  0.00    +0.000 A 
ATOM     27  C   UNL     1       5.769   3.798  13.774  0.00  0.00    +0.000 A 
ENDBRANCH  20  22
ENDBRANCH   3  18
BRANCH   4  28
ATOM     28  O   UNL     1       8.175   7.437  18.593  0.00  0.00    +0.000 OA
ATOM     29  H   UNL     1       7.495   7.806  19.188  0.00  0.00    +0.000 HD
ENDBRANCH   4  28
BRANCH   5  30
ATOM     30  O   UNL     1       8.069   5.018  19.567  0.00  0.00    +0.000 OA
ATOM     31  H   UNL     1       7.600   5.275  20.390  0.00  0.00    +0.000 HD
ENDBRANCH   5  30
TORSDOF 6
ENDMDL
MODEL 8
REMARK VINA RESULT:      -7.5      2.020      6.967
REMARK  Name = 
REMARK  6 active torsions:
REMARK  status: ('A' for Active; 'I' for Inactive)
REMARK    1  A    between atoms: N_1  and  C_2
REMARK    2  A    between atoms: N_10  and  C_11
REMARK    3  A    between atoms: C_13  and  C_14
REMARK    4  A    between atoms: N_16  and  C_17
REMARK    5  A    between atoms: C_23  and  O_24
REMARK    6  A    between atoms: C_25  and  O_26
REMARK                            x       y       z     vdW  Elec       q    Type
REMARK                         _______ _______ _______ _____ _____    ______ ____
ROOT
ATOM      1  C   UNL     1       5.528   5.794  18.196  0.00  0.00    +0.000 C 
ATOM      2  O   UNL     1       4.974   5.945  16.868  0.00  0.00    +0.000 OA
ATOM      3  C   UNL     1       6.054   5.892  15.921  0.00  0.00    +0.000 C 
ATOM      4  C   UNL     1       7.350   6.063  16.718  0.00  0.00    +0.000 C 
ATOM      5  C   UNL     1       7.016   5.468  18.077  0.00  0.00    +0.000 C 
ENDROOT
BRANCH   1  14
ATOM      6  C   UNL     1       1.939   3.684  20.681  0.00  0.00    +0.000 A 
ATOM      7  N   UNL     1       1.228   4.817  20.871  0.00  0.00    +0.000 NA
ATOM      8  C   UNL     1       1.731   5.979  20.391  0.00  0.00    +0.000 A 
ATOM      9  N   UNL     1       2.887   6.178  19.726  0.00  0.00    +0.000 NA
ATOM     10  C   UNL     1       3.568   5.029  19.588  0.00  0.00    +0.000 A 
ATOM     11  C   UNL     1       3.183   3.774  20.032  0.00  0.00    +0.000 A 
ATOM     12  N   UNL     1       4.138   2.828  19.719  0.00  0.00    +0.000 NA
ATOM     13  C   UNL     1       5.066   3.496  19.066  0.00  0.00    +0.000 A 
ATOM     14  N   UNL     1       4.761   4.830  18.956  0.00  0.00    +0.000 N 
BRANCH   6  15
ATOM     15  N   UNL     1       1.402   2.487  21.135  0.00  0.00    +0.000 N 
ATOM     16  H   UNL     1       2.043   1.712  21.042  0.00  0.00    +0.000 HD
ATOM     17  H   UNL     1       0.432   2.346  20.877  0.00  0.00    +0.000 HD
ENDBRANCH   6  15
ENDBRANCH   1  14
BRANCH   3  18
ATOM     18  C   UNL     1       6.040   4.591  15.103  0.00  0.00    +0.000 C 
ATOM     19  O   UNL     1       5.822   3.511  15.656  0.00  0.00    +0.000 OA
ATOM     20  N   UNL     1       6.366   4.761  13.759  0.00  0.00    +0.000 N 
ATOM     21  H   UNL     1       6.708   5.667  13.466  0.00  0.00    +0.000 HD
BRANCH  20  22
ATOM     22  C   UNL     1       6.284   3.753  12.765  0.00  0.00    +0.000 A 
ATOM     23  C   UNL     1       7.425   3.180  12.200  0.00  0.00    +0.000 A 
ATOM     24  C   UNL     1       7.327   2.166  11.253  0.00  0.00    +0.000 A 
ATOM     25  C   UNL     1       6.084   1.710  10.847  0.00  0.00    +0.000 A 
ATOM     26  C   UNL     1       4.930   2.270  11.392  0.00  0.00    +0.000 A 
ATOM     27  C   UNL     1       5.029   3.283  12.359  0.00  0.00    +0.000 A 
ENDBRANCH  20  22
ENDBRANCH   3  18
BRANCH   4  28
ATOM     28  O   UNL     1       7.684   7.456  16.906  0.00  0.00    +0.000 OA
ATOM     29  H   UNL     1       7.274   7.981  16.193  0.00  0.00    +0.000 HD
ENDBRANCH   4  28
BRANCH   5  30
ATOM     30  O   UNL     1       7.768   6.084  19.125  0.00  0.00    +0.000 OA
ATOM     31  H   UNL     1       8.650   6.292  18.751  0.00  0.00    +0.000 HD
ENDBRANCH   5  30
TORSDOF 6
ENDMDL
MODEL 9
REMARK VINA RESULT:      -7.4      3.956      7.494
REMARK  Name = 
REMARK  6 active torsions:
REMARK  status: ('A' for Active; 'I' for Inactive)
REMARK    1  A    between atoms: N_1  and  C_2
REMARK    2  A    between atoms: N_10  and  C_11
REMARK    3  A    between atoms: C_13  and  C_14
REMARK    4  A    between atoms: N_16  and  C_17
REMARK    5  A    between atoms: C_23  and  O_24
REMARK    6  A    between atoms: C_25  and  O_26
REMARK                            x       y       z     vdW  Elec       q    Type
REMARK                         _______ _______ _______ _____ _____    ______ ____
ROOT
ATOM      1  C   UNL     1       2.462   5.397  20.186  0.00  0.00    +0.000 C 
ATOM      2  O   UNL     1       3.855   5.012  20.109  0.00  0.00    +0.000 OA
ATOM      3  C   UNL     1       3.917   3.610  19.797  0.00  0.00    +0.000 C 
ATOM      4  C   UNL     1       2.515   3.040  20.033  0.00  0.00    +0.000 C 
ATOM      5  C   UNL     1       1.597   4.218  19.742  0.00  0.00    +0.000 C 
ENDROOT
BRANCH   1  14
ATOM      6  C   UNL     1       1.386   9.998  19.099  0.00  0.00    +0.000 A 
ATOM      7  N   UNL     1       0.810  10.282  20.288  0.00  0.00    +0.000 NA
ATOM      8  C   UNL     1       0.725   9.295  21.212  0.00  0.00    +0.000 A 
ATOM      9  N   UNL     1       1.146   8.018  21.112  0.00  0.00    +0.000 NA
ATOM     10  C   UNL     1       1.683   7.780  19.905  0.00  0.00    +0.000 A 
ATOM     11  C   UNL     1       1.830   8.684  18.865  0.00  0.00    +0.000 A 
ATOM     12  N   UNL     1       2.419   8.083  17.771  0.00  0.00    +0.000 NA
ATOM     13  C   UNL     1       2.656   6.847  18.159  0.00  0.00    +0.000 A 
ATOM     14  N   UNL     1       2.235   6.619  19.445  0.00  0.00    +0.000 N 
BRANCH   6  15
ATOM     15  N   UNL     1       1.513  11.020  18.168  0.00  0.00    +0.000 N 
ATOM     16  H   UNL     1       1.792  11.897  18.586  0.00  0.00    +0.000 HD
ATOM     17  H   UNL     1       0.782  11.031  17.466  0.00  0.00    +0.000 HD
ENDBRANCH   6  15
ENDBRANCH   1  14
BRANCH   3  18
ATOM     18  C   UNL     1       4.413   3.360  18.364  0.00  0.00    +0.000 C 
ATOM     19  O   UNL     1       4.078   2.341  17.758  0.00  0.00    +0.000 OA
ATOM     20  N   UNL     1       5.299   4.327  17.893  0.00  0.00    +0.000 N 
ATOM     21  H   UNL     1       5.642   5.015  18.552  0.00  0.00    +0.000 HD
BRANCH  20  22
ATOM     22  C   UNL     1       5.787   4.411  16.565  0.00  0.00    +0.000 A 
ATOM     23  C   UNL     1       4.966   4.168  15.461  0.00  0.00    +0.000 A 
ATOM     24  C   UNL     1       5.451   4.291  14.163  0.00  0.00    +0.000 A 
ATOM     25  C   UNL     1       6.770   4.654  13.944  0.00  0.00    +0.000 A 
ATOM     26  C   UNL     1       7.610   4.896  15.029  0.00  0.00    +0.000 A 
ATOM     27  C   UNL     1       7.117   4.785  16.339  0.00  0.00    +0.000 A 
ENDBRANCH  20  22
ENDBRANCH   3  18
BRANCH   4  28
ATOM     28  O   UNL     1       2.321   2.648  21.409  0.00  0.00    +0.000 OA
ATOM     29  H   UNL     1       2.588   1.715  21.515  0.00  0.00    +0.000 HD
ENDBRANCH   4  28
BRANCH   5  30
ATOM     30  O   UNL     1       0.387   4.147  20.501  0.00  0.00    +0.000 OA
ATOM     31  H   UNL     1       0.122   5.072  20.690  0.00  0.00    +0.000 HD
ENDBRANCH   5  30
TORSDOF 6
ENDMDL
