MODEL 1
REMARK VINA RESULT:      -9.0      0.000      0.000
REMARK  Name = 
REMARK  12 active torsions:
REMARK  status: ('A' for Active; 'I' for Inactive)
REMARK    1  A    between atoms: C_1  and  C_2
REMARK    2  A    between atoms: C_2  and  C_3
REMARK    3  A    between atoms: C_2  and  C_4
REMARK    4  A    between atoms: C_2  and  C_5
REMARK    5  A    between atoms: N_8  and  N_9
REMARK    6  A    between atoms: C_13  and  C_14
REMARK    7  A    between atoms: N_20  and  C_21
REMARK    8  A    between atoms: C_21  and  C_22
REMARK    9  A    between atoms: C_29  and  C_30
REMARK   10  A    between atoms: C_30  and  C_31
REMARK   11  A    between atoms: C_30  and  C_32
REMARK   12  A    between atoms: C_30  and  C_33
REMARK                            x       y       z     vdW  Elec       q    Type
REMARK                         _______ _______ _______ _____ _____    ______ ____
ROOT
ATOM      1  N   UNL     1       1.285   9.087  18.037  0.00  0.00    +0.000 NA
ATOM      2  C   UNL     1       1.204  10.315  18.472  0.00  0.00    +0.000 A 
ATOM      3  S   UNL     1       2.557  11.495  18.432  0.00  0.00    +0.000 S 
ATOM      4  C   UNL     1       1.559  12.731  19.136  0.00  0.00    +0.000 A 
ATOM      5  C   UNL     1       0.307  12.303  19.393  0.00  0.00    +0.000 A 
ATOM      6  N   UNL     1       0.086  10.950  19.029  0.00  0.00    +0.000 N 
ENDROOT
BRANCH   1  10
ATOM      7  C   UNL     1       2.832   5.236  18.699  0.00  0.00    +0.000 C 
ATOM      8  C   UNL     1       2.304   6.464  18.511  0.00  0.00    +0.000 C 
ATOM      9  C   UNL     1       2.966   7.544  17.751  0.00  0.00    +0.000 C 
ATOM     10  N   UNL     1       2.534   8.747  17.520  0.00  0.00    +0.000 NA
ATOM     11  C   UNL     1       4.284   7.201  17.187  0.00  0.00    +0.000 C 
ATOM     12  C   UNL     1       4.884   6.007  17.311  0.00  0.00    +0.000 C 
ATOM     13  C   UNL     1       4.172   4.941  18.088  0.00  0.00    +0.000 C 
ATOM     14  O   UNL     1       4.701   3.840  18.226  0.00  0.00    +0.000 OA
BRANCH   7  16
ATOM     15  C   UNL     1       1.305   3.255  18.509  0.00  0.00    +0.000 C 
ATOM     16  C   UNL     1       2.072   4.154  19.506  0.00  0.00    +0.000 C 
ATOM     17  C   UNL     1       1.081   4.834  20.482  0.00  0.00    +0.000 C 
ATOM     18  C   UNL     1       2.911   3.186  20.377  0.00  0.00    +0.000 C 
ENDBRANCH   7  16
BRANCH  12  19
ATOM     19  C   UNL     1       6.270   5.683  16.703  0.00  0.00    +0.000 C 
ATOM     20  C   UNL     1       7.185   6.935  16.631  0.00  0.00    +0.000 C 
ATOM     21  C   UNL     1       7.015   4.636  17.560  0.00  0.00    +0.000 C 
ATOM     22  C   UNL     1       6.148   5.160  15.254  0.00  0.00    +0.000 C 
ENDBRANCH  12  19
ENDBRANCH   1  10
BRANCH   5  23
ATOM     23  C   UNL     1      -0.717  13.214  19.959  0.00  0.00    +0.000 A 
ATOM     24  C   UNL     1      -1.597  12.769  20.964  0.00  0.00    +0.000 A 
ATOM     25  C   UNL     1      -2.548  13.628  21.529  0.00  0.00    +0.000 A 
ATOM     26  C   UNL     1      -2.610  14.959  21.132  0.00  0.00    +0.000 A 
ATOM     27  C   UNL     1      -1.749  15.419  20.142  0.00  0.00    +0.000 A 
ATOM     28  C   UNL     1      -0.842  14.544  19.537  0.00  0.00    +0.000 A 
ENDBRANCH   5  23
BRANCH   6  29
ATOM     29  C   UNL     1      -1.163  10.196  19.138  0.00  0.00    +0.000 C 
BRANCH  29  30
ATOM     30  C   UNL     1      -2.129  10.446  17.999  0.00  0.00    +0.000 A 
ATOM     31  C   UNL     1      -3.222  11.311  18.155  0.00  0.00    +0.000 A 
ATOM     32  C   UNL     1      -4.123  11.512  17.110  0.00  0.00    +0.000 A 
ATOM     33  C   UNL     1      -3.930  10.869  15.889  0.00  0.00    +0.000 A 
ATOM     34  C   UNL     1      -2.831  10.032  15.709  0.00  0.00    +0.000 A 
ATOM     35  C   UNL     1      -1.934   9.827  16.754  0.00  0.00    +0.000 A 
ENDBRANCH  29  30
ENDBRANCH   6  29
TORSDOF 6
ENDMDL
MODEL 2
REMARK VINA RESULT:      -9.0      0.095      1.093
REMARK  Name = 
REMARK  12 active torsions:
REMARK  status: ('A' for Active; 'I' for Inactive)
REMARK    1  A    between atoms: C_1  and  C_2
REMARK    2  A    between atoms: C_2  and  C_3
REMARK    3  A    between atoms: C_2  and  C_4
REMARK    4  A    between atoms: C_2  and  C_5
REMARK    5  A    between atoms: N_8  and  N_9
REMARK    6  A    between atoms: C_13  and  C_14
REMARK    7  A    between atoms: N_20  and  C_21
REMARK    8  A    between atoms: C_21  and  C_22
REMARK    9  A    between atoms: C_29  and  C_30
REMARK   10  A    between atoms: C_30  and  C_31
REMARK   11  A    between atoms: C_30  and  C_32
REMARK   12  A    between atoms: C_30  and  C_33
REMARK                            x       y       z     vdW  Elec       q    Type
REMARK                         _______ _______ _______ _____ _____    ______ ____
ROOT
ATOM      1  N   UNL     1       1.231   9.055  18.014  0.00  0.00    +0.000 NA
ATOM      2  C   UNL     1       1.137  10.272  18.476  0.00  0.00    +0.000 A 
ATOM      3  S   UNL     1       2.487  11.458  18.485  0.00  0.00    +0.000 S 
ATOM      4  C   UNL     1       1.472  12.674  19.202  0.00  0.00    +0.000 A 
ATOM      5  C   UNL     1       0.218  12.236  19.428  0.00  0.00    +0.000 A 
ATOM      6  N   UNL     1       0.009  10.890  19.029  0.00  0.00    +0.000 N 
ENDROOT
BRANCH   1  10
ATOM      7  C   UNL     1       2.816   5.220  18.680  0.00  0.00    +0.000 C 
ATOM      8  C   UNL     1       2.275   6.442  18.490  0.00  0.00    +0.000 C 
ATOM      9  C   UNL     1       2.933   7.533  17.741  0.00  0.00    +0.000 C 
ATOM     10  N   UNL     1       2.489   8.731  17.509  0.00  0.00    +0.000 NA
ATOM     11  C   UNL     1       4.261   7.207  17.191  0.00  0.00    +0.000 C 
ATOM     12  C   UNL     1       4.874   6.020  17.317  0.00  0.00    +0.000 C 
ATOM     13  C   UNL     1       4.166   4.943  18.083  0.00  0.00    +0.000 C 
ATOM     14  O   UNL     1       4.706   3.848  18.223  0.00  0.00    +0.000 OA
BRANCH   7  16
ATOM     15  C   UNL     1       1.295   3.236  18.468  0.00  0.00    +0.000 C 
ATOM     16  C   UNL     1       2.059   4.127  19.474  0.00  0.00    +0.000 C 
ATOM     17  C   UNL     1       1.065   4.792  20.457  0.00  0.00    +0.000 C 
ATOM     18  C   UNL     1       2.901   3.152  20.335  0.00  0.00    +0.000 C 
ENDBRANCH   7  16
BRANCH  12  19
ATOM     19  C   UNL     1       6.269   5.714  16.723  0.00  0.00    +0.000 C 
ATOM     20  C   UNL     1       6.184   5.218  15.254  0.00  0.00    +0.000 C 
ATOM     21  C   UNL     1       7.152   6.981  16.714  0.00  0.00    +0.000 C 
ATOM     22  C   UNL     1       6.991   4.597  17.509  0.00  0.00    +0.000 C 
ENDBRANCH  12  19
ENDBRANCH   1  10
BRANCH   5  23
ATOM     23  C   UNL     1      -0.818  13.129  19.998  0.00  0.00    +0.000 A 
ATOM     24  C   UNL     1      -1.716  12.657  20.975  0.00  0.00    +0.000 A 
ATOM     25  C   UNL     1      -2.679  13.499  21.544  0.00  0.00    +0.000 A 
ATOM     26  C   UNL     1      -2.737  14.839  21.180  0.00  0.00    +0.000 A 
ATOM     27  C   UNL     1      -1.860  15.327  20.219  0.00  0.00    +0.000 A 
ATOM     28  C   UNL     1      -0.939  14.469  19.608  0.00  0.00    +0.000 A 
ENDBRANCH   5  23
BRANCH   6  29
ATOM     29  C   UNL     1      -1.239  10.129  19.101  0.00  0.00    +0.000 C 
BRANCH  29  30
ATOM     30  C   UNL     1      -2.186  10.399  17.950  0.00  0.00    +0.000 A 
ATOM     31  C   UNL     1      -1.984   9.810  16.694  0.00  0.00    +0.000 A 
ATOM     32  C   UNL     1      -2.844  10.088  15.632  0.00  0.00    +0.000 A 
ATOM     33  C   UNL     1      -3.931  10.940  15.820  0.00  0.00    +0.000 A 
ATOM     34  C   UNL     1      -4.163  11.507  17.070  0.00  0.00    +0.000 A 
ATOM     35  C   UNL     1      -3.302  11.234  18.129  0.00  0.00    +0.000 A 
ENDBRANCH  29  30
ENDBRANCH   6  29
TORSDOF 6
ENDMDL
MODEL 3
REMARK VINA RESULT:      -8.9      0.661      1.046
REMARK  Name = 
REMARK  12 active torsions:
REMARK  status: ('A' for Active; 'I' for Inactive)
REMARK    1  A    between atoms: C_1  and  C_2
REMARK    2  A    between atoms: C_2  and  C_3
REMARK    3  A    between atoms: C_2  and  C_4
REMARK    4  A    between atoms: C_2  and  C_5
REMARK    5  A    between atoms: N_8  and  N_9
REMARK    6  A    between atoms: C_13  and  C_14
REMARK    7  A    between atoms: N_20  and  C_21
REMARK    8  A    between atoms: C_21  and  C_22
REMARK    9  A    between atoms: C_29  and  C_30
REMARK   10  A    between atoms: C_30  and  C_31
REMARK   11  A    between atoms: C_30  and  C_32
REMARK   12  A    between atoms: C_30  and  C_33
REMARK                            x       y       z     vdW  Elec       q    Type
REMARK                         _______ _______ _______ _____ _____    ______ ____
ROOT
ATOM      1  N   UNL     1       1.517   8.914  18.044  0.00  0.00    +0.000 NA
ATOM      2  C   UNL     1       1.540  10.191  18.312  0.00  0.00    +0.000 A 
ATOM      3  S   UNL     1       2.917  11.281  17.934  0.00  0.00    +0.000 S 
ATOM      4  C   UNL     1       2.068  12.651  18.585  0.00  0.00    +0.000 A 
ATOM      5  C   UNL     1       0.848  12.329  19.058  0.00  0.00    +0.000 A 
ATOM      6  N   UNL     1       0.532  10.954  18.916  0.00  0.00    +0.000 N 
ENDROOT
BRANCH   1  10
ATOM      7  C   UNL     1       2.757   4.951  18.693  0.00  0.00    +0.000 C 
ATOM      8  C   UNL     1       2.330   6.219  18.512  0.00  0.00    +0.000 C 
ATOM      9  C   UNL     1       3.010   7.210  17.653  0.00  0.00    +0.000 C 
ATOM     10  N   UNL     1       2.671   8.441  17.421  0.00  0.00    +0.000 NA
ATOM     11  C   UNL     1       4.228   6.726  16.978  0.00  0.00    +0.000 C 
ATOM     12  C   UNL     1       4.724   5.484  17.086  0.00  0.00    +0.000 C 
ATOM     13  C   UNL     1       3.997   4.513  17.967  0.00  0.00    +0.000 C 
ATOM     14  O   UNL     1       4.432   3.370  18.093  0.00  0.00    +0.000 OA
BRANCH   7  16
ATOM     15  C   UNL     1       1.179   3.001  18.711  0.00  0.00    +0.000 C 
ATOM     16  C   UNL     1       1.984   3.970  19.608  0.00  0.00    +0.000 C 
ATOM     17  C   UNL     1       1.025   4.763  20.529  0.00  0.00    +0.000 C 
ATOM     18  C   UNL     1       2.812   3.066  20.555  0.00  0.00    +0.000 C 
ENDBRANCH   7  16
BRANCH  12  19
ATOM     19  C   UNL     1       6.006   5.011  16.360  0.00  0.00    +0.000 C 
ATOM     20  C   UNL     1       5.787   3.676  15.597  0.00  0.00    +0.000 C 
ATOM     21  C   UNL     1       6.459   6.052  15.313  0.00  0.00    +0.000 C 
ATOM     22  C   UNL     1       7.161   4.751  17.352  0.00  0.00    +0.000 C 
ENDBRANCH  12  19
ENDBRANCH   1  10
BRANCH   5  23
ATOM     23  C   UNL     1      -0.056  13.360  19.621  0.00  0.00    +0.000 A 
ATOM     24  C   UNL     1      -0.653  13.181  20.883  0.00  0.00    +0.000 A 
ATOM     25  C   UNL     1      -1.485  14.161  21.440  0.00  0.00    +0.000 A 
ATOM     26  C   UNL     1      -1.701  15.357  20.765  0.00  0.00    +0.000 A 
ATOM     27  C   UNL     1      -1.121  15.556  19.518  0.00  0.00    +0.000 A 
ATOM     28  C   UNL     1      -0.340  14.550  18.938  0.00  0.00    +0.000 A 
ENDBRANCH   5  23
BRANCH   6  29
ATOM     29  C   UNL     1      -0.718  10.289  19.288  0.00  0.00    +0.000 C 
BRANCH  29  30
ATOM     30  C   UNL     1      -1.848  10.517  18.306  0.00  0.00    +0.000 A 
ATOM     31  C   UNL     1      -2.898  11.397  18.603  0.00  0.00    +0.000 A 
ATOM     32  C   UNL     1      -3.949  11.577  17.705  0.00  0.00    +0.000 A 
ATOM     33  C   UNL     1      -3.951  10.898  16.488  0.00  0.00    +0.000 A 
ATOM     34  C   UNL     1      -2.898  10.045  16.165  0.00  0.00    +0.000 A 
ATOM     35  C   UNL     1      -1.852   9.860  17.064  0.00  0.00    +0.000 A 
ENDBRANCH  29  30
ENDBRANCH   6  29
TORSDOF 6
ENDMDL
MODEL 4
REMARK VINA RESULT:      -8.9      0.628      1.041
REMARK  Name = 
REMARK  12 active torsions:
REMARK  status: ('A' for Active; 'I' for Inactive)
REMARK    1  A    between atoms: C_1  and  C_2
REMARK    2  A    between atoms: C_2  and  C_3
REMARK    3  A    between atoms: C_2  and  C_4
REMARK    4  A    between atoms: C_2  and  C_5
REMARK    5  A    between atoms: N_8  and  N_9
REMARK    6  A    between atoms: C_13  and  C_14
REMARK    7  A    between atoms: N_20  and  C_21
REMARK    8  A    between atoms: C_21  and  C_22
REMARK    9  A    between atoms: C_29  and  C_30
REMARK   10  A    between atoms: C_30  and  C_31
REMARK   11  A    between atoms: C_30  and  C_32
REMARK   12  A    between atoms: C_30  and  C_33
REMARK                            x       y       z     vdW  Elec       q    Type
REMARK                         _______ _______ _______ _____ _____    ______ ____
ROOT
ATOM      1  N   UNL     1       1.507   8.900  18.044  0.00  0.00    +0.000 NA
ATOM      2  C   UNL     1       1.533  10.174  18.324  0.00  0.00    +0.000 A 
ATOM      3  S   UNL     1       2.919  11.261  17.969  0.00  0.00    +0.000 S 
ATOM      4  C   UNL     1       2.071  12.629  18.625  0.00  0.00    +0.000 A 
ATOM      5  C   UNL     1       0.845  12.309  19.084  0.00  0.00    +0.000 A 
ATOM      6  N   UNL     1       0.523  10.936  18.927  0.00  0.00    +0.000 N 
ENDROOT
BRANCH   1  10
ATOM      7  C   UNL     1       2.749   4.939  18.705  0.00  0.00    +0.000 C 
ATOM      8  C   UNL     1       2.320   6.207  18.520  0.00  0.00    +0.000 C 
ATOM      9  C   UNL     1       3.003   7.197  17.662  0.00  0.00    +0.000 C 
ATOM     10  N   UNL     1       2.664   8.428  17.427  0.00  0.00    +0.000 NA
ATOM     11  C   UNL     1       4.225   6.714  16.993  0.00  0.00    +0.000 C 
ATOM     12  C   UNL     1       4.721   5.472  17.105  0.00  0.00    +0.000 C 
ATOM     13  C   UNL     1       3.991   4.501  17.984  0.00  0.00    +0.000 C 
ATOM     14  O   UNL     1       4.427   3.360  18.114  0.00  0.00    +0.000 OA
BRANCH   7  16
ATOM     15  C   UNL     1       1.160   2.998  18.719  0.00  0.00    +0.000 C 
ATOM     16  C   UNL     1       1.973   3.959  19.618  0.00  0.00    +0.000 C 
ATOM     17  C   UNL     1       1.020   4.754  20.544  0.00  0.00    +0.000 C 
ATOM     18  C   UNL     1       2.799   3.048  20.560  0.00  0.00    +0.000 C 
ENDBRANCH   7  16
BRANCH  12  19
ATOM     19  C   UNL     1       6.007   5.000  16.385  0.00  0.00    +0.000 C 
ATOM     20  C   UNL     1       6.537   6.059  15.381  0.00  0.00    +0.000 C 
ATOM     21  C   UNL     1       7.142   4.741  17.399  0.00  0.00    +0.000 C 
ATOM     22  C   UNL     1       5.759   3.717  15.559  0.00  0.00    +0.000 C 
ENDBRANCH  12  19
ENDBRANCH   1  10
BRANCH   5  23
ATOM     23  C   UNL     1      -0.059  13.339  19.649  0.00  0.00    +0.000 A 
ATOM     24  C   UNL     1      -0.266  14.560  18.979  0.00  0.00    +0.000 A 
ATOM     25  C   UNL     1      -1.141  15.528  19.486  0.00  0.00    +0.000 A 
ATOM     26  C   UNL     1      -1.860  15.278  20.650  0.00  0.00    +0.000 A 
ATOM     27  C   UNL     1      -1.672  14.079  21.327  0.00  0.00    +0.000 A 
ATOM     28  C   UNL     1      -0.751  13.139  20.851  0.00  0.00    +0.000 A 
ENDBRANCH   5  23
BRANCH   6  29
ATOM     29  C   UNL     1      -0.732  10.274  19.282  0.00  0.00    +0.000 C 
BRANCH  29  30
ATOM     30  C   UNL     1      -1.844  10.492  18.277  0.00  0.00    +0.000 A 
ATOM     31  C   UNL     1      -2.897  11.379  18.546  0.00  0.00    +0.000 A 
ATOM     32  C   UNL     1      -3.932  11.551  17.627  0.00  0.00    +0.000 A 
ATOM     33  C   UNL     1      -3.915  10.856  16.418  0.00  0.00    +0.000 A 
ATOM     34  C   UNL     1      -2.858   9.997  16.125  0.00  0.00    +0.000 A 
ATOM     35  C   UNL     1      -1.828   9.821  17.044  0.00  0.00    +0.000 A 
ENDBRANCH  29  30
ENDBRANCH   6  29
TORSDOF 6
ENDMDL
MODEL 5
REMARK VINA RESULT:      -8.9      0.560      1.483
REMARK  Name = 
REMARK  12 active torsions:
REMARK  status: ('A' for Active; 'I' for Inactive)
REMARK    1  A    between atoms: C_1  and  C_2
REMARK    2  A    between atoms: C_2  and  C_3
REMARK    3  A    between atoms: C_2  and  C_4
REMARK    4  A    between atoms: C_2  and  C_5
REMARK    5  A    between atoms: N_8  and  N_9
REMARK    6  A    between atoms: C_13  and  C_14
REMARK    7  A    between atoms: N_20  and  C_21
REMARK    8  A    between atoms: C_21  and  C_22
REMARK    9  A    between atoms: C_29  and  C_30
REMARK   10  A    between atoms: C_30  and  C_31
REMARK   11  A    between atoms: C_30  and  C_32
REMARK   12  A    between atoms: C_30  and  C_33
REMARK                            x       y       z     vdW  Elec       q    Type
REMARK                         _______ _______ _______ _____ _____    ______ ____
ROOT
ATOM      1  N   UNL     1       1.041   8.896  18.012  0.00  0.00    +0.000 NA
ATOM      2  C   UNL     1       0.894  10.008  18.680  0.00  0.00    +0.000 A 
ATOM      3  S   UNL     1       2.223  11.167  19.023  0.00  0.00    +0.000 S 
ATOM      4  C   UNL     1       1.135  12.234  19.859  0.00  0.00    +0.000 A 
ATOM      5  C   UNL     1      -0.128  11.767  19.891  0.00  0.00    +0.000 A 
ATOM      6  N   UNL     1      -0.286  10.518  19.236  0.00  0.00    +0.000 N 
ENDROOT
BRANCH   1  10
ATOM      7  C   UNL     1       2.847   5.165  18.709  0.00  0.00    +0.000 C 
ATOM      8  C   UNL     1       2.236   6.352  18.507  0.00  0.00    +0.000 C 
ATOM      9  C   UNL     1       2.854   7.497  17.807  0.00  0.00    +0.000 C 
ATOM     10  N   UNL     1       2.342   8.666  17.568  0.00  0.00    +0.000 NA
ATOM     11  C   UNL     1       4.227   7.270  17.321  0.00  0.00    +0.000 C 
ATOM     12  C   UNL     1       4.912   6.124  17.463  0.00  0.00    +0.000 C 
ATOM     13  C   UNL     1       4.241   4.990  18.178  0.00  0.00    +0.000 C 
ATOM     14  O   UNL     1       4.847   3.932  18.331  0.00  0.00    +0.000 OA
BRANCH   7  16
ATOM     15  C   UNL     1       1.451   3.105  18.395  0.00  0.00    +0.000 C 
ATOM     16  C   UNL     1       2.128   4.011  19.449  0.00  0.00    +0.000 C 
ATOM     17  C   UNL     1       1.064   4.594  20.412  0.00  0.00    +0.000 C 
ATOM     18  C   UNL     1       2.995   3.064  20.316  0.00  0.00    +0.000 C 
ENDBRANCH   7  16
BRANCH  12  19
ATOM     19  C   UNL     1       6.353   5.922  16.937  0.00  0.00    +0.000 C 
ATOM     20  C   UNL     1       7.165   4.937  17.821  0.00  0.00    +0.000 C 
ATOM     21  C   UNL     1       6.340   5.332  15.511  0.00  0.00    +0.000 C 
ATOM     22  C   UNL     1       7.150   7.246  16.933  0.00  0.00    +0.000 C 
ENDBRANCH  12  19
ENDBRANCH   1  10
BRANCH   5  23
ATOM     23  C   UNL     1      -1.221  12.544  20.523  0.00  0.00    +0.000 A 
ATOM     24  C   UNL     1      -1.650  13.765  19.968  0.00  0.00    +0.000 A 
ATOM     25  C   UNL     1      -2.702  14.493  20.538  0.00  0.00    +0.000 A 
ATOM     26  C   UNL     1      -3.374  13.994  21.649  0.00  0.00    +0.000 A 
ATOM     27  C   UNL     1      -2.968  12.790  22.212  0.00  0.00    +0.000 A 
ATOM     28  C   UNL     1      -1.878  12.096  21.677  0.00  0.00    +0.000 A 
ENDBRANCH   5  23
BRANCH   6  29
ATOM     29  C   UNL     1      -1.526   9.762  19.058  0.00  0.00    +0.000 C 
BRANCH  29  30
ATOM     30  C   UNL     1      -2.368  10.235  17.891  0.00  0.00    +0.000 A 
ATOM     31  C   UNL     1      -2.087   9.819  16.581  0.00  0.00    +0.000 A 
ATOM     32  C   UNL     1      -2.849  10.284  15.510  0.00  0.00    +0.000 A 
ATOM     33  C   UNL     1      -3.917  11.150  15.737  0.00  0.00    +0.000 A 
ATOM     34  C   UNL     1      -4.228  11.546  17.036  0.00  0.00    +0.000 A 
ATOM     35  C   UNL     1      -3.464  11.087  18.105  0.00  0.00    +0.000 A 
ENDBRANCH  29  30
ENDBRANCH   6  29
TORSDOF 6
ENDMDL
MODEL 6
REMARK VINA RESULT:      -8.9      0.141      1.053
REMARK  Name = 
REMARK  12 active torsions:
REMARK  status: ('A' for Active; 'I' for Inactive)
REMARK    1  A    between atoms: C_1  and  C_2
REMARK    2  A    between atoms: C_2  and  C_3
REMARK    3  A    between atoms: C_2  and  C_4
REMARK    4  A    between atoms: C_2  and  C_5
REMARK    5  A    between atoms: N_8  and  N_9
REMARK    6  A    between atoms: C_13  and  C_14
REMARK    7  A    between atoms: N_20  and  C_21
REMARK    8  A    between atoms: C_21  and  C_22
REMARK    9  A    between atoms: C_29  and  C_30
REMARK   10  A    between atoms: C_30  and  C_31
REMARK   11  A    between atoms: C_30  and  C_32
REMARK   12  A    between atoms: C_30  and  C_33
REMARK                            x       y       z     vdW  Elec       q    Type
REMARK                         _______ _______ _______ _____ _____    ______ ____
ROOT
ATOM      1  N   UNL     1       1.244   9.059  18.012  0.00  0.00    +0.000 NA
ATOM      2  C   UNL     1       1.151  10.269  18.494  0.00  0.00    +0.000 A 
ATOM      3  S   UNL     1       2.500  11.455  18.519  0.00  0.00    +0.000 S 
ATOM      4  C   UNL     1       1.485  12.658  19.258  0.00  0.00    +0.000 A 
ATOM      5  C   UNL     1       0.233  12.216  19.479  0.00  0.00    +0.000 A 
ATOM      6  N   UNL     1       0.023  10.877  19.060  0.00  0.00    +0.000 N 
ENDROOT
BRANCH   1  10
ATOM      7  C   UNL     1       2.835   5.217  18.617  0.00  0.00    +0.000 C 
ATOM      8  C   UNL     1       2.293   6.441  18.446  0.00  0.00    +0.000 C 
ATOM      9  C   UNL     1       2.947   7.544  17.712  0.00  0.00    +0.000 C 
ATOM     10  N   UNL     1       2.501   8.745  17.499  0.00  0.00    +0.000 NA
ATOM     11  C   UNL     1       4.274   7.228  17.154  0.00  0.00    +0.000 C 
ATOM     12  C   UNL     1       4.889   6.040  17.261  0.00  0.00    +0.000 C 
ATOM     13  C   UNL     1       4.184   4.951  18.012  0.00  0.00    +0.000 C 
ATOM     14  O   UNL     1       4.726   3.855  18.135  0.00  0.00    +0.000 OA
BRANCH   7  16
ATOM     15  C   UNL     1       3.111   3.333  20.250  0.00  0.00    +0.000 C 
ATOM     16  C   UNL     1       2.083   4.111  19.397  0.00  0.00    +0.000 C 
ATOM     17  C   UNL     1       1.385   3.153  18.400  0.00  0.00    +0.000 C 
ATOM     18  C   UNL     1       0.975   4.556  20.385  0.00  0.00    +0.000 C 
ENDBRANCH   7  16
BRANCH  12  19
ATOM     19  C   UNL     1       6.283   5.744  16.659  0.00  0.00    +0.000 C 
ATOM     20  C   UNL     1       7.035   4.634  17.442  0.00  0.00    +0.000 C 
ATOM     21  C   UNL     1       6.159   5.252  15.201  0.00  0.00    +0.000 C 
ATOM     22  C   UNL     1       7.198   6.989  16.700  0.00  0.00    +0.000 C 
ENDBRANCH  12  19
ENDBRANCH   1  10
BRANCH   5  23
ATOM     23  C   UNL     1      -0.803  13.099  20.067  0.00  0.00    +0.000 A 
ATOM     24  C   UNL     1      -1.638  12.638  21.102  0.00  0.00    +0.000 A 
ATOM     25  C   UNL     1      -2.600  13.471  21.687  0.00  0.00    +0.000 A 
ATOM     26  C   UNL     1      -2.717  14.795  21.278  0.00  0.00    +0.000 A 
ATOM     27  C   UNL     1      -1.901  15.272  20.258  0.00  0.00    +0.000 A 
ATOM     28  C   UNL     1      -0.984  14.419  19.634  0.00  0.00    +0.000 A 
ENDBRANCH   5  23
BRANCH   6  29
ATOM     29  C   UNL     1      -1.224  10.114  19.121  0.00  0.00    +0.000 C 
BRANCH  29  30
ATOM     30  C   UNL     1      -2.180  10.412  17.984  0.00  0.00    +0.000 A 
ATOM     31  C   UNL     1      -3.274  11.270  18.165  0.00  0.00    +0.000 A 
ATOM     32  C   UNL     1      -4.165  11.515  17.121  0.00  0.00    +0.000 A 
ATOM     33  C   UNL     1      -3.959  10.924  15.875  0.00  0.00    +0.000 A 
ATOM     34  C   UNL     1      -2.858  10.095  15.672  0.00  0.00    +0.000 A 
ATOM     35  C   UNL     1      -1.972   9.846  16.715  0.00  0.00    +0.000 A 
ENDBRANCH  29  30
ENDBRANCH   6  29
TORSDOF 6
ENDMDL
MODEL 7
REMARK VINA RESULT:      -8.8      0.631      1.053
REMARK  Name = 
REMARK  12 active torsions:
REMARK  status: ('A' for Active; 'I' for Inactive)
REMARK    1  A    between atoms: C_1  and  C_2
REMARK    2  A    between atoms: C_2  and  C_3
REMARK    3  A    between atoms: C_2  and  C_4
REMARK    4  A    between atoms: C_2  and  C_5
REMARK    5  A    between atoms: N_8  and  N_9
REMARK    6  A    between atoms: C_13  and  C_14
REMARK    7  A    between atoms: N_20  and  C_21
REMARK    8  A    between atoms: C_21  and  C_22
REMARK    9  A    between atoms: C_29  and  C_30
REMARK   10  A    between atoms: C_30  and  C_31
REMARK   11  A    between atoms: C_30  and  C_32
REMARK   12  A    between atoms: C_30  and  C_33
REMARK                            x       y       z     vdW  Elec       q    Type
REMARK                         _______ _______ _______ _____ _____    ______ ____
ROOT
ATOM      1  N   UNL     1       1.001   8.917  18.047  0.00  0.00    +0.000 NA
ATOM      2  C   UNL     1       0.841  10.013  18.738  0.00  0.00    +0.000 A 
ATOM      3  S   UNL     1       2.161  11.166  19.129  0.00  0.00    +0.000 S 
ATOM      4  C   UNL     1       1.059  12.211  19.973  0.00  0.00    +0.000 A 
ATOM      5  C   UNL     1      -0.204  11.741  19.975  0.00  0.00    +0.000 A 
ATOM      6  N   UNL     1      -0.349  10.508  19.289  0.00  0.00    +0.000 N 
ENDROOT
BRANCH   1  10
ATOM      7  C   UNL     1       2.819   5.187  18.717  0.00  0.00    +0.000 C 
ATOM      8  C   UNL     1       2.203   6.373  18.523  0.00  0.00    +0.000 C 
ATOM      9  C   UNL     1       2.824   7.531  17.847  0.00  0.00    +0.000 C 
ATOM     10  N   UNL     1       2.309   8.700  17.618  0.00  0.00    +0.000 NA
ATOM     11  C   UNL     1       4.205   7.318  17.377  0.00  0.00    +0.000 C 
ATOM     12  C   UNL     1       4.894   6.174  17.512  0.00  0.00    +0.000 C 
ATOM     13  C   UNL     1       4.220   5.026  18.202  0.00  0.00    +0.000 C 
ATOM     14  O   UNL     1       4.830   3.969  18.349  0.00  0.00    +0.000 OA
BRANCH   7  16
ATOM     15  C   UNL     1       1.397   3.152  18.360  0.00  0.00    +0.000 C 
ATOM     16  C   UNL     1       2.096   4.019  19.432  0.00  0.00    +0.000 C 
ATOM     17  C   UNL     1       1.050   4.584  20.425  0.00  0.00    +0.000 C 
ATOM     18  C   UNL     1       2.963   3.037  20.260  0.00  0.00    +0.000 C 
ENDBRANCH   7  16
BRANCH  12  19
ATOM     19  C   UNL     1       6.343   5.987  17.004  0.00  0.00    +0.000 C 
ATOM     20  C   UNL     1       7.116   7.332  16.931  0.00  0.00    +0.000 C 
ATOM     21  C   UNL     1       7.144   5.066  17.950  0.00  0.00    +0.000 C 
ATOM     22  C   UNL     1       6.375   5.400  15.575  0.00  0.00    +0.000 C 
ENDBRANCH  12  19
ENDBRANCH   1  10
BRANCH   5  23
ATOM     23  C   UNL     1      -1.308  12.501  20.608  0.00  0.00    +0.000 A 
ATOM     24  C   UNL     1      -1.822  13.663  20.002  0.00  0.00    +0.000 A 
ATOM     25  C   UNL     1      -2.885  14.372  20.574  0.00  0.00    +0.000 A 
ATOM     26  C   UNL     1      -3.484  13.910  21.741  0.00  0.00    +0.000 A 
ATOM     27  C   UNL     1      -2.993  12.764  22.356  0.00  0.00    +0.000 A 
ATOM     28  C   UNL     1      -1.892  12.092  21.815  0.00  0.00    +0.000 A 
ENDBRANCH   5  23
BRANCH   6  29
ATOM     29  C   UNL     1      -1.584   9.753  19.074  0.00  0.00    +0.000 C 
BRANCH  29  30
ATOM     30  C   UNL     1      -2.403  10.244  17.898  0.00  0.00    +0.000 A 
ATOM     31  C   UNL     1      -3.498  11.099  18.087  0.00  0.00    +0.000 A 
ATOM     32  C   UNL     1      -4.265  11.522  17.001  0.00  0.00    +0.000 A 
ATOM     33  C   UNL     1      -3.931  11.114  15.711  0.00  0.00    +0.000 A 
ATOM     34  C   UNL     1      -2.827  10.291  15.505  0.00  0.00    +0.000 A 
ATOM     35  C   UNL     1      -2.065   9.864  16.589  0.00  0.00    +0.000 A 
ENDBRANCH  29  30
ENDBRANCH   6  29
TORSDOF 6
ENDMDL
MODEL 8
REMARK VINA RESULT:      -8.8      0.144      1.317
REMARK  Name = 
REMARK  12 active torsions:
REMARK  status: ('A' for Active; 'I' for Inactive)
REMARK    1  A    between atoms: C_1  and  C_2
REMARK    2  A    between atoms: C_2  and  C_3
REMARK    3  A    between atoms: C_2  and  C_4
REMARK    4  A    between atoms: C_2  and  C_5
REMARK    5  A    between atoms: N_8  and  N_9
REMARK    6  A    between atoms: C_13  and  C_14
REMARK    7  A    between atoms: N_20  and  C_21
REMARK    8  A    between atoms: C_21  and  C_22
REMARK    9  A    between atoms: C_29  and  C_30
REMARK   10  A    between atoms: C_30  and  C_31
REMARK   11  A    between atoms: C_30  and  C_32
REMARK   12  A    between atoms: C_30  and  C_33
REMARK                            x       y       z     vdW  Elec       q    Type
REMARK                         _______ _______ _______ _____ _____    ______ ____
ROOT
ATOM      1  N   UNL     1       1.221   9.045  18.035  0.00  0.00    +0.000 NA
ATOM      2  C   UNL     1       1.132  10.253  18.522  0.00  0.00    +0.000 A 
ATOM      3  S   UNL     1       2.485  11.435  18.553  0.00  0.00    +0.000 S 
ATOM      4  C   UNL     1       1.474  12.639  19.296  0.00  0.00    +0.000 A 
ATOM      5  C   UNL     1       0.220  12.199  19.515  0.00  0.00    +0.000 A 
ATOM      6  N   UNL     1       0.006  10.863  19.090  0.00  0.00    +0.000 N 
ENDROOT
BRANCH   1  10
ATOM      7  C   UNL     1       2.830   5.218  18.686  0.00  0.00    +0.000 C 
ATOM      8  C   UNL     1       2.282   6.438  18.501  0.00  0.00    +0.000 C 
ATOM      9  C   UNL     1       2.929   7.533  17.749  0.00  0.00    +0.000 C 
ATOM     10  N   UNL     1       2.478   8.729  17.521  0.00  0.00    +0.000 NA
ATOM     11  C   UNL     1       4.255   7.214  17.189  0.00  0.00    +0.000 C 
ATOM     12  C   UNL     1       4.875   6.030  17.310  0.00  0.00    +0.000 C 
ATOM     13  C   UNL     1       4.177   4.949  18.079  0.00  0.00    +0.000 C 
ATOM     14  O   UNL     1       4.724   3.856  18.214  0.00  0.00    +0.000 OA
BRANCH   7  16
ATOM     15  C   UNL     1       1.060   4.808  20.416  0.00  0.00    +0.000 C 
ATOM     16  C   UNL     1       2.085   4.120  19.484  0.00  0.00    +0.000 C 
ATOM     17  C   UNL     1       3.102   3.305  20.321  0.00  0.00    +0.000 C 
ATOM     18  C   UNL     1       1.276   3.071  18.680  0.00  0.00    +0.000 C 
ENDBRANCH   7  16
BRANCH  12  19
ATOM     19  C   UNL     1       6.268   5.732  16.706  0.00  0.00    +0.000 C 
ATOM     20  C   UNL     1       7.031   4.643  17.507  0.00  0.00    +0.000 C 
ATOM     21  C   UNL     1       6.139   5.210  15.258  0.00  0.00    +0.000 C 
ATOM     22  C   UNL     1       7.174   6.983  16.718  0.00  0.00    +0.000 C 
ENDBRANCH  12  19
ENDBRANCH   1  10
BRANCH   5  23
ATOM     23  C   UNL     1      -0.813  13.083  20.106  0.00  0.00    +0.000 A 
ATOM     24  C   UNL     1      -0.954  14.415  19.672  0.00  0.00    +0.000 A 
ATOM     25  C   UNL     1      -1.945  15.251  20.200  0.00  0.00    +0.000 A 
ATOM     26  C   UNL     1      -2.844  14.760  21.141  0.00  0.00    +0.000 A 
ATOM     27  C   UNL     1      -2.724  13.447  21.583  0.00  0.00    +0.000 A 
ATOM     28  C   UNL     1      -1.694  12.634  21.099  0.00  0.00    +0.000 A 
ENDBRANCH   5  23
BRANCH   6  29
ATOM     29  C   UNL     1      -1.244  10.104  19.148  0.00  0.00    +0.000 C 
BRANCH  29  30
ATOM     30  C   UNL     1      -2.202  10.417  18.018  0.00  0.00    +0.000 A 
ATOM     31  C   UNL     1      -3.278  11.297  18.205  0.00  0.00    +0.000 A 
ATOM     32  C   UNL     1      -4.172  11.555  17.167  0.00  0.00    +0.000 A 
ATOM     33  C   UNL     1      -3.988  10.957  15.921  0.00  0.00    +0.000 A 
ATOM     34  C   UNL     1      -2.905  10.107  15.712  0.00  0.00    +0.000 A 
ATOM     35  C   UNL     1      -2.015   9.844  16.749  0.00  0.00    +0.000 A 
ENDBRANCH  29  30
ENDBRANCH   6  29
TORSDOF 6
ENDMDL
MODEL 9
REMARK VINA RESULT:      -8.8      0.070      1.017
REMARK  Name = 
REMARK  12 active torsions:
REMARK  status: ('A' for Active; 'I' for Inactive)
REMARK    1  A    between atoms: C_1  and  C_2
REMARK    2  A    between atoms: C_2  and  C_3
REMARK    3  A    between atoms: C_2  and  C_4
REMARK    4  A    between atoms: C_2  and  C_5
REMARK    5  A    between atoms: N_8  and  N_9
REMARK    6  A    between atoms: C_13  and  C_14
REMARK    7  A    between atoms: N_20  and  C_21
REMARK    8  A    between atoms: C_21  and  C_22
REMARK    9  A    between atoms: C_29  and  C_30
REMARK   10  A    between atoms: C_30  and  C_31
REMARK   11  A    between atoms: C_30  and  C_32
REMARK   12  A    between atoms: C_30  and  C_33
REMARK                            x       y       z     vdW  Elec       q    Type
REMARK                         _______ _______ _______ _____ _____    ______ ____
ROOT
ATOM      1  N   UNL     1       1.260   9.084  18.046  0.00  0.00    +0.000 NA
ATOM      2  C   UNL     1       1.177  10.309  18.487  0.00  0.00    +0.000 A 
ATOM      3  S   UNL     1       2.530  11.490  18.458  0.00  0.00    +0.000 S 
ATOM      4  C   UNL     1       1.528  12.723  19.164  0.00  0.00    +0.000 A 
ATOM      5  C   UNL     1       0.276  12.293  19.413  0.00  0.00    +0.000 A 
ATOM      6  N   UNL     1       0.057  10.942  19.042  0.00  0.00    +0.000 N 
ENDROOT
BRANCH   1  10
ATOM      7  C   UNL     1       2.797   5.223  18.677  0.00  0.00    +0.000 C 
ATOM      8  C   UNL     1       2.272   6.454  18.498  0.00  0.00    +0.000 C 
ATOM      9  C   UNL     1       2.940   7.541  17.753  0.00  0.00    +0.000 C 
ATOM     10  N   UNL     1       2.511   8.746  17.532  0.00  0.00    +0.000 NA
ATOM     11  C   UNL     1       4.261   7.201  17.194  0.00  0.00    +0.000 C 
ATOM     12  C   UNL     1       4.858   6.005  17.308  0.00  0.00    +0.000 C 
ATOM     13  C   UNL     1       4.139   4.932  18.071  0.00  0.00    +0.000 C 
ATOM     14  O   UNL     1       4.665   3.829  18.200  0.00  0.00    +0.000 OA
BRANCH   7  16
ATOM     15  C   UNL     1       0.978   4.834  20.361  0.00  0.00    +0.000 C 
ATOM     16  C   UNL     1       2.030   4.135  19.468  0.00  0.00    +0.000 C 
ATOM     17  C   UNL     1       3.023   3.332  20.345  0.00  0.00    +0.000 C 
ATOM     18  C   UNL     1       1.246   3.074  18.656  0.00  0.00    +0.000 C 
ENDBRANCH   7  16
BRANCH  12  19
ATOM     19  C   UNL     1       6.246   5.684  16.705  0.00  0.00    +0.000 C 
ATOM     20  C   UNL     1       6.143   5.170  15.243  0.00  0.00    +0.000 C 
ATOM     21  C   UNL     1       7.135   6.945  16.670  0.00  0.00    +0.000 C 
ATOM     22  C   UNL     1       6.969   4.572  17.497  0.00  0.00    +0.000 C 
ENDBRANCH  12  19
ENDBRANCH   1  10
BRANCH   5  23
ATOM     23  C   UNL     1      -0.751  13.200  19.980  0.00  0.00    +0.000 A 
ATOM     24  C   UNL     1      -1.638  12.749  20.976  0.00  0.00    +0.000 A 
ATOM     25  C   UNL     1      -2.592  13.604  21.541  0.00  0.00    +0.000 A 
ATOM     26  C   UNL     1      -2.649  14.939  21.154  0.00  0.00    +0.000 A 
ATOM     27  C   UNL     1      -1.782  15.406  20.173  0.00  0.00    +0.000 A 
ATOM     28  C   UNL     1      -0.872  14.534  19.567  0.00  0.00    +0.000 A 
ENDBRANCH   5  23
BRANCH   6  29
ATOM     29  C   UNL     1      -1.193  10.187  19.142  0.00  0.00    +0.000 C 
BRANCH  29  30
ATOM     30  C   UNL     1      -2.151  10.437  17.997  0.00  0.00    +0.000 A 
ATOM     31  C   UNL     1      -3.233  11.318  18.139  0.00  0.00    +0.000 A 
ATOM     32  C   UNL     1      -4.128  11.519  17.088  0.00  0.00    +0.000 A 
ATOM     33  C   UNL     1      -3.938  10.861  15.874  0.00  0.00    +0.000 A 
ATOM     34  C   UNL     1      -2.849  10.008  15.708  0.00  0.00    +0.000 A 
ATOM     35  C   UNL     1      -1.959   9.803  16.758  0.00  0.00    +0.000 A 
ENDBRANCH  29  30
ENDBRANCH   6  29
TORSDOF 6
ENDMDL
