MODEL 1
REMARK VINA RESULT:      -8.3      0.000      0.000
REMARK  Name = 
REMARK  4 active torsions:
REMARK  status: ('A' for Active; 'I' for Inactive)
REMARK    1  A    between atoms: C_1  and  C_2
REMARK    2  A    between atoms: C_7  and  C_8
REMARK    3  A    between atoms: C_8  and  N_9
REMARK    4  A    between atoms: N_12  and  C_13
REMARK                            x       y       z     vdW  Elec       q    Type
REMARK                         _______ _______ _______ _____ _____    ______ ____
ROOT
ATOM      1  N   UNL     1       4.451   5.752  18.731  0.00  0.00    +0.000 NA
ATOM      2  C   UNL     1       4.804   4.396  18.303  0.00  0.00    +0.000 C 
ATOM      3  C   UNL     1       4.956   4.076  16.802  0.00  0.00    +0.000 C 
ATOM      4  N   UNL     1       5.571   5.154  16.005  0.00  0.00    +0.000 N 
ATOM      5  C   UNL     1       5.065   6.499  16.327  0.00  0.00    +0.000 C 
ATOM      6  C   UNL     1       4.965   6.792  17.841  0.00  0.00    +0.000 C 
ENDROOT
BRANCH   4   7
ATOM      7  C   UNL     1       6.202   4.820  14.780  0.00  0.00    +0.000 A 
ATOM      8  C   UNL     1       5.698   3.875  13.965  0.00  0.00    +0.000 A 
ATOM      9  C   UNL     1       6.302   3.627  12.654  0.00  0.00    +0.000 A 
ATOM     10  O   UNL     1       5.858   2.783  11.889  0.00  0.00    +0.000 OA
ATOM     11  N   UNL     1       7.376   4.396  12.357  0.00  0.00    +0.000 N 
ATOM     12  C   UNL     1       7.873   5.293  13.244  0.00  0.00    +0.000 A 
ATOM     13  N   UNL     1       8.991   5.963  12.857  0.00  0.00    +0.000 N 
ATOM     14  N   UNL     1       7.354   5.494  14.405  0.00  0.00    +0.000 NA
ATOM     15  H   UNL     1       7.787   4.278  11.448  0.00  0.00    +0.000 HD
ATOM     16  H   UNL     1       9.621   5.495  12.217  0.00  0.00    +0.000 HD
ATOM     17  H   UNL     1       9.461   6.416  13.631  0.00  0.00    +0.000 HD
ENDBRANCH   4   7
BRANCH   1  18
ATOM     18  C   UNL     1       3.094   5.972  19.226  0.00  0.00    +0.000 C 
BRANCH  18  25
ATOM     19  C   UNL     1       1.279   4.063  17.567  0.00  0.00    +0.000 C 
ATOM     20  C   UNL     1       1.574   3.889  19.027  0.00  0.00    +0.000 A 
ATOM     21  C   UNL     1       0.891   2.889  19.723  0.00  0.00    +0.000 A 
ATOM     22  N   UNL     1       1.068   2.596  21.031  0.00  0.00    +0.000 NA
ATOM     23  C   UNL     1       1.979   3.334  21.689  0.00  0.00    +0.000 A 
ATOM     24  C   UNL     1       2.691   4.370  21.110  0.00  0.00    +0.000 A 
ATOM     25  C   UNL     1       2.461   4.696  19.762  0.00  0.00    +0.000 A 
ENDBRANCH  18  25
ENDBRANCH   1  18
TORSDOF 3
ENDMDL
MODEL 2
REMARK VINA RESULT:      -7.8      0.866      1.658
REMARK  Name = 
REMARK  4 active torsions:
REMARK  status: ('A' for Active; 'I' for Inactive)
REMARK    1  A    between atoms: C_1  and  C_2
REMARK    2  A    between atoms: C_7  and  C_8
REMARK    3  A    between atoms: C_8  and  N_9
REMARK    4  A    between atoms: N_12  and  C_13
REMARK                            x       y       z     vdW  Elec       q    Type
REMARK                         _______ _______ _______ _____ _____    ______ ____
ROOT
ATOM      1  N   UNL     1       4.961   5.112  19.173  0.00  0.00    +0.000 NA
ATOM      2  C   UNL     1       5.001   3.824  18.476  0.00  0.00    +0.000 C 
ATOM      3  C   UNL     1       5.033   3.781  16.935  0.00  0.00    +0.000 C 
ATOM      4  N   UNL     1       5.841   4.846  16.310  0.00  0.00    +0.000 N 
ATOM      5  C   UNL     1       5.646   6.176  16.912  0.00  0.00    +0.000 C 
ATOM      6  C   UNL     1       5.658   6.178  18.457  0.00  0.00    +0.000 C 
ENDROOT
BRANCH   4   7
ATOM      7  C   UNL     1       6.348   4.637  15.002  0.00  0.00    +0.000 A 
ATOM      8  C   UNL     1       5.774   3.758  14.159  0.00  0.00    +0.000 A 
ATOM      9  C   UNL     1       6.245   3.642  12.777  0.00  0.00    +0.000 A 
ATOM     10  O   UNL     1       5.735   2.860  11.986  0.00  0.00    +0.000 OA
ATOM     11  N   UNL     1       7.273   4.457  12.444  0.00  0.00    +0.000 N 
ATOM     12  C   UNL     1       7.847   5.281  13.355  0.00  0.00    +0.000 A 
ATOM     13  N   UNL     1       8.911   6.007  12.920  0.00  0.00    +0.000 N 
ATOM     14  N   UNL     1       7.447   5.366  14.577  0.00  0.00    +0.000 NA
ATOM     15  H   UNL     1       7.590   4.431  11.492  0.00  0.00    +0.000 HD
ATOM     16  H   UNL     1       9.478   5.613  12.180  0.00  0.00    +0.000 HD
ATOM     17  H   UNL     1       9.453   6.399  13.681  0.00  0.00    +0.000 HD
ENDBRANCH   4   7
BRANCH   1  18
ATOM     18  C   UNL     1       3.699   5.504  19.796  0.00  0.00    +0.000 C 
BRANCH  18  25
ATOM     19  C   UNL     1       2.436   3.259  21.545  0.00  0.00    +0.000 C 
ATOM     20  C   UNL     1       2.037   3.551  20.129  0.00  0.00    +0.000 A 
ATOM     21  C   UNL     1       1.138   2.681  19.506  0.00  0.00    +0.000 A 
ATOM     22  N   UNL     1       0.666   2.827  18.247  0.00  0.00    +0.000 NA
ATOM     23  C   UNL     1       1.106   3.899  17.566  0.00  0.00    +0.000 A 
ATOM     24  C   UNL     1       2.021   4.807  18.071  0.00  0.00    +0.000 A 
ATOM     25  C   UNL     1       2.541   4.617  19.362  0.00  0.00    +0.000 A 
ENDBRANCH  18  25
ENDBRANCH   1  18
TORSDOF 3
ENDMDL
MODEL 3
REMARK VINA RESULT:      -7.7      1.051      1.616
REMARK  Name = 
REMARK  4 active torsions:
REMARK  status: ('A' for Active; 'I' for Inactive)
REMARK    1  A    between atoms: C_1  and  C_2
REMARK    2  A    between atoms: C_7  and  C_8
REMARK    3  A    between atoms: C_8  and  N_9
REMARK    4  A    between atoms: N_12  and  C_13
REMARK                            x       y       z     vdW  Elec       q    Type
REMARK                         _______ _______ _______ _____ _____    ______ ____
ROOT
ATOM      1  N   UNL     1       4.200   5.818  18.302  0.00  0.00    +0.000 NA
ATOM      2  C   UNL     1       5.345   6.562  17.769  0.00  0.00    +0.000 C 
ATOM      3  C   UNL     1       6.305   5.888  16.768  0.00  0.00    +0.000 C 
ATOM      4  N   UNL     1       5.648   4.990  15.799  0.00  0.00    +0.000 N 
ATOM      5  C   UNL     1       4.623   4.116  16.394  0.00  0.00    +0.000 C 
ATOM      6  C   UNL     1       3.659   4.840  17.361  0.00  0.00    +0.000 C 
ENDROOT
BRANCH   4   7
ATOM      7  C   UNL     1       6.302   4.718  14.570  0.00  0.00    +0.000 A 
ATOM      8  C   UNL     1       5.851   3.768  13.731  0.00  0.00    +0.000 A 
ATOM      9  C   UNL     1       6.474   3.583  12.418  0.00  0.00    +0.000 A 
ATOM     10  O   UNL     1       6.078   2.735  11.631  0.00  0.00    +0.000 OA
ATOM     11  N   UNL     1       7.507   4.413  12.145  0.00  0.00    +0.000 N 
ATOM     12  C   UNL     1       7.953   5.313  13.056  0.00  0.00    +0.000 A 
ATOM     13  N   UNL     1       9.036   6.050  12.691  0.00  0.00    +0.000 N 
ATOM     14  N   UNL     1       7.418   5.460  14.218  0.00  0.00    +0.000 NA
ATOM     15  H   UNL     1       7.928   4.339  11.236  0.00  0.00    +0.000 HD
ATOM     16  H   UNL     1       9.693   5.631  12.044  0.00  0.00    +0.000 HD
ATOM     17  H   UNL     1       9.479   6.508  13.478  0.00  0.00    +0.000 HD
ENDBRANCH   4   7
BRANCH   1  18
ATOM     18  C   UNL     1       4.274   5.370  19.690  0.00  0.00    +0.000 C 
BRANCH  18  25
ATOM     19  C   UNL     1       4.476   2.278  19.986  0.00  0.00    +0.000 C 
ATOM     20  C   UNL     1       3.201   3.056  20.113  0.00  0.00    +0.000 A 
ATOM     21  C   UNL     1       2.005   2.345  20.240  0.00  0.00    +0.000 A 
ATOM     22  N   UNL     1       0.783   2.904  20.389  0.00  0.00    +0.000 NA
ATOM     23  C   UNL     1       0.742   4.248  20.420  0.00  0.00    +0.000 A 
ATOM     24  C   UNL     1       1.858   5.053  20.271  0.00  0.00    +0.000 A 
ATOM     25  C   UNL     1       3.115   4.460  20.067  0.00  0.00    +0.000 A 
ENDBRANCH  18  25
ENDBRANCH   1  18
TORSDOF 3
ENDMDL
MODEL 4
REMARK VINA RESULT:      -7.6      1.237      1.624
REMARK  Name = 
REMARK  4 active torsions:
REMARK  status: ('A' for Active; 'I' for Inactive)
REMARK    1  A    between atoms: C_1  and  C_2
REMARK    2  A    between atoms: C_7  and  C_8
REMARK    3  A    between atoms: C_8  and  N_9
REMARK    4  A    between atoms: N_12  and  C_13
REMARK                            x       y       z     vdW  Elec       q    Type
REMARK                         _______ _______ _______ _____ _____    ______ ____
ROOT
ATOM      1  N   UNL     1       5.256   5.489  18.925  0.00  0.00    +0.000 NA
ATOM      2  C   UNL     1       6.628   5.139  18.546  0.00  0.00    +0.000 C 
ATOM      3  C   UNL     1       6.901   4.417  17.211  0.00  0.00    +0.000 C 
ATOM      4  N   UNL     1       6.045   4.857  16.092  0.00  0.00    +0.000 N 
ATOM      5  C   UNL     1       4.628   5.027  16.454  0.00  0.00    +0.000 C 
ATOM      6  C   UNL     1       4.400   5.788  17.779  0.00  0.00    +0.000 C 
ENDROOT
BRANCH   4   7
ATOM      7  C   UNL     1       6.504   4.657  14.765  0.00  0.00    +0.000 A 
ATOM      8  C   UNL     1       5.952   3.726  13.964  0.00  0.00    +0.000 A 
ATOM      9  C   UNL     1       6.364   3.616  12.563  0.00  0.00    +0.000 A 
ATOM     10  O   UNL     1       5.872   2.787  11.810  0.00  0.00    +0.000 OA
ATOM     11  N   UNL     1       7.318   4.491  12.169  0.00  0.00    +0.000 N 
ATOM     12  C   UNL     1       7.878   5.369  13.038  0.00  0.00    +0.000 A 
ATOM     13  N   UNL     1       8.869   6.156  12.542  0.00  0.00    +0.000 N 
ATOM     14  N   UNL     1       7.530   5.450  14.276  0.00  0.00    +0.000 NA
ATOM     15  H   UNL     1       7.592   4.468  11.204  0.00  0.00    +0.000 HD
ATOM     16  H   UNL     1       9.426   5.786  11.782  0.00  0.00    +0.000 HD
ATOM     17  H   UNL     1       9.418   6.597  13.270  0.00  0.00    +0.000 HD
ENDBRANCH   4   7
BRANCH   1  18
ATOM     18  C   UNL     1       4.627   4.703  19.983  0.00  0.00    +0.000 C 
BRANCH  18  25
ATOM     19  C   UNL     1       1.675   5.567  20.459  0.00  0.00    +0.000 C 
ATOM     20  C   UNL     1       2.082   4.292  19.784  0.00  0.00    +0.000 A 
ATOM     21  C   UNL     1       1.084   3.367  19.466  0.00  0.00    +0.000 A 
ATOM     22  N   UNL     1       1.292   2.189  18.835  0.00  0.00    +0.000 NA
ATOM     23  C   UNL     1       2.563   1.911  18.495  0.00  0.00    +0.000 A 
ATOM     24  C   UNL     1       3.634   2.737  18.789  0.00  0.00    +0.000 A 
ATOM     25  C   UNL     1       3.410   3.935  19.488  0.00  0.00    +0.000 A 
ENDBRANCH  18  25
ENDBRANCH   1  18
TORSDOF 3
ENDMDL
MODEL 5
REMARK VINA RESULT:      -7.5      1.048      1.073
REMARK  Name = 
REMARK  4 active torsions:
REMARK  status: ('A' for Active; 'I' for Inactive)
REMARK    1  A    between atoms: C_1  and  C_2
REMARK    2  A    between atoms: C_7  and  C_8
REMARK    3  A    between atoms: C_8  and  N_9
REMARK    4  A    between atoms: N_12  and  C_13
REMARK                            x       y       z     vdW  Elec       q    Type
REMARK                         _______ _______ _______ _____ _____    ______ ____
ROOT
ATOM      1  N   UNL     1       5.365   4.231  18.979  0.00  0.00    +0.000 NA
ATOM      2  C   UNL     1       4.843   3.325  17.953  0.00  0.00    +0.000 C 
ATOM      3  C   UNL     1       4.933   3.710  16.462  0.00  0.00    +0.000 C 
ATOM      4  N   UNL     1       6.173   4.417  16.087  0.00  0.00    +0.000 N 
ATOM      5  C   UNL     1       6.583   5.456  17.047  0.00  0.00    +0.000 C 
ATOM      6  C   UNL     1       6.513   5.015  18.526  0.00  0.00    +0.000 C 
ENDROOT
BRANCH   4   7
ATOM      7  C   UNL     1       6.595   4.380  14.734  0.00  0.00    +0.000 A 
ATOM      8  C   UNL     1       6.060   3.511  13.856  0.00  0.00    +0.000 A 
ATOM      9  C   UNL     1       6.428   3.567  12.439  0.00  0.00    +0.000 A 
ATOM     10  O   UNL     1       5.950   2.798  11.618  0.00  0.00    +0.000 OA
ATOM     11  N   UNL     1       7.326   4.526  12.112  0.00  0.00    +0.000 N 
ATOM     12  C   UNL     1       7.874   5.335  13.053  0.00  0.00    +0.000 A 
ATOM     13  N   UNL     1       8.810   6.218  12.614  0.00  0.00    +0.000 N 
ATOM     14  N   UNL     1       7.565   5.269  14.302  0.00  0.00    +0.000 NA
ATOM     15  H   UNL     1       7.568   4.617  11.142  0.00  0.00    +0.000 HD
ATOM     16  H   UNL     1       9.357   5.958  11.803  0.00  0.00    +0.000 HD
ATOM     17  H   UNL     1       9.362   6.608  13.368  0.00  0.00    +0.000 HD
ENDBRANCH   4   7
BRANCH   1  18
ATOM     18  C   UNL     1       4.396   4.961  19.792  0.00  0.00    +0.000 C 
BRANCH  18  25
ATOM     19  C   UNL     1       1.814   5.144  18.062  0.00  0.00    +0.000 C 
ATOM     20  C   UNL     1       1.941   4.313  19.303  0.00  0.00    +0.000 A 
ATOM     21  C   UNL     1       0.794   3.684  19.794  0.00  0.00    +0.000 A 
ATOM     22  N   UNL     1       0.755   2.884  20.884  0.00  0.00    +0.000 NA
ATOM     23  C   UNL     1       1.922   2.691  21.523  0.00  0.00    +0.000 A 
ATOM     24  C   UNL     1       3.112   3.289  21.145  0.00  0.00    +0.000 A 
ATOM     25  C   UNL     1       3.128   4.157  20.041  0.00  0.00    +0.000 A 
ENDBRANCH  18  25
ENDBRANCH   1  18
TORSDOF 3
ENDMDL
MODEL 6
REMARK VINA RESULT:      -7.3      1.324      1.859
REMARK  Name = 
REMARK  4 active torsions:
REMARK  status: ('A' for Active; 'I' for Inactive)
REMARK    1  A    between atoms: C_1  and  C_2
REMARK    2  A    between atoms: C_7  and  C_8
REMARK    3  A    between atoms: C_8  and  N_9
REMARK    4  A    between atoms: N_12  and  C_13
REMARK                            x       y       z     vdW  Elec       q    Type
REMARK                         _______ _______ _______ _____ _____    ______ ____
ROOT
ATOM      1  N   UNL     1       5.156   5.759  18.902  0.00  0.00    +0.000 NA
ATOM      2  C   UNL     1       6.110   4.695  18.580  0.00  0.00    +0.000 C 
ATOM      3  C   UNL     1       6.146   4.094  17.159  0.00  0.00    +0.000 C 
ATOM      4  N   UNL     1       5.922   5.071  16.076  0.00  0.00    +0.000 N 
ATOM      5  C   UNL     1       4.830   6.022  16.345  0.00  0.00    +0.000 C 
ATOM      6  C   UNL     1       4.855   6.628  17.767  0.00  0.00    +0.000 C 
ENDROOT
BRANCH   4   7
ATOM      7  C   UNL     1       6.407   4.770  14.778  0.00  0.00    +0.000 A 
ATOM      8  C   UNL     1       5.843   3.809  14.023  0.00  0.00    +0.000 A 
ATOM      9  C   UNL     1       6.287   3.594  12.644  0.00  0.00    +0.000 A 
ATOM     10  O   UNL     1       5.786   2.736  11.932  0.00  0.00    +0.000 OA
ATOM     11  N   UNL     1       7.282   4.410  12.222  0.00  0.00    +0.000 N 
ATOM     12  C   UNL     1       7.849   5.322  13.049  0.00  0.00    +0.000 A 
ATOM     13  N   UNL     1       8.880   6.042  12.531  0.00  0.00    +0.000 N 
ATOM     14  N   UNL     1       7.473   5.495  14.269  0.00  0.00    +0.000 NA
ATOM     15  H   UNL     1       7.580   4.315  11.268  0.00  0.00    +0.000 HD
ATOM     16  H   UNL     1       9.443   5.605  11.812  0.00  0.00    +0.000 HD
ATOM     17  H   UNL     1       9.425   6.510  13.245  0.00  0.00    +0.000 HD
ENDBRANCH   4   7
BRANCH   1  18
ATOM     18  C   UNL     1       4.011   5.408  19.739  0.00  0.00    +0.000 C 
BRANCH  18  25
ATOM     19  C   UNL     1       4.337   2.370  20.334  0.00  0.00    +0.000 C 
ATOM     20  C   UNL     1       3.374   2.935  19.334  0.00  0.00    +0.000 A 
ATOM     21  C   UNL     1       2.670   2.044  18.520  0.00  0.00    +0.000 A 
ATOM     22  N   UNL     1       1.752   2.400  17.593  0.00  0.00    +0.000 NA
ATOM     23  C   UNL     1       1.512   3.717  17.467  0.00  0.00    +0.000 A 
ATOM     24  C   UNL     1       2.172   4.690  18.197  0.00  0.00    +0.000 A 
ATOM     25  C   UNL     1       3.159   4.309  19.121  0.00  0.00    +0.000 A 
ENDBRANCH  18  25
ENDBRANCH   1  18
TORSDOF 3
ENDMDL
MODEL 7
REMARK VINA RESULT:      -7.3      1.742      2.299
REMARK  Name = 
REMARK  4 active torsions:
REMARK  status: ('A' for Active; 'I' for Inactive)
REMARK    1  A    between atoms: C_1  and  C_2
REMARK    2  A    between atoms: C_7  and  C_8
REMARK    3  A    between atoms: C_8  and  N_9
REMARK    4  A    between atoms: N_12  and  C_13
REMARK                            x       y       z     vdW  Elec       q    Type
REMARK                         _______ _______ _______ _____ _____    ______ ____
ROOT
ATOM      1  N   UNL     1       5.017   4.898  18.856  0.00  0.00    +0.000 NA
ATOM      2  C   UNL     1       6.414   5.048  18.438  0.00  0.00    +0.000 C 
ATOM      3  C   UNL     1       6.883   4.466  17.089  0.00  0.00    +0.000 C 
ATOM      4  N   UNL     1       5.896   4.580  15.997  0.00  0.00    +0.000 N 
ATOM      5  C   UNL     1       4.519   4.245  16.399  0.00  0.00    +0.000 C 
ATOM      6  C   UNL     1       4.078   4.880  17.737  0.00  0.00    +0.000 C 
ENDROOT
BRANCH   4   7
ATOM      7  C   UNL     1       6.358   4.553  14.657  0.00  0.00    +0.000 A 
ATOM      8  C   UNL     1       7.268   5.438  14.210  0.00  0.00    +0.000 A 
ATOM      9  C   UNL     1       7.815   5.319  12.856  0.00  0.00    +0.000 A 
ATOM     10  O   UNL     1       8.650   6.101  12.428  0.00  0.00    +0.000 OA
ATOM     11  N   UNL     1       7.330   4.288  12.124  0.00  0.00    +0.000 N 
ATOM     12  C   UNL     1       6.370   3.463  12.611  0.00  0.00    +0.000 A 
ATOM     13  N   UNL     1       5.918   2.503  11.762  0.00  0.00    +0.000 N 
ATOM     14  N   UNL     1       5.874   3.582  13.794  0.00  0.00    +0.000 NA
ATOM     15  H   UNL     1       7.715   4.156  11.207  0.00  0.00    +0.000 HD
ATOM     16  H   UNL     1       5.946   2.701  10.769  0.00  0.00    +0.000 HD
ATOM     17  H   UNL     1       5.045   2.091  12.068  0.00  0.00    +0.000 HD
ENDBRANCH   4   7
BRANCH   1  18
ATOM     18  C   UNL     1       4.732   3.943  19.924  0.00  0.00    +0.000 C 
BRANCH  18  25
ATOM     19  C   UNL     1       3.636   1.359  18.577  0.00  0.00    +0.000 C 
ATOM     20  C   UNL     1       2.779   2.386  19.254  0.00  0.00    +0.000 A 
ATOM     21  C   UNL     1       1.391   2.250  19.163  0.00  0.00    +0.000 A 
ATOM     22  N   UNL     1       0.492   3.079  19.740  0.00  0.00    +0.000 NA
ATOM     23  C   UNL     1       0.995   4.101  20.454  0.00  0.00    +0.000 A 
ATOM     24  C   UNL     1       2.351   4.352  20.585  0.00  0.00    +0.000 A 
ATOM     25  C   UNL     1       3.273   3.511  19.939  0.00  0.00    +0.000 A 
ENDBRANCH  18  25
ENDBRANCH   1  18
TORSDOF 3
ENDMDL
MODEL 8
REMARK VINA RESULT:      -7.2      4.448      8.012
REMARK  Name = 
REMARK  4 active torsions:
REMARK  status: ('A' for Active; 'I' for Inactive)
REMARK    1  A    between atoms: C_1  and  C_2
REMARK    2  A    between atoms: C_7  and  C_8
REMARK    3  A    between atoms: C_8  and  N_9
REMARK    4  A    between atoms: N_12  and  C_13
REMARK                            x       y       z     vdW  Elec       q    Type
REMARK                         _______ _______ _______ _____ _____    ______ ____
ROOT
ATOM      1  N   UNL     1       3.187   4.574  18.382  0.00  0.00    +0.000 NA
ATOM      2  C   UNL     1       2.272   4.570  19.527  0.00  0.00    +0.000 C 
ATOM      3  C   UNL     1       2.114   5.836  20.393  0.00  0.00    +0.000 C 
ATOM      4  N   UNL     1       2.152   7.103  19.638  0.00  0.00    +0.000 N 
ATOM      5  C   UNL     1       3.204   7.155  18.609  0.00  0.00    +0.000 C 
ATOM      6  C   UNL     1       3.302   5.881  17.739  0.00  0.00    +0.000 C 
ENDROOT
BRANCH   4   7
ATOM      7  C   UNL     1       1.543   8.252  20.205  0.00  0.00    +0.000 A 
ATOM      8  C   UNL     1       1.323   8.348  21.529  0.00  0.00    +0.000 A 
ATOM      9  C   UNL     1       0.798   9.588  22.105  0.00  0.00    +0.000 A 
ATOM     10  O   UNL     1       0.600   9.708  23.306  0.00  0.00    +0.000 OA
ATOM     11  N   UNL     1       0.554  10.581  21.218  0.00  0.00    +0.000 N 
ATOM     12  C   UNL     1       0.741  10.404  19.886  0.00  0.00    +0.000 A 
ATOM     13  N   UNL     1       0.404  11.451  19.088  0.00  0.00    +0.000 N 
ATOM     14  N   UNL     1       1.182   9.304  19.379  0.00  0.00    +0.000 NA
ATOM     15  H   UNL     1       0.233  11.458  21.587  0.00  0.00    +0.000 HD
ATOM     16  H   UNL     1      -0.333  12.068  19.409  0.00  0.00    +0.000 HD
ATOM     17  H   UNL     1       0.317  11.187  18.115  0.00  0.00    +0.000 HD
ENDBRANCH   4   7
BRANCH   1  18
ATOM     18  C   UNL     1       4.439   3.834  18.516  0.00  0.00    +0.000 C 
BRANCH  18  25
ATOM     19  C   UNL     1       6.900   5.581  19.275  0.00  0.00    +0.000 C 
ATOM     20  C   UNL     1       6.559   5.169  17.875  0.00  0.00    +0.000 A 
ATOM     21  C   UNL     1       7.311   5.707  16.827  0.00  0.00    +0.000 A 
ATOM     22  N   UNL     1       7.139   5.411  15.519  0.00  0.00    +0.000 NA
ATOM     23  C   UNL     1       6.169   4.526  15.230  0.00  0.00    +0.000 A 
ATOM     24  C   UNL     1       5.343   3.955  16.183  0.00  0.00    +0.000 A 
ATOM     25  C   UNL     1       5.499   4.309  17.533  0.00  0.00    +0.000 A 
ENDBRANCH  18  25
ENDBRANCH   1  18
TORSDOF 3
ENDMDL
MODEL 9
REMARK VINA RESULT:      -7.2      1.341      1.799
REMARK  Name = 
REMARK  4 active torsions:
REMARK  status: ('A' for Active; 'I' for Inactive)
REMARK    1  A    between atoms: C_1  and  C_2
REMARK    2  A    between atoms: C_7  and  C_8
REMARK    3  A    between atoms: C_8  and  N_9
REMARK    4  A    between atoms: N_12  and  C_13
REMARK                            x       y       z     vdW  Elec       q    Type
REMARK                         _______ _______ _______ _____ _____    ______ ____
ROOT
ATOM      1  N   UNL     1       4.977   4.903  18.936  0.00  0.00    +0.000 NA
ATOM      2  C   UNL     1       4.792   3.728  18.080  0.00  0.00    +0.000 C 
ATOM      3  C   UNL     1       4.840   3.875  16.545  0.00  0.00    +0.000 C 
ATOM      4  N   UNL     1       5.840   4.844  16.055  0.00  0.00    +0.000 N 
ATOM      5  C   UNL     1       5.882   6.100  16.823  0.00  0.00    +0.000 C 
ATOM      6  C   UNL     1       5.869   5.905  18.356  0.00  0.00    +0.000 C 
ENDROOT
BRANCH   4   7
ATOM      7  C   UNL     1       6.321   4.713  14.727  0.00  0.00    +0.000 A 
ATOM      8  C   UNL     1       7.290   5.516  14.250  0.00  0.00    +0.000 A 
ATOM      9  C   UNL     1       7.850   5.289  12.916  0.00  0.00    +0.000 A 
ATOM     10  O   UNL     1       8.738   5.995  12.461  0.00  0.00    +0.000 OA
ATOM     11  N   UNL     1       7.318   4.248  12.234  0.00  0.00    +0.000 N 
ATOM     12  C   UNL     1       6.302   3.509  12.746  0.00  0.00    +0.000 A 
ATOM     13  N   UNL     1       5.809   2.529  11.944  0.00  0.00    +0.000 N 
ATOM     14  N   UNL     1       5.796   3.724  13.911  0.00  0.00    +0.000 NA
ATOM     15  H   UNL     1       7.710   4.040  11.333  0.00  0.00    +0.000 HD
ATOM     16  H   UNL     1       5.866   2.668  10.943  0.00  0.00    +0.000 HD
ATOM     17  H   UNL     1       4.908   2.187  12.255  0.00  0.00    +0.000 HD
ENDBRANCH   4   7
BRANCH   1  18
ATOM     18  C   UNL     1       3.798   5.438  19.613  0.00  0.00    +0.000 C 
BRANCH  18  25
ATOM     19  C   UNL     1       1.452   4.551  17.769  0.00  0.00    +0.000 C 
ATOM     20  C   UNL     1       1.683   4.023  19.152  0.00  0.00    +0.000 A 
ATOM     21  C   UNL     1       0.716   3.180  19.705  0.00  0.00    +0.000 A 
ATOM     22  N   UNL     1       0.795   2.606  20.928  0.00  0.00    +0.000 NA
ATOM     23  C   UNL     1       1.901   2.879  21.643  0.00  0.00    +0.000 A 
ATOM     24  C   UNL     1       2.907   3.724  21.209  0.00  0.00    +0.000 A 
ATOM     25  C   UNL     1       2.788   4.353  19.958  0.00  0.00    +0.000 A 
ENDBRANCH  18  25
ENDBRANCH   1  18
TORSDOF 3
ENDMDL
