MODEL 1
REMARK VINA RESULT:      -8.8      0.000      0.000
REMARK  Name = 
REMARK  6 active torsions:
REMARK  status: ('A' for Active; 'I' for Inactive)
REMARK    1  A    between atoms: C_1  and  C_2
REMARK    2  A    between atoms: C_3  and  C_4
REMARK    3  A    between atoms: C_5  and  C_6
REMARK    4  A    between atoms: C_14  and  C_15
REMARK    5  A    between atoms: C_14  and  C_16
REMARK    6  A    between atoms: N_23  and  C_24
REMARK                            x       y       z     vdW  Elec       q    Type
REMARK                         _______ _______ _______ _____ _____    ______ ____
ROOT
ATOM      1  C   UNL     1       2.497   7.679  18.713  0.00  0.00    +0.000 C 
ATOM      2  C   UNL     1       1.802   8.508  17.920  0.00  0.00    +0.000 C 
ENDROOT
BRANCH   1   5
ATOM      3  C   UNL     1       4.748   6.602  16.561  0.00  0.00    +0.000 C 
ATOM      4  C   UNL     1       3.855   5.891  17.524  0.00  0.00    +0.000 A 
ATOM      5  C   UNL     1       2.902   6.331  18.431  0.00  0.00    +0.000 A 
ATOM      6  C   UNL     1       2.388   5.182  19.120  0.00  0.00    +0.000 A 
ATOM      7  C   UNL     1       1.424   4.993  20.139  0.00  0.00    +0.000 A 
ATOM      8  C   UNL     1       1.126   3.703  20.591  0.00  0.00    +0.000 A 
ATOM      9  C   UNL     1       1.778   2.602  20.052  0.00  0.00    +0.000 A 
ATOM     10  C   UNL     1       2.742   2.759  19.054  0.00  0.00    +0.000 A 
ATOM     11  C   UNL     1       3.032   4.059  18.601  0.00  0.00    +0.000 A 
ATOM     12  N   UNL     1       3.917   4.511  17.645  0.00  0.00    +0.000 N 
ATOM     13  C   UNL     1       4.806   3.668  16.871  0.00  0.00    +0.000 C 
ENDBRANCH   1   5
BRANCH   2  14
ATOM     14  C   UNL     1       1.432   9.913  18.228  0.00  0.00    +0.000 C 
ATOM     15  N   UNL     1       2.290  10.877  18.032  0.00  0.00    +0.000 NA
ATOM     16  C   UNL     1       1.673  12.065  18.449  0.00  0.00    +0.000 A 
ATOM     17  C   UNL     1       2.233  13.329  18.421  0.00  0.00    +0.000 A 
ATOM     18  C   UNL     1       1.472  14.407  18.875  0.00  0.00    +0.000 A 
ATOM     19  C   UNL     1       0.165  14.208  19.356  0.00  0.00    +0.000 A 
ATOM     20  C   UNL     1      -0.392  12.922  19.384  0.00  0.00    +0.000 A 
ATOM     21  C   UNL     1       0.379  11.864  18.927  0.00  0.00    +0.000 A 
ATOM     22  C   UNL     1       0.067  10.387  18.822  0.00  0.00    +0.000 C 
ATOM     23  C   UNL     1      -1.103  10.178  17.862  0.00  0.00    +0.000 C 
ATOM     24  C   UNL     1      -0.184   9.796  20.208  0.00  0.00    +0.000 C 
ENDBRANCH   2  14
TORSDOF 2
ENDMDL
MODEL 2
REMARK VINA RESULT:      -8.7      0.589      2.685
REMARK  Name = 
REMARK  6 active torsions:
REMARK  status: ('A' for Active; 'I' for Inactive)
REMARK    1  A    between atoms: C_1  and  C_2
REMARK    2  A    between atoms: C_3  and  C_4
REMARK    3  A    between atoms: C_5  and  C_6
REMARK    4  A    between atoms: C_14  and  C_15
REMARK    5  A    between atoms: C_14  and  C_16
REMARK    6  A    between atoms: N_23  and  C_24
REMARK                            x       y       z     vdW  Elec       q    Type
REMARK                         _______ _______ _______ _____ _____    ______ ____
ROOT
ATOM      1  C   UNL     1       2.554   7.621  18.727  0.00  0.00    +0.000 C 
ATOM      2  C   UNL     1       1.830   8.418  17.929  0.00  0.00    +0.000 C 
ENDROOT
BRANCH   1   5
ATOM      3  C   UNL     1       1.531   4.856  20.201  0.00  0.00    +0.000 C 
ATOM      4  C   UNL     1       2.513   5.108  19.104  0.00  0.00    +0.000 A 
ATOM      5  C   UNL     1       2.956   6.264  18.479  0.00  0.00    +0.000 A 
ATOM      6  C   UNL     1       3.886   5.882  17.455  0.00  0.00    +0.000 A 
ATOM      7  C   UNL     1       4.649   6.595  16.500  0.00  0.00    +0.000 A 
ATOM      8  C   UNL     1       5.505   5.908  15.633  0.00  0.00    +0.000 A 
ATOM      9  C   UNL     1       5.607   4.524  15.697  0.00  0.00    +0.000 A 
ATOM     10  C   UNL     1       4.858   3.794  16.621  0.00  0.00    +0.000 A 
ATOM     11  C   UNL     1       4.003   4.492  17.494  0.00  0.00    +0.000 A 
ATOM     12  N   UNL     1       3.162   4.047  18.491  0.00  0.00    +0.000 N 
ATOM     13  C   UNL     1       2.963   2.657  18.852  0.00  0.00    +0.000 C 
ENDBRANCH   1   5
BRANCH   2  14
ATOM     14  C   UNL     1       1.464   9.832  18.198  0.00  0.00    +0.000 C 
ATOM     15  N   UNL     1       2.331  10.786  17.992  0.00  0.00    +0.000 NA
ATOM     16  C   UNL     1       1.715  11.987  18.373  0.00  0.00    +0.000 A 
ATOM     17  C   UNL     1       2.283  13.247  18.323  0.00  0.00    +0.000 A 
ATOM     18  C   UNL     1       1.522  14.340  18.742  0.00  0.00    +0.000 A 
ATOM     19  C   UNL     1       0.207  14.159  19.208  0.00  0.00    +0.000 A 
ATOM     20  C   UNL     1      -0.358  12.877  19.258  0.00  0.00    +0.000 A 
ATOM     21  C   UNL     1       0.413  11.804  18.837  0.00  0.00    +0.000 A 
ATOM     22  C   UNL     1       0.094  10.328  18.761  0.00  0.00    +0.000 C 
ATOM     23  C   UNL     1      -1.064  10.103  17.790  0.00  0.00    +0.000 C 
ATOM     24  C   UNL     1      -0.181   9.770  20.157  0.00  0.00    +0.000 C 
ENDBRANCH   2  14
TORSDOF 2
ENDMDL
MODEL 3
REMARK VINA RESULT:      -8.3      1.898      3.696
REMARK  Name = 
REMARK  6 active torsions:
REMARK  status: ('A' for Active; 'I' for Inactive)
REMARK    1  A    between atoms: C_1  and  C_2
REMARK    2  A    between atoms: C_3  and  C_4
REMARK    3  A    between atoms: C_5  and  C_6
REMARK    4  A    between atoms: C_14  and  C_15
REMARK    5  A    between atoms: C_14  and  C_16
REMARK    6  A    between atoms: N_23  and  C_24
REMARK                            x       y       z     vdW  Elec       q    Type
REMARK                         _______ _______ _______ _____ _____    ______ ____
ROOT
ATOM      1  C   UNL     1       1.803   6.789  20.231  0.00  0.00    +0.000 C 
ATOM      2  C   UNL     1       1.833   8.090  19.905  0.00  0.00    +0.000 C 
ENDROOT
BRANCH   1   5
ATOM      3  C   UNL     1       2.201   3.736  21.406  0.00  0.00    +0.000 C 
ATOM      4  C   UNL     1       2.828   4.464  20.262  0.00  0.00    +0.000 A 
ATOM      5  C   UNL     1       2.673   5.748  19.761  0.00  0.00    +0.000 A 
ATOM      6  C   UNL     1       3.517   5.874  18.607  0.00  0.00    +0.000 A 
ATOM      7  C   UNL     1       3.781   6.917  17.687  0.00  0.00    +0.000 A 
ATOM      8  C   UNL     1       4.703   6.723  16.654  0.00  0.00    +0.000 A 
ATOM      9  C   UNL     1       5.359   5.506  16.516  0.00  0.00    +0.000 A 
ATOM     10  C   UNL     1       5.110   4.456  17.402  0.00  0.00    +0.000 A 
ATOM     11  C   UNL     1       4.185   4.660  18.442  0.00  0.00    +0.000 A 
ATOM     12  N   UNL     1       3.749   3.823  19.448  0.00  0.00    +0.000 N 
ATOM     13  C   UNL     1       4.179   2.452  19.632  0.00  0.00    +0.000 C 
ENDBRANCH   1   5
BRANCH   2  14
ATOM     14  C   UNL     1       0.942   9.150  20.440  0.00  0.00    +0.000 C 
ATOM     15  N   UNL     1       0.547   9.111  21.684  0.00  0.00    +0.000 NA
ATOM     16  C   UNL     1      -0.305  10.208  21.876  0.00  0.00    +0.000 A 
ATOM     17  C   UNL     1      -0.953  10.542  23.052  0.00  0.00    +0.000 A 
ATOM     18  C   UNL     1      -1.767  11.676  23.067  0.00  0.00    +0.000 A 
ATOM     19  C   UNL     1      -1.929  12.456  21.908  0.00  0.00    +0.000 A 
ATOM     20  C   UNL     1      -1.272  12.106  20.720  0.00  0.00    +0.000 A 
ATOM     21  C   UNL     1      -0.466  10.978  20.725  0.00  0.00    +0.000 A 
ATOM     22  C   UNL     1       0.368  10.355  19.627  0.00  0.00    +0.000 C 
ATOM     23  C   UNL     1       1.448  11.339  19.182  0.00  0.00    +0.000 C 
ATOM     24  C   UNL     1      -0.526   9.889  18.479  0.00  0.00    +0.000 C 
ENDBRANCH   2  14
TORSDOF 2
ENDMDL
MODEL 4
REMARK VINA RESULT:      -8.3      2.013      7.728
REMARK  Name = 
REMARK  6 active torsions:
REMARK  status: ('A' for Active; 'I' for Inactive)
REMARK    1  A    between atoms: C_1  and  C_2
REMARK    2  A    between atoms: C_3  and  C_4
REMARK    3  A    between atoms: C_5  and  C_6
REMARK    4  A    between atoms: C_14  and  C_15
REMARK    5  A    between atoms: C_14  and  C_16
REMARK    6  A    between atoms: N_23  and  C_24
REMARK                            x       y       z     vdW  Elec       q    Type
REMARK                         _______ _______ _______ _____ _____    ______ ____
ROOT
ATOM      1  C   UNL     1       1.098   9.183  18.116  0.00  0.00    +0.000 C 
ATOM      2  C   UNL     1       1.608   8.107  18.733  0.00  0.00    +0.000 C 
ENDROOT
BRANCH   1   5
ATOM      3  C   UNL     1       1.264  11.224  20.698  0.00  0.00    +0.000 C 
ATOM      4  C   UNL     1       0.186  10.947  19.703  0.00  0.00    +0.000 A 
ATOM      5  C   UNL     1       0.102  10.089  18.616  0.00  0.00    +0.000 A 
ATOM      6  C   UNL     1      -1.178  10.287  17.998  0.00  0.00    +0.000 A 
ATOM      7  C   UNL     1      -1.829   9.724  16.875  0.00  0.00    +0.000 A 
ATOM      8  C   UNL     1      -3.125  10.128  16.539  0.00  0.00    +0.000 A 
ATOM      9  C   UNL     1      -3.779  11.090  17.298  0.00  0.00    +0.000 A 
ATOM     10  C   UNL     1      -3.157  11.672  18.405  0.00  0.00    +0.000 A 
ATOM     11  C   UNL     1      -1.856  11.255  18.739  0.00  0.00    +0.000 A 
ATOM     12  N   UNL     1      -1.011  11.643  19.758  0.00  0.00    +0.000 N 
ATOM     13  C   UNL     1      -1.318  12.651  20.753  0.00  0.00    +0.000 C 
ENDBRANCH   1   5
BRANCH   2  14
ATOM     14  C   UNL     1       2.668   7.212  18.203  0.00  0.00    +0.000 C 
ATOM     15  N   UNL     1       3.616   7.692  17.445  0.00  0.00    +0.000 NA
ATOM     16  C   UNL     1       4.429   6.611  17.074  0.00  0.00    +0.000 A 
ATOM     17  C   UNL     1       5.549   6.672  16.264  0.00  0.00    +0.000 A 
ATOM     18  C   UNL     1       6.245   5.493  15.998  0.00  0.00    +0.000 A 
ATOM     19  C   UNL     1       5.812   4.268  16.537  0.00  0.00    +0.000 A 
ATOM     20  C   UNL     1       4.672   4.216  17.352  0.00  0.00    +0.000 A 
ATOM     21  C   UNL     1       3.995   5.398  17.607  0.00  0.00    +0.000 A 
ATOM     22  C   UNL     1       2.761   5.670  18.440  0.00  0.00    +0.000 C 
ATOM     23  C   UNL     1       3.037   5.309  19.898  0.00  0.00    +0.000 C 
ATOM     24  C   UNL     1       1.555   4.934  17.860  0.00  0.00    +0.000 C 
ENDBRANCH   2  14
TORSDOF 2
ENDMDL
MODEL 5
REMARK VINA RESULT:      -8.2      2.185      7.755
REMARK  Name = 
REMARK  6 active torsions:
REMARK  status: ('A' for Active; 'I' for Inactive)
REMARK    1  A    between atoms: C_1  and  C_2
REMARK    2  A    between atoms: C_3  and  C_4
REMARK    3  A    between atoms: C_5  and  C_6
REMARK    4  A    between atoms: C_14  and  C_15
REMARK    5  A    between atoms: C_14  and  C_16
REMARK    6  A    between atoms: N_23  and  C_24
REMARK                            x       y       z     vdW  Elec       q    Type
REMARK                         _______ _______ _______ _____ _____    ______ ____
ROOT
ATOM      1  C   UNL     1       1.626   8.721  19.076  0.00  0.00    +0.000 C 
ATOM      2  C   UNL     1       1.832   7.399  19.160  0.00  0.00    +0.000 C 
ENDROOT
BRANCH   1   5
ATOM      3  C   UNL     1       1.499   9.143  22.342  0.00  0.00    +0.000 C 
ATOM      4  C   UNL     1       0.673   9.689  21.224  0.00  0.00    +0.000 A 
ATOM      5  C   UNL     1       0.713   9.516  19.848  0.00  0.00    +0.000 A 
ATOM      6  C   UNL     1      -0.316  10.334  19.272  0.00  0.00    +0.000 A 
ATOM      7  C   UNL     1      -0.754  10.583  17.950  0.00  0.00    +0.000 A 
ATOM      8  C   UNL     1      -1.833  11.443  17.719  0.00  0.00    +0.000 A 
ATOM      9  C   UNL     1      -2.475  12.065  18.781  0.00  0.00    +0.000 A 
ATOM     10  C   UNL     1      -2.057  11.848  20.096  0.00  0.00    +0.000 A 
ATOM     11  C   UNL     1      -0.976  10.977  20.321  0.00  0.00    +0.000 A 
ATOM     12  N   UNL     1      -0.358  10.578  21.487  0.00  0.00    +0.000 N 
ATOM     13  C   UNL     1      -0.721  11.029  22.816  0.00  0.00    +0.000 C 
ENDBRANCH   1   5
BRANCH   2  14
ATOM     14  C   UNL     1       2.814   6.611  18.373  0.00  0.00    +0.000 C 
ATOM     15  N   UNL     1       3.672   7.216  17.597  0.00  0.00    +0.000 NA
ATOM     16  C   UNL     1       4.425   6.217  16.964  0.00  0.00    +0.000 A 
ATOM     17  C   UNL     1       5.444   6.420  16.050  0.00  0.00    +0.000 A 
ATOM     18  C   UNL     1       6.093   5.305  15.516  0.00  0.00    +0.000 A 
ATOM     19  C   UNL     1       5.713   4.006  15.896  0.00  0.00    +0.000 A 
ATOM     20  C   UNL     1       4.676   3.811  16.820  0.00  0.00    +0.000 A 
ATOM     21  C   UNL     1       4.045   4.930  17.340  0.00  0.00    +0.000 A 
ATOM     22  C   UNL     1       2.919   5.052  18.343  0.00  0.00    +0.000 C 
ATOM     23  C   UNL     1       3.359   4.461  19.682  0.00  0.00    +0.000 C 
ATOM     24  C   UNL     1       1.646   4.408  17.797  0.00  0.00    +0.000 C 
ENDBRANCH   2  14
TORSDOF 2
ENDMDL
MODEL 6
REMARK VINA RESULT:      -8.2      1.455      2.036
REMARK  Name = 
REMARK  6 active torsions:
REMARK  status: ('A' for Active; 'I' for Inactive)
REMARK    1  A    between atoms: C_1  and  C_2
REMARK    2  A    between atoms: C_3  and  C_4
REMARK    3  A    between atoms: C_5  and  C_6
REMARK    4  A    between atoms: C_14  and  C_15
REMARK    5  A    between atoms: C_14  and  C_16
REMARK    6  A    between atoms: N_23  and  C_24
REMARK                            x       y       z     vdW  Elec       q    Type
REMARK                         _______ _______ _______ _____ _____    ______ ____
ROOT
ATOM      1  C   UNL     1       2.220   7.145  18.274  0.00  0.00    +0.000 C 
ATOM      2  C   UNL     1       2.135   7.716  19.484  0.00  0.00    +0.000 C 
ENDROOT
BRANCH   1   5
ATOM      3  C   UNL     1       5.150   6.922  16.782  0.00  0.00    +0.000 C 
ATOM      4  C   UNL     1       4.197   5.889  17.286  0.00  0.00    +0.000 A 
ATOM      5  C   UNL     1       2.960   5.969  17.910  0.00  0.00    +0.000 A 
ATOM      6  C   UNL     1       2.529   4.632  18.204  0.00  0.00    +0.000 A 
ATOM      7  C   UNL     1       1.383   4.079  18.824  0.00  0.00    +0.000 A 
ATOM      8  C   UNL     1       1.249   2.692  18.939  0.00  0.00    +0.000 A 
ATOM      9  C   UNL     1       2.240   1.848  18.454  0.00  0.00    +0.000 A 
ATOM     10  C   UNL     1       3.386   2.365  17.847  0.00  0.00    +0.000 A 
ATOM     11  C   UNL     1       3.511   3.762  17.730  0.00  0.00    +0.000 A 
ATOM     12  N   UNL     1       4.510   4.542  17.187  0.00  0.00    +0.000 N 
ATOM     13  C   UNL     1       5.734   4.035  16.600  0.00  0.00    +0.000 C 
ENDBRANCH   1   5
BRANCH   2  14
ATOM     14  C   UNL     1       1.328   8.911  19.836  0.00  0.00    +0.000 C 
ATOM     15  N   UNL     1       1.196   9.890  18.983  0.00  0.00    +0.000 NA
ATOM     16  C   UNL     1       0.425  10.879  19.611  0.00  0.00    +0.000 A 
ATOM     17  C   UNL     1       0.050  12.093  19.063  0.00  0.00    +0.000 A 
ATOM     18  C   UNL     1      -0.724  12.962  19.833  0.00  0.00    +0.000 A 
ATOM     19  C   UNL     1      -1.109  12.611  21.139  0.00  0.00    +0.000 A 
ATOM     20  C   UNL     1      -0.721  11.380  21.687  0.00  0.00    +0.000 A 
ATOM     21  C   UNL     1       0.047  10.529  20.907  0.00  0.00    +0.000 A 
ATOM     22  C   UNL     1       0.607   9.155  21.201  0.00  0.00    +0.000 C 
ATOM     23  C   UNL     1      -0.540   8.177  21.449  0.00  0.00    +0.000 C 
ATOM     24  C   UNL     1       1.598   9.221  22.362  0.00  0.00    +0.000 C 
ENDBRANCH   2  14
TORSDOF 2
ENDMDL
MODEL 7
REMARK VINA RESULT:      -8.1      1.400      3.316
REMARK  Name = 
REMARK  6 active torsions:
REMARK  status: ('A' for Active; 'I' for Inactive)
REMARK    1  A    between atoms: C_1  and  C_2
REMARK    2  A    between atoms: C_3  and  C_4
REMARK    3  A    between atoms: C_5  and  C_6
REMARK    4  A    between atoms: C_14  and  C_15
REMARK    5  A    between atoms: C_14  and  C_16
REMARK    6  A    between atoms: N_23  and  C_24
REMARK                            x       y       z     vdW  Elec       q    Type
REMARK                         _______ _______ _______ _____ _____    ______ ____
ROOT
ATOM      1  C   UNL     1       2.271   6.895  18.406  0.00  0.00    +0.000 C 
ATOM      2  C   UNL     1       2.107   7.466  19.609  0.00  0.00    +0.000 C 
ENDROOT
BRANCH   1   5
ATOM      3  C   UNL     1       1.423   3.868  19.396  0.00  0.00    +0.000 C 
ATOM      4  C   UNL     1       2.532   4.370  18.532  0.00  0.00    +0.000 A 
ATOM      5  C   UNL     1       2.903   5.639  18.112  0.00  0.00    +0.000 A 
ATOM      6  C   UNL     1       4.041   5.502  17.249  0.00  0.00    +0.000 A 
ATOM      7  C   UNL     1       4.846   6.414  16.525  0.00  0.00    +0.000 A 
ATOM      8  C   UNL     1       5.930   5.949  15.773  0.00  0.00    +0.000 A 
ATOM      9  C   UNL     1       6.220   4.591  15.725  0.00  0.00    +0.000 A 
ATOM     10  C   UNL     1       5.437   3.668  16.420  0.00  0.00    +0.000 A 
ATOM     11  C   UNL     1       4.352   4.144  17.178  0.00  0.00    +0.000 A 
ATOM     12  N   UNL     1       3.425   3.480  17.954  0.00  0.00    +0.000 N 
ATOM     13  C   UNL     1       3.372   2.043  18.139  0.00  0.00    +0.000 C 
ENDBRANCH   1   5
BRANCH   2  14
ATOM     14  C   UNL     1       1.413   8.749  19.884  0.00  0.00    +0.000 C 
ATOM     15  N   UNL     1       1.374   9.684  18.974  0.00  0.00    +0.000 NA
ATOM     16  C   UNL     1       0.697  10.775  19.538  0.00  0.00    +0.000 A 
ATOM     17  C   UNL     1       0.437  11.984  18.917  0.00  0.00    +0.000 A 
ATOM     18  C   UNL     1      -0.255  12.964  19.629  0.00  0.00    +0.000 A 
ATOM     19  C   UNL     1      -0.674  12.728  20.951  0.00  0.00    +0.000 A 
ATOM     20  C   UNL     1      -0.402  11.501  21.572  0.00  0.00    +0.000 A 
ATOM     21  C   UNL     1       0.285  10.538  20.849  0.00  0.00    +0.000 A 
ATOM     22  C   UNL     1       0.715   9.138  21.227  0.00  0.00    +0.000 C 
ATOM     23  C   UNL     1      -0.518   8.286  21.523  0.00  0.00    +0.000 C 
ATOM     24  C   UNL     1       1.705   9.180  22.390  0.00  0.00    +0.000 C 
ENDBRANCH   2  14
TORSDOF 2
ENDMDL
MODEL 8
REMARK VINA RESULT:      -8.0      1.616      2.555
REMARK  Name = 
REMARK  6 active torsions:
REMARK  status: ('A' for Active; 'I' for Inactive)
REMARK    1  A    between atoms: C_1  and  C_2
REMARK    2  A    between atoms: C_3  and  C_4
REMARK    3  A    between atoms: C_5  and  C_6
REMARK    4  A    between atoms: C_14  and  C_15
REMARK    5  A    between atoms: C_14  and  C_16
REMARK    6  A    between atoms: N_23  and  C_24
REMARK                            x       y       z     vdW  Elec       q    Type
REMARK                         _______ _______ _______ _____ _____    ______ ____
ROOT
ATOM      1  C   UNL     1       2.102   6.809  19.361  0.00  0.00    +0.000 C 
ATOM      2  C   UNL     1       1.864   8.077  18.994  0.00  0.00    +0.000 C 
ENDROOT
BRANCH   1   5
ATOM      3  C   UNL     1       4.645   7.230  17.308  0.00  0.00    +0.000 C 
ATOM      4  C   UNL     1       3.933   6.010  17.791  0.00  0.00    +0.000 A 
ATOM      5  C   UNL     1       2.860   5.819  18.650  0.00  0.00    +0.000 A 
ATOM      6  C   UNL     1       2.640   4.407  18.772  0.00  0.00    +0.000 A 
ATOM      7  C   UNL     1       1.718   3.610  19.492  0.00  0.00    +0.000 A 
ATOM      8  C   UNL     1       1.753   2.217  19.374  0.00  0.00    +0.000 A 
ATOM      9  C   UNL     1       2.695   1.604  18.558  0.00  0.00    +0.000 A 
ATOM     10  C   UNL     1       3.624   2.364  17.844  0.00  0.00    +0.000 A 
ATOM     11  C   UNL     1       3.579   3.765  17.963  0.00  0.00    +0.000 A 
ATOM     12  N   UNL     1       4.352   4.751  17.387  0.00  0.00    +0.000 N 
ATOM     13  C   UNL     1       5.463   4.516  16.487  0.00  0.00    +0.000 C 
ENDBRANCH   1   5
BRANCH   2  14
ATOM     14  C   UNL     1       1.107   9.090  19.773  0.00  0.00    +0.000 C 
ATOM     15  N   UNL     1       0.879   8.906  21.045  0.00  0.00    +0.000 NA
ATOM     16  C   UNL     1       0.116   9.997  21.486  0.00  0.00    +0.000 A 
ATOM     17  C   UNL     1      -0.352  10.199  22.772  0.00  0.00    +0.000 A 
ATOM     18  C   UNL     1      -1.098  11.348  23.037  0.00  0.00    +0.000 A 
ATOM     19  C   UNL     1      -1.372  12.275  22.016  0.00  0.00    +0.000 A 
ATOM     20  C   UNL     1      -0.897  12.059  20.715  0.00  0.00    +0.000 A 
ATOM     21  C   UNL     1      -0.156  10.913  20.471  0.00  0.00    +0.000 A 
ATOM     22  C   UNL     1       0.492  10.407  19.200  0.00  0.00    +0.000 C 
ATOM     23  C   UNL     1       1.553  11.404  18.735  0.00  0.00    +0.000 C 
ATOM     24  C   UNL     1      -0.568  10.124  18.138  0.00  0.00    +0.000 C 
ENDBRANCH   2  14
TORSDOF 2
ENDMDL
MODEL 9
REMARK VINA RESULT:      -8.0      1.645      3.603
REMARK  Name = 
REMARK  6 active torsions:
REMARK  status: ('A' for Active; 'I' for Inactive)
REMARK    1  A    between atoms: C_1  and  C_2
REMARK    2  A    between atoms: C_3  and  C_4
REMARK    3  A    between atoms: C_5  and  C_6
REMARK    4  A    between atoms: C_14  and  C_15
REMARK    5  A    between atoms: C_14  and  C_16
REMARK    6  A    between atoms: N_23  and  C_24
REMARK                            x       y       z     vdW  Elec       q    Type
REMARK                         _______ _______ _______ _____ _____    ______ ____
ROOT
ATOM      1  C   UNL     1       1.771   6.477  19.193  0.00  0.00    +0.000 C 
ATOM      2  C   UNL     1       2.128   7.764  19.306  0.00  0.00    +0.000 C 
ENDROOT
BRANCH   1   5
ATOM      3  C   UNL     1       1.490   3.237  19.726  0.00  0.00    +0.000 C 
ATOM      4  C   UNL     1       2.409   4.039  18.864  0.00  0.00    +0.000 A 
ATOM      5  C   UNL     1       2.541   5.400  18.634  0.00  0.00    +0.000 A 
ATOM      6  C   UNL     1       3.581   5.584  17.664  0.00  0.00    +0.000 A 
ATOM      7  C   UNL     1       4.157   6.714  17.036  0.00  0.00    +0.000 A 
ATOM      8  C   UNL     1       5.204   6.552  16.123  0.00  0.00    +0.000 A 
ATOM      9  C   UNL     1       5.681   5.283  15.819  0.00  0.00    +0.000 A 
ATOM     10  C   UNL     1       5.125   4.149  16.415  0.00  0.00    +0.000 A 
ATOM     11  C   UNL     1       4.076   4.321  17.336  0.00  0.00    +0.000 A 
ATOM     12  N   UNL     1       3.349   3.404  18.067  0.00  0.00    +0.000 N 
ATOM     13  C   UNL     1       3.527   1.967  18.009  0.00  0.00    +0.000 C 
ENDBRANCH   1   5
BRANCH   2  14
ATOM     14  C   UNL     1       1.323   8.848  19.925  0.00  0.00    +0.000 C 
ATOM     15  N   UNL     1       1.027   8.803  21.196  0.00  0.00    +0.000 NA
ATOM     16  C   UNL     1       0.234   9.926  21.470  0.00  0.00    +0.000 A 
ATOM     17  C   UNL     1      -0.305  10.264  22.699  0.00  0.00    +0.000 A 
ATOM     18  C   UNL     1      -1.073  11.426  22.794  0.00  0.00    +0.000 A 
ATOM     19  C   UNL     1      -1.297  12.231  21.662  0.00  0.00    +0.000 A 
ATOM     20  C   UNL     1      -0.749  11.877  20.421  0.00  0.00    +0.000 A 
ATOM     21  C   UNL     1       0.012  10.720  20.346  0.00  0.00    +0.000 A 
ATOM     22  C   UNL     1       0.731  10.086  19.177  0.00  0.00    +0.000 C 
ATOM     23  C   UNL     1       1.809  11.037  18.660  0.00  0.00    +0.000 C 
ATOM     24  C   UNL     1      -0.267   9.672  18.097  0.00  0.00    +0.000 C 
ENDBRANCH   2  14
TORSDOF 2
ENDMDL
