MODEL 1
REMARK VINA RESULT:      -7.2      0.000      0.000
REMARK  Name = 
REMARK  5 active torsions:
REMARK  status: ('A' for Active; 'I' for Inactive)
REMARK    1  A    between atoms: O_1  and  C_2
REMARK    2  A    between atoms: C_7  and  O_8
REMARK    3  A    between atoms: C_10  and  N_11
REMARK    4  A    between atoms: N_11  and  C_12
REMARK    5  A    between atoms: C_12  and  C_13
REMARK                            x       y       z     vdW  Elec       q    Type
REMARK                         _______ _______ _______ _____ _____    ______ ____
ROOT
ATOM      1  C   UNL     1       1.533   4.622  19.693  0.00  0.00    +0.000 A 
ATOM      2  C   UNL     1       2.096   3.728  18.770  0.00  0.00    +0.000 A 
ATOM      3  C   UNL     1       3.203   4.164  18.064  0.00  0.00    +0.000 A 
ATOM      4  C   UNL     1       3.586   5.513  18.123  0.00  0.00    +0.000 A 
ATOM      5  C   UNL     1       3.075   6.382  19.064  0.00  0.00    +0.000 A 
ATOM      6  C   UNL     1       2.088   5.900  19.906  0.00  0.00    +0.000 A 
ATOM      7  C   UNL     1       4.778   5.742  17.265  0.00  0.00    +0.000 C 
ATOM      8  C   UNL     1       5.477   4.398  17.551  0.00  0.00    +0.000 C 
ATOM      9  C   UNL     1       4.300   3.374  17.369  0.00  0.00    +0.000 C 
ENDROOT
BRANCH   1  10
ATOM     10  O   UNL     1       0.478   4.224  20.466  0.00  0.00    +0.000 OA
ATOM     11  H   UNL     1       0.721   3.373  20.867  0.00  0.00    +0.000 HD
ENDBRANCH   1  10
BRANCH   6  12
ATOM     12  O   UNL     1       1.731   6.654  20.988  0.00  0.00    +0.000 OA
ATOM     13  H   UNL     1       1.443   6.035  21.682  0.00  0.00    +0.000 HD
ENDBRANCH   6  12
BRANCH   8  14
ATOM     14  N   UNL     1       6.753   4.223  16.845  0.00  0.00    +0.000 NA
ATOM     15  H   UNL     1       6.795   3.305  16.407  0.00  0.00    +0.000 HD
BRANCH  14  16
ATOM     16  C   UNL     1       6.831   5.254  15.784  0.00  0.00    +0.000 C 
BRANCH  16  17
ATOM     17  C   UNL     1       6.872   4.755  14.367  0.00  0.00    +0.000 A 
ATOM     18  C   UNL     1       5.919   3.803  13.960  0.00  0.00    +0.000 A 
ATOM     19  C   UNL     1       5.861   3.362  12.636  0.00  0.00    +0.000 A 
ATOM     20  C   UNL     1       6.745   3.893  11.702  0.00  0.00    +0.000 A 
ATOM     21  C   UNL     1       7.679   4.854  12.089  0.00  0.00    +0.000 A 
ATOM     22  C   UNL     1       7.738   5.289  13.414  0.00  0.00    +0.000 A 
ENDBRANCH  16  17
ENDBRANCH  14  16
ENDBRANCH   8  14
TORSDOF 5
ENDMDL
MODEL 2
REMARK VINA RESULT:      -7.2      1.364      2.222
REMARK  Name = 
REMARK  5 active torsions:
REMARK  status: ('A' for Active; 'I' for Inactive)
REMARK    1  A    between atoms: O_1  and  C_2
REMARK    2  A    between atoms: C_7  and  O_8
REMARK    3  A    between atoms: C_10  and  N_11
REMARK    4  A    between atoms: N_11  and  C_12
REMARK    5  A    between atoms: C_12  and  C_13
REMARK                            x       y       z     vdW  Elec       q    Type
REMARK                         _______ _______ _______ _____ _____    ______ ____
ROOT
ATOM      1  C   UNL     1       1.596   3.194  19.990  0.00  0.00    +0.000 A 
ATOM      2  C   UNL     1       2.614   4.151  20.119  0.00  0.00    +0.000 A 
ATOM      3  C   UNL     1       3.505   4.269  19.068  0.00  0.00    +0.000 A 
ATOM      4  C   UNL     1       3.505   3.317  18.037  0.00  0.00    +0.000 A 
ATOM      5  C   UNL     1       2.479   2.410  17.874  0.00  0.00    +0.000 A 
ATOM      6  C   UNL     1       1.477   2.405  18.827  0.00  0.00    +0.000 A 
ATOM      7  C   UNL     1       4.563   3.641  17.043  0.00  0.00    +0.000 C 
ATOM      8  C   UNL     1       4.421   5.175  17.110  0.00  0.00    +0.000 C 
ATOM      9  C   UNL     1       4.395   5.433  18.659  0.00  0.00    +0.000 C 
ENDROOT
BRANCH   1  10
ATOM     10  O   UNL     1       0.648   3.075  20.967  0.00  0.00    +0.000 OA
ATOM     11  H   UNL     1       0.819   3.777  21.618  0.00  0.00    +0.000 HD
ENDBRANCH   1  10
BRANCH   6  12
ATOM     12  O   UNL     1       0.341   1.689  18.573  0.00  0.00    +0.000 OA
ATOM     13  H   UNL     1       0.492   1.207  17.740  0.00  0.00    +0.000 HD
ENDBRANCH   6  12
BRANCH   8  14
ATOM     14  N   UNL     1       5.349   5.901  16.233  0.00  0.00    +0.000 NA
ATOM     15  H   UNL     1       5.702   6.735  16.700  0.00  0.00    +0.000 HD
BRANCH  14  16
ATOM     16  C   UNL     1       6.493   5.007  15.938  0.00  0.00    +0.000 C 
BRANCH  16  17
ATOM     17  C   UNL     1       6.735   4.686  14.491  0.00  0.00    +0.000 A 
ATOM     18  C   UNL     1       5.894   3.752  13.857  0.00  0.00    +0.000 A 
ATOM     19  C   UNL     1       6.025   3.473  12.495  0.00  0.00    +0.000 A 
ATOM     20  C   UNL     1       6.986   4.151  11.750  0.00  0.00    +0.000 A 
ATOM     21  C   UNL     1       7.809   5.095  12.363  0.00  0.00    +0.000 A 
ATOM     22  C   UNL     1       7.681   5.367  13.726  0.00  0.00    +0.000 A 
ENDBRANCH  16  17
ENDBRANCH  14  16
ENDBRANCH   8  14
TORSDOF 5
ENDMDL
MODEL 3
REMARK VINA RESULT:      -7.2      1.443      1.894
REMARK  Name = 
REMARK  5 active torsions:
REMARK  status: ('A' for Active; 'I' for Inactive)
REMARK    1  A    between atoms: O_1  and  C_2
REMARK    2  A    between atoms: C_7  and  O_8
REMARK    3  A    between atoms: C_10  and  N_11
REMARK    4  A    between atoms: N_11  and  C_12
REMARK    5  A    between atoms: C_12  and  C_13
REMARK                            x       y       z     vdW  Elec       q    Type
REMARK                         _______ _______ _______ _____ _____    ______ ____
ROOT
ATOM      1  C   UNL     1       1.162   3.157  19.608  0.00  0.00    +0.000 A 
ATOM      2  C   UNL     1       1.583   3.461  18.305  0.00  0.00    +0.000 A 
ATOM      3  C   UNL     1       2.850   3.998  18.160  0.00  0.00    +0.000 A 
ATOM      4  C   UNL     1       3.568   4.416  19.290  0.00  0.00    +0.000 A 
ATOM      5  C   UNL     1       3.188   4.073  20.571  0.00  0.00    +0.000 A 
ATOM      6  C   UNL     1       2.006   3.370  20.718  0.00  0.00    +0.000 A 
ATOM      7  C   UNL     1       4.882   4.979  18.880  0.00  0.00    +0.000 C 
ATOM      8  C   UNL     1       5.151   4.002  17.718  0.00  0.00    +0.000 C 
ATOM      9  C   UNL     1       3.778   4.017  16.955  0.00  0.00    +0.000 C 
ENDROOT
BRANCH   1  10
ATOM     10  O   UNL     1      -0.053   2.566  19.809  0.00  0.00    +0.000 OA
ATOM     11  H   UNL     1      -0.732   3.211  19.548  0.00  0.00    +0.000 HD
ENDBRANCH   1  10
BRANCH   6  12
ATOM     12  O   UNL     1       1.724   2.820  21.936  0.00  0.00    +0.000 OA
ATOM     13  H   UNL     1       0.847   2.401  21.861  0.00  0.00    +0.000 HD
ENDBRANCH   6  12
BRANCH   8  14
ATOM     14  N   UNL     1       6.415   4.245  17.011  0.00  0.00    +0.000 NA
ATOM     15  H   UNL     1       6.738   3.394  16.554  0.00  0.00    +0.000 HD
BRANCH  14  16
ATOM     16  C   UNL     1       6.168   5.272  15.973  0.00  0.00    +0.000 C 
BRANCH  16  17
ATOM     17  C   UNL     1       6.403   4.854  14.549  0.00  0.00    +0.000 A 
ATOM     18  C   UNL     1       7.515   5.382  13.866  0.00  0.00    +0.000 A 
ATOM     19  C   UNL     1       7.826   4.970  12.569  0.00  0.00    +0.000 A 
ATOM     20  C   UNL     1       7.036   4.003  11.953  0.00  0.00    +0.000 A 
ATOM     21  C   UNL     1       5.946   3.456  12.629  0.00  0.00    +0.000 A 
ATOM     22  C   UNL     1       5.634   3.874  13.924  0.00  0.00    +0.000 A 
ENDBRANCH  16  17
ENDBRANCH  14  16
ENDBRANCH   8  14
TORSDOF 5
ENDMDL
MODEL 4
REMARK VINA RESULT:      -7.2      1.523      1.997
REMARK  Name = 
REMARK  5 active torsions:
REMARK  status: ('A' for Active; 'I' for Inactive)
REMARK    1  A    between atoms: O_1  and  C_2
REMARK    2  A    between atoms: C_7  and  O_8
REMARK    3  A    between atoms: C_10  and  N_11
REMARK    4  A    between atoms: N_11  and  C_12
REMARK    5  A    between atoms: C_12  and  C_13
REMARK                            x       y       z     vdW  Elec       q    Type
REMARK                         _______ _______ _______ _____ _____    ______ ____
ROOT
ATOM      1  C   UNL     1       2.636   2.830  20.713  0.00  0.00    +0.000 A 
ATOM      2  C   UNL     1       3.969   3.057  20.340  0.00  0.00    +0.000 A 
ATOM      3  C   UNL     1       4.194   3.524  19.057  0.00  0.00    +0.000 A 
ATOM      4  C   UNL     1       3.146   3.546  18.124  0.00  0.00    +0.000 A 
ATOM      5  C   UNL     1       1.828   3.377  18.495  0.00  0.00    +0.000 A 
ATOM      6  C   UNL     1       1.573   3.089  19.823  0.00  0.00    +0.000 A 
ATOM      7  C   UNL     1       3.637   4.059  16.818  0.00  0.00    +0.000 C 
ATOM      8  C   UNL     1       4.614   5.109  17.383  0.00  0.00    +0.000 C 
ATOM      9  C   UNL     1       5.378   4.285  18.481  0.00  0.00    +0.000 C 
ENDROOT
BRANCH   1  10
ATOM     10  O   UNL     1       2.347   2.430  21.988  0.00  0.00    +0.000 OA
ATOM     11  H   UNL     1       2.947   1.696  22.200  0.00  0.00    +0.000 HD
ENDBRANCH   1  10
BRANCH   6  12
ATOM     12  O   UNL     1       0.281   3.145  20.264  0.00  0.00    +0.000 OA
ATOM     13  H   UNL     1      -0.269   3.391  19.499  0.00  0.00    +0.000 HD
ENDBRANCH   6  12
BRANCH   8  14
ATOM     14  N   UNL     1       5.343   5.864  16.355  0.00  0.00    +0.000 NA
ATOM     15  H   UNL     1       5.603   6.784  16.706  0.00  0.00    +0.000 HD
BRANCH  14  16
ATOM     16  C   UNL     1       6.581   5.116  16.032  0.00  0.00    +0.000 C 
BRANCH  16  17
ATOM     17  C   UNL     1       6.779   4.741  14.591  0.00  0.00    +0.000 A 
ATOM     18  C   UNL     1       5.939   3.762  14.027  0.00  0.00    +0.000 A 
ATOM     19  C   UNL     1       6.026   3.429  12.674  0.00  0.00    +0.000 A 
ATOM     20  C   UNL     1       6.944   4.097  11.867  0.00  0.00    +0.000 A 
ATOM     21  C   UNL     1       7.765   5.085  12.409  0.00  0.00    +0.000 A 
ATOM     22  C   UNL     1       7.679   5.411  13.764  0.00  0.00    +0.000 A 
ENDBRANCH  16  17
ENDBRANCH  14  16
ENDBRANCH   8  14
TORSDOF 5
ENDMDL
MODEL 5
REMARK VINA RESULT:      -7.1      1.496      2.231
REMARK  Name = 
REMARK  5 active torsions:
REMARK  status: ('A' for Active; 'I' for Inactive)
REMARK    1  A    between atoms: O_1  and  C_2
REMARK    2  A    between atoms: C_7  and  O_8
REMARK    3  A    between atoms: C_10  and  N_11
REMARK    4  A    between atoms: N_11  and  C_12
REMARK    5  A    between atoms: C_12  and  C_13
REMARK                            x       y       z     vdW  Elec       q    Type
REMARK                         _______ _______ _______ _____ _____    ______ ____
ROOT
ATOM      1  C   UNL     1       2.472   2.787  20.663  0.00  0.00    +0.000 A 
ATOM      2  C   UNL     1       3.828   2.922  20.330  0.00  0.00    +0.000 A 
ATOM      3  C   UNL     1       4.123   3.425  19.076  0.00  0.00    +0.000 A 
ATOM      4  C   UNL     1       3.105   3.573  18.122  0.00  0.00    +0.000 A 
ATOM      5  C   UNL     1       1.769   3.495  18.455  0.00  0.00    +0.000 A 
ATOM      6  C   UNL     1       1.457   3.170  19.763  0.00  0.00    +0.000 A 
ATOM      7  C   UNL     1       3.669   4.102  16.852  0.00  0.00    +0.000 C 
ATOM      8  C   UNL     1       4.712   5.043  17.486  0.00  0.00    +0.000 C 
ATOM      9  C   UNL     1       5.378   4.113  18.562  0.00  0.00    +0.000 C 
ENDROOT
BRANCH   1  10
ATOM     10  O   UNL     1       2.119   2.356  21.911  0.00  0.00    +0.000 OA
ATOM     11  H   UNL     1       2.316   1.406  21.952  0.00  0.00    +0.000 HD
ENDBRANCH   1  10
BRANCH   6  12
ATOM     12  O   UNL     1       0.162   3.312  20.177  0.00  0.00    +0.000 OA
ATOM     13  H   UNL     1       0.172   3.278  21.150  0.00  0.00    +0.000 HD
ENDBRANCH   6  12
BRANCH   8  14
ATOM     14  N   UNL     1       5.524   5.781  16.511  0.00  0.00    +0.000 NA
ATOM     15  H   UNL     1       5.947   6.600  16.945  0.00  0.00    +0.000 HD
BRANCH  14  16
ATOM     16  C   UNL     1       6.608   4.883  16.047  0.00  0.00    +0.000 C 
BRANCH  16  17
ATOM     17  C   UNL     1       6.682   4.632  14.568  0.00  0.00    +0.000 A 
ATOM     18  C   UNL     1       7.620   5.356  13.807  0.00  0.00    +0.000 A 
ATOM     19  C   UNL     1       7.785   5.108  12.443  0.00  0.00    +0.000 A 
ATOM     20  C   UNL     1       7.026   4.112  11.835  0.00  0.00    +0.000 A 
ATOM     21  C   UNL     1       6.111   3.373  12.583  0.00  0.00    +0.000 A 
ATOM     22  C   UNL     1       5.944   3.627  13.946  0.00  0.00    +0.000 A 
ENDBRANCH  16  17
ENDBRANCH  14  16
ENDBRANCH   8  14
TORSDOF 5
ENDMDL
MODEL 6
REMARK VINA RESULT:      -7.1      2.167      3.391
REMARK  Name = 
REMARK  5 active torsions:
REMARK  status: ('A' for Active; 'I' for Inactive)
REMARK    1  A    between atoms: O_1  and  C_2
REMARK    2  A    between atoms: C_7  and  O_8
REMARK    3  A    between atoms: C_10  and  N_11
REMARK    4  A    between atoms: N_11  and  C_12
REMARK    5  A    between atoms: C_12  and  C_13
REMARK                            x       y       z     vdW  Elec       q    Type
REMARK                         _______ _______ _______ _____ _____    ______ ____
ROOT
ATOM      1  C   UNL     1       1.467   3.548  20.177  0.00  0.00    +0.000 A 
ATOM      2  C   UNL     1       1.500   3.102  18.847  0.00  0.00    +0.000 A 
ATOM      3  C   UNL     1       2.334   3.780  17.976  0.00  0.00    +0.000 A 
ATOM      4  C   UNL     1       2.932   4.986  18.371  0.00  0.00    +0.000 A 
ATOM      5  C   UNL     1       2.949   5.401  19.686  0.00  0.00    +0.000 A 
ATOM      6  C   UNL     1       2.267   4.626  20.607  0.00  0.00    +0.000 A 
ATOM      7  C   UNL     1       3.755   5.535  17.261  0.00  0.00    +0.000 C 
ATOM      8  C   UNL     1       4.274   4.186  16.726  0.00  0.00    +0.000 C 
ATOM      9  C   UNL     1       2.957   3.332  16.662  0.00  0.00    +0.000 C 
ENDROOT
BRANCH   1  10
ATOM     10  O   UNL     1       0.711   2.879  21.098  0.00  0.00    +0.000 OA
ATOM     11  H   UNL     1       0.195   3.544  21.583  0.00  0.00    +0.000 HD
ENDBRANCH   1  10
BRANCH   6  12
ATOM     12  O   UNL     1       2.457   4.879  21.936  0.00  0.00    +0.000 OA
ATOM     13  H   UNL     1       3.406   4.753  22.115  0.00  0.00    +0.000 HD
ENDBRANCH   6  12
BRANCH   8  14
ATOM     14  N   UNL     1       5.160   4.304  15.560  0.00  0.00    +0.000 NA
ATOM     15  H   UNL     1       5.050   5.215  15.120  0.00  0.00    +0.000 HD
BRANCH  14  16
ATOM     16  C   UNL     1       6.558   4.176  16.035  0.00  0.00    +0.000 C 
BRANCH  16  17
ATOM     17  C   UNL     1       7.039   5.233  16.990  0.00  0.00    +0.000 A 
ATOM     18  C   UNL     1       7.546   4.832  18.240  0.00  0.00    +0.000 A 
ATOM     19  C   UNL     1       8.078   5.763  19.134  0.00  0.00    +0.000 A 
ATOM     20  C   UNL     1       8.128   7.106  18.768  0.00  0.00    +0.000 A 
ATOM     21  C   UNL     1       7.649   7.511  17.523  0.00  0.00    +0.000 A 
ATOM     22  C   UNL     1       7.113   6.579  16.634  0.00  0.00    +0.000 A 
ENDBRANCH  16  17
ENDBRANCH  14  16
ENDBRANCH   8  14
TORSDOF 5
ENDMDL
MODEL 7
REMARK VINA RESULT:      -7.0      4.214      8.401
REMARK  Name = 
REMARK  5 active torsions:
REMARK  status: ('A' for Active; 'I' for Inactive)
REMARK    1  A    between atoms: O_1  and  C_2
REMARK    2  A    between atoms: C_7  and  O_8
REMARK    3  A    between atoms: C_10  and  N_11
REMARK    4  A    between atoms: N_11  and  C_12
REMARK    5  A    between atoms: C_12  and  C_13
REMARK                            x       y       z     vdW  Elec       q    Type
REMARK                         _______ _______ _______ _____ _____    ______ ____
ROOT
ATOM      1  C   UNL     1       6.391   5.753  16.681  0.00  0.00    +0.000 A 
ATOM      2  C   UNL     1       5.250   6.564  16.586  0.00  0.00    +0.000 A 
ATOM      3  C   UNL     1       4.253   6.361  17.523  0.00  0.00    +0.000 A 
ATOM      4  C   UNL     1       4.305   5.246  18.374  0.00  0.00    +0.000 A 
ATOM      5  C   UNL     1       5.443   4.479  18.511  0.00  0.00    +0.000 A 
ATOM      6  C   UNL     1       6.521   4.790  17.703  0.00  0.00    +0.000 A 
ATOM      7  C   UNL     1       3.117   5.230  19.267  0.00  0.00    +0.000 C 
ATOM      8  C   UNL     1       3.016   6.755  19.475  0.00  0.00    +0.000 C 
ATOM      9  C   UNL     1       3.151   7.293  18.006  0.00  0.00    +0.000 C 
ENDROOT
BRANCH   1  10
ATOM     10  O   UNL     1       7.436   5.951  15.823  0.00  0.00    +0.000 OA
ATOM     11  H   UNL     1       7.970   6.678  16.185  0.00  0.00    +0.000 HD
ENDBRANCH   1  10
BRANCH   6  12
ATOM     12  O   UNL     1       7.727   4.207  17.974  0.00  0.00    +0.000 OA
ATOM     13  H   UNL     1       8.202   4.808  18.575  0.00  0.00    +0.000 HD
ENDBRANCH   6  12
BRANCH   8  14
ATOM     14  N   UNL     1       1.902   7.170  20.337  0.00  0.00    +0.000 NA
ATOM     15  H   UNL     1       2.192   7.183  21.313  0.00  0.00    +0.000 HD
BRANCH  14  16
ATOM     16  C   UNL     1       1.510   8.544  19.945  0.00  0.00    +0.000 C 
BRANCH  16  17
ATOM     17  C   UNL     1       0.633   9.291  20.910  0.00  0.00    +0.000 A 
ATOM     18  C   UNL     1       0.644   8.911  22.265  0.00  0.00    +0.000 A 
ATOM     19  C   UNL     1      -0.092   9.618  23.218  0.00  0.00    +0.000 A 
ATOM     20  C   UNL     1      -0.827  10.732  22.821  0.00  0.00    +0.000 A 
ATOM     21  C   UNL     1      -0.827  11.131  21.485  0.00  0.00    +0.000 A 
ATOM     22  C   UNL     1      -0.095  10.419  20.533  0.00  0.00    +0.000 A 
ENDBRANCH  16  17
ENDBRANCH  14  16
ENDBRANCH   8  14
TORSDOF 5
ENDMDL
MODEL 8
REMARK VINA RESULT:      -7.0      0.619      1.287
REMARK  Name = 
REMARK  5 active torsions:
REMARK  status: ('A' for Active; 'I' for Inactive)
REMARK    1  A    between atoms: O_1  and  C_2
REMARK    2  A    between atoms: C_7  and  O_8
REMARK    3  A    between atoms: C_10  and  N_11
REMARK    4  A    between atoms: N_11  and  C_12
REMARK    5  A    between atoms: C_12  and  C_13
REMARK                            x       y       z     vdW  Elec       q    Type
REMARK                         _______ _______ _______ _____ _____    ______ ____
ROOT
ATOM      1  C   UNL     1       1.319   3.678  19.289  0.00  0.00    +0.000 A 
ATOM      2  C   UNL     1       2.026   3.004  18.282  0.00  0.00    +0.000 A 
ATOM      3  C   UNL     1       3.126   3.647  17.746  0.00  0.00    +0.000 A 
ATOM      4  C   UNL     1       3.368   4.995  18.049  0.00  0.00    +0.000 A 
ATOM      5  C   UNL     1       2.714   5.647  19.074  0.00  0.00    +0.000 A 
ATOM      6  C   UNL     1       1.729   4.948  19.746  0.00  0.00    +0.000 A 
ATOM      7  C   UNL     1       4.585   5.468  17.336  0.00  0.00    +0.000 C 
ATOM      8  C   UNL     1       5.394   4.162  17.458  0.00  0.00    +0.000 C 
ATOM      9  C   UNL     1       4.340   3.083  17.022  0.00  0.00    +0.000 C 
ENDROOT
BRANCH   1  10
ATOM     10  O   UNL     1       0.261   3.067  19.902  0.00  0.00    +0.000 OA
ATOM     11  H   UNL     1      -0.465   3.037  19.258  0.00  0.00    +0.000 HD
ENDBRANCH   1  10
BRANCH   6  12
ATOM     12  O   UNL     1       1.230   5.477  20.903  0.00  0.00    +0.000 OA
ATOM     13  H   UNL     1       1.762   5.111  21.633  0.00  0.00    +0.000 HD
ENDBRANCH   6  12
BRANCH   8  14
ATOM     14  N   UNL     1       6.723   4.220  16.837  0.00  0.00    +0.000 NA
ATOM     15  H   UNL     1       6.940   3.339  16.373  0.00  0.00    +0.000 HD
BRANCH  14  16
ATOM     16  C   UNL     1       6.703   5.295  15.817  0.00  0.00    +0.000 C 
BRANCH  16  17
ATOM     17  C   UNL     1       6.721   4.855  14.380  0.00  0.00    +0.000 A 
ATOM     18  C   UNL     1       7.702   5.388  13.523  0.00  0.00    +0.000 A 
ATOM     19  C   UNL     1       7.813   4.957  12.200  0.00  0.00    +0.000 A 
ATOM     20  C   UNL     1       6.955   3.967  11.732  0.00  0.00    +0.000 A 
ATOM     21  C   UNL     1       5.994   3.415  12.578  0.00  0.00    +0.000 A 
ATOM     22  C   UNL     1       5.881   3.852  13.899  0.00  0.00    +0.000 A 
ENDBRANCH  16  17
ENDBRANCH  14  16
ENDBRANCH   8  14
TORSDOF 5
ENDMDL
MODEL 9
REMARK VINA RESULT:      -7.0      3.527      7.007
REMARK  Name = 
REMARK  5 active torsions:
REMARK  status: ('A' for Active; 'I' for Inactive)
REMARK    1  A    between atoms: O_1  and  C_2
REMARK    2  A    between atoms: C_7  and  O_8
REMARK    3  A    between atoms: C_10  and  N_11
REMARK    4  A    between atoms: N_11  and  C_12
REMARK    5  A    between atoms: C_12  and  C_13
REMARK                            x       y       z     vdW  Elec       q    Type
REMARK                         _______ _______ _______ _____ _____    ______ ____
ROOT
ATOM      1  C   UNL     1       6.292   3.994  14.292  0.00  0.00    +0.000 A 
ATOM      2  C   UNL     1       5.194   3.656  15.097  0.00  0.00    +0.000 A 
ATOM      3  C   UNL     1       5.043   4.351  16.283  0.00  0.00    +0.000 A 
ATOM      4  C   UNL     1       6.072   5.187  16.742  0.00  0.00    +0.000 A 
ATOM      5  C   UNL     1       7.125   5.566  15.936  0.00  0.00    +0.000 A 
ATOM      6  C   UNL     1       7.188   5.016  14.670  0.00  0.00    +0.000 A 
ATOM      7  C   UNL     1       5.691   5.798  18.043  0.00  0.00    +0.000 C 
ATOM      8  C   UNL     1       4.192   5.985  17.731  0.00  0.00    +0.000 C 
ATOM      9  C   UNL     1       3.806   4.584  17.137  0.00  0.00    +0.000 C 
ENDROOT
BRANCH   1  10
ATOM     10  O   UNL     1       6.457   3.387  13.079  0.00  0.00    +0.000 OA
ATOM     11  H   UNL     1       5.923   3.883  12.435  0.00  0.00    +0.000 HD
ENDBRANCH   1  10
BRANCH   6  12
ATOM     12  O   UNL     1       8.077   5.542  13.775  0.00  0.00    +0.000 OA
ATOM     13  H   UNL     1       7.569   5.775  12.977  0.00  0.00    +0.000 HD
ENDBRANCH   6  12
BRANCH   8  14
ATOM     14  N   UNL     1       3.422   6.584  18.828  0.00  0.00    +0.000 NA
ATOM     15  H   UNL     1       3.341   7.591  18.699  0.00  0.00    +0.000 HD
BRANCH  14  16
ATOM     16  C   UNL     1       2.062   5.997  18.804  0.00  0.00    +0.000 C 
BRANCH  16  17
ATOM     17  C   UNL     1       1.823   4.826  19.715  0.00  0.00    +0.000 A 
ATOM     18  C   UNL     1       1.104   3.721  19.220  0.00  0.00    +0.000 A 
ATOM     19  C   UNL     1       0.919   2.575  19.996  0.00  0.00    +0.000 A 
ATOM     20  C   UNL     1       1.477   2.519  21.270  0.00  0.00    +0.000 A 
ATOM     21  C   UNL     1       2.210   3.598  21.762  0.00  0.00    +0.000 A 
ATOM     22  C   UNL     1       2.389   4.745  20.986  0.00  0.00    +0.000 A 
ENDBRANCH  16  17
ENDBRANCH  14  16
ENDBRANCH   8  14
TORSDOF 5
ENDMDL
