MODEL 1
REMARK VINA RESULT:      -7.5      0.000      0.000
REMARK  Name = 
REMARK  7 active torsions:
REMARK  status: ('A' for Active; 'I' for Inactive)
REMARK    1  A    between atoms: C_1  and  O_2
REMARK    2  A    between atoms: O_2  and  C_3
REMARK    3  A    between atoms: C_3  and  C_5
REMARK    4  A    between atoms: C_10  and  N_11
REMARK    5  A    between atoms: C_12  and  C_14
REMARK    6  A    between atoms: C_14  and  N_15
REMARK    7  A    between atoms: C_17  and  C_18
REMARK                            x       y       z     vdW  Elec       q    Type
REMARK                         _______ _______ _______ _____ _____    ______ ____
ROOT
ATOM      1  N   UNL     1       2.974   5.315  18.354  0.00  0.00    +0.000 N 
ATOM      2  C   UNL     1       2.371   4.363  17.552  0.00  0.00    +0.000 C 
ATOM      3  O   UNL     1       1.158   4.297  17.340  0.00  0.00    +0.000 OA
ATOM      4  H   UNL     1       3.991   5.273  18.440  0.00  0.00    +0.000 HD
ENDROOT
BRANCH   1  10
ATOM      5  C   UNL     1       1.745   6.131  20.342  0.00  0.00    +0.000 A 
ATOM      6  C   UNL     1       1.143   7.179  21.073  0.00  0.00    +0.000 A 
ATOM      7  C   UNL     1       1.134   8.478  20.578  0.00  0.00    +0.000 A 
ATOM      8  C   UNL     1       1.730   8.735  19.351  0.00  0.00    +0.000 A 
ATOM      9  C   UNL     1       2.315   7.697  18.611  0.00  0.00    +0.000 A 
ATOM     10  C   UNL     1       2.343   6.375  19.083  0.00  0.00    +0.000 A 
BRANCH   5  11
ATOM     11  C   UNL     1       1.782   4.824  21.038  0.00  0.00    +0.000 C 
ATOM     12  O   UNL     1       2.599   4.557  21.910  0.00  0.00    +0.000 OA
BRANCH  11  14
ATOM     13  C   UNL     1       1.146   2.630  20.513  0.00  0.00    +0.000 C 
ATOM     14  O   UNL     1       0.796   4.015  20.590  0.00  0.00    +0.000 OA
ENDBRANCH  11  14
ENDBRANCH   5  11
ENDBRANCH   1  10
BRANCH   2  15
ATOM     15  C   UNL     1       3.267   3.413  16.782  0.00  0.00    +0.000 C 
BRANCH  15  16
ATOM     16  N   UNL     1       4.672   3.763  16.674  0.00  0.00    +0.000 N 
ATOM     17  N   UNL     1       5.378   4.060  17.806  0.00  0.00    +0.000 NA
ATOM     18  C   UNL     1       6.529   4.643  17.373  0.00  0.00    +0.000 A 
ATOM     19  C   UNL     1       6.546   4.658  15.973  0.00  0.00    +0.000 A 
ATOM     20  C   UNL     1       5.381   4.081  15.567  0.00  0.00    +0.000 A 
ATOM     21  C   UNL     1       5.224   4.002  14.105  0.00  0.00    +0.000 C 
ATOM     22  C   UNL     1       6.698   4.332  13.654  0.00  0.00    +0.000 C 
ATOM     23  C   UNL     1       7.394   5.075  14.845  0.00  0.00    +0.000 C 
BRANCH  18  24
ATOM     24  C   UNL     1       7.625   5.154  18.266  0.00  0.00    +0.000 C 
ATOM     25  F   UNL     1       8.704   4.335  18.334  0.00  0.00    +0.000 F 
ATOM     26  F   UNL     1       8.080   6.364  17.833  0.00  0.00    +0.000 F 
ATOM     27  F   UNL     1       7.194   5.344  19.546  0.00  0.00    +0.000 F 
ENDBRANCH  18  24
ENDBRANCH  15  16
ENDBRANCH   2  15
TORSDOF 6
ENDMDL
MODEL 2
REMARK VINA RESULT:      -7.4      3.947      5.326
REMARK  Name = 
REMARK  7 active torsions:
REMARK  status: ('A' for Active; 'I' for Inactive)
REMARK    1  A    between atoms: C_1  and  O_2
REMARK    2  A    between atoms: O_2  and  C_3
REMARK    3  A    between atoms: C_3  and  C_5
REMARK    4  A    between atoms: C_10  and  N_11
REMARK    5  A    between atoms: C_12  and  C_14
REMARK    6  A    between atoms: C_14  and  N_15
REMARK    7  A    between atoms: C_17  and  C_18
REMARK                            x       y       z     vdW  Elec       q    Type
REMARK                         _______ _______ _______ _____ _____    ______ ____
ROOT
ATOM      1  N   UNL     1       0.813   9.042  19.397  0.00  0.00    +0.000 N 
ATOM      2  C   UNL     1       1.815   8.542  18.584  0.00  0.00    +0.000 C 
ATOM      3  O   UNL     1       2.077   8.969  17.457  0.00  0.00    +0.000 OA
ATOM      4  H   UNL     1       0.703   8.612  20.317  0.00  0.00    +0.000 HD
ENDROOT
BRANCH   1  10
ATOM      5  C   UNL     1      -0.161  11.252  19.942  0.00  0.00    +0.000 A 
ATOM      6  C   UNL     1      -1.040  12.317  19.647  0.00  0.00    +0.000 A 
ATOM      7  C   UNL     1      -1.857  12.274  18.522  0.00  0.00    +0.000 A 
ATOM      8  C   UNL     1      -1.796  11.167  17.687  0.00  0.00    +0.000 A 
ATOM      9  C   UNL     1      -0.937  10.097  17.983  0.00  0.00    +0.000 A 
ATOM     10  C   UNL     1      -0.098  10.110  19.109  0.00  0.00    +0.000 A 
BRANCH   5  11
ATOM     11  C   UNL     1       0.730  11.481  21.103  0.00  0.00    +0.000 C 
ATOM     12  O   UNL     1       1.416  12.487  21.228  0.00  0.00    +0.000 OA
BRANCH  11  14
ATOM     13  C   UNL     1      -0.512  10.461  22.809  0.00  0.00    +0.000 C 
ATOM     14  O   UNL     1       0.651  10.452  21.977  0.00  0.00    +0.000 OA
ENDBRANCH  11  14
ENDBRANCH   5  11
ENDBRANCH   1  10
BRANCH   2  15
ATOM     15  C   UNL     1       2.734   7.483  19.161  0.00  0.00    +0.000 C 
BRANCH  15  16
ATOM     16  N   UNL     1       2.843   6.230  18.437  0.00  0.00    +0.000 N 
ATOM     17  N   UNL     1       2.054   5.174  18.801  0.00  0.00    +0.000 NA
ATOM     18  C   UNL     1       2.594   4.088  18.181  0.00  0.00    +0.000 A 
ATOM     19  C   UNL     1       3.683   4.491  17.399  0.00  0.00    +0.000 A 
ATOM     20  C   UNL     1       3.799   5.838  17.563  0.00  0.00    +0.000 A 
ATOM     21  C   UNL     1       4.903   6.446  16.802  0.00  0.00    +0.000 C 
ATOM     22  C   UNL     1       5.254   5.254  15.833  0.00  0.00    +0.000 C 
ATOM     23  C   UNL     1       4.697   3.943  16.486  0.00  0.00    +0.000 C 
BRANCH  18  24
ATOM     24  C   UNL     1       2.069   2.684  18.294  0.00  0.00    +0.000 C 
ATOM     25  F   UNL     1       0.726   2.614  18.474  0.00  0.00    +0.000 F 
ATOM     26  F   UNL     1       2.349   1.969  17.167  0.00  0.00    +0.000 F 
ATOM     27  F   UNL     1       2.641   2.006  19.329  0.00  0.00    +0.000 F 
ENDBRANCH  18  24
ENDBRANCH  15  16
ENDBRANCH   2  15
TORSDOF 6
ENDMDL
MODEL 3
REMARK VINA RESULT:      -7.3      4.653      8.090
REMARK  Name = 
REMARK  7 active torsions:
REMARK  status: ('A' for Active; 'I' for Inactive)
REMARK    1  A    between atoms: C_1  and  O_2
REMARK    2  A    between atoms: O_2  and  C_3
REMARK    3  A    between atoms: C_3  and  C_5
REMARK    4  A    between atoms: C_10  and  N_11
REMARK    5  A    between atoms: C_12  and  C_14
REMARK    6  A    between atoms: C_14  and  N_15
REMARK    7  A    between atoms: C_17  and  C_18
REMARK                            x       y       z     vdW  Elec       q    Type
REMARK                         _______ _______ _______ _____ _____    ______ ____
ROOT
ATOM      1  N   UNL     1       2.243   6.180  17.845  0.00  0.00    +0.000 N 
ATOM      2  C   UNL     1       2.371   7.070  18.898  0.00  0.00    +0.000 C 
ATOM      3  O   UNL     1       2.655   6.746  20.053  0.00  0.00    +0.000 OA
ATOM      4  H   UNL     1       2.018   6.574  16.930  0.00  0.00    +0.000 HD
ENDROOT
BRANCH   1  10
ATOM      5  C   UNL     1       3.620   4.151  17.507  0.00  0.00    +0.000 A 
ATOM      6  C   UNL     1       3.781   2.750  17.562  0.00  0.00    +0.000 A 
ATOM      7  C   UNL     1       2.744   1.930  17.994  0.00  0.00    +0.000 A 
ATOM      8  C   UNL     1       1.542   2.510  18.375  0.00  0.00    +0.000 A 
ATOM      9  C   UNL     1       1.369   3.901  18.308  0.00  0.00    +0.000 A 
ATOM     10  C   UNL     1       2.396   4.756  17.878  0.00  0.00    +0.000 A 
BRANCH   5  11
ATOM     11  C   UNL     1       4.839   4.907  17.139  0.00  0.00    +0.000 C 
ATOM     12  O   UNL     1       4.820   5.888  16.406  0.00  0.00    +0.000 OA
BRANCH  11  14
ATOM     13  C   UNL     1       7.159   4.587  17.033  0.00  0.00    +0.000 C 
ATOM     14  O   UNL     1       5.930   4.374  17.734  0.00  0.00    +0.000 OA
ENDBRANCH  11  14
ENDBRANCH   5  11
ENDBRANCH   1  10
BRANCH   2  15
ATOM     15  C   UNL     1       2.282   8.551  18.589  0.00  0.00    +0.000 C 
BRANCH  15  16
ATOM     16  N   UNL     1       1.063   9.239  18.972  0.00  0.00    +0.000 N 
ATOM     17  N   UNL     1       0.273   9.793  18.004  0.00  0.00    +0.000 NA
ATOM     18  C   UNL     1      -0.587  10.616  18.666  0.00  0.00    +0.000 A 
ATOM     19  C   UNL     1      -0.353  10.525  20.043  0.00  0.00    +0.000 A 
ATOM     20  C   UNL     1       0.669   9.640  20.203  0.00  0.00    +0.000 A 
ATOM     21  C   UNL     1       1.056   9.411  21.606  0.00  0.00    +0.000 C 
ATOM     22  C   UNL     1      -0.175  10.070  22.337  0.00  0.00    +0.000 C 
ATOM     23  C   UNL     1      -0.848  11.056  21.323  0.00  0.00    +0.000 C 
BRANCH  18  24
ATOM     24  C   UNL     1      -1.648  11.457  18.012  0.00  0.00    +0.000 C 
ATOM     25  F   UNL     1      -1.255  12.730  17.752  0.00  0.00    +0.000 F 
ATOM     26  F   UNL     1      -2.030  10.917  16.820  0.00  0.00    +0.000 F 
ATOM     27  F   UNL     1      -2.775  11.541  18.774  0.00  0.00    +0.000 F 
ENDBRANCH  18  24
ENDBRANCH  15  16
ENDBRANCH   2  15
TORSDOF 6
ENDMDL
MODEL 4
REMARK VINA RESULT:      -7.2      5.118      8.137
REMARK  Name = 
REMARK  7 active torsions:
REMARK  status: ('A' for Active; 'I' for Inactive)
REMARK    1  A    between atoms: C_1  and  O_2
REMARK    2  A    between atoms: O_2  and  C_3
REMARK    3  A    between atoms: C_3  and  C_5
REMARK    4  A    between atoms: C_10  and  N_11
REMARK    5  A    between atoms: C_12  and  C_14
REMARK    6  A    between atoms: C_14  and  N_15
REMARK    7  A    between atoms: C_17  and  C_18
REMARK                            x       y       z     vdW  Elec       q    Type
REMARK                         _______ _______ _______ _____ _____    ______ ____
ROOT
ATOM      1  N   UNL     1       2.746   7.234  18.863  0.00  0.00    +0.000 N 
ATOM      2  C   UNL     1       2.094   8.412  18.546  0.00  0.00    +0.000 C 
ATOM      3  O   UNL     1       2.078   8.920  17.422  0.00  0.00    +0.000 OA
ATOM      4  H   UNL     1       2.674   6.908  19.828  0.00  0.00    +0.000 HD
ENDROOT
BRANCH   1  10
ATOM      5  C   UNL     1       3.109   5.068  17.719  0.00  0.00    +0.000 A 
ATOM      6  C   UNL     1       3.851   4.249  16.841  0.00  0.00    +0.000 A 
ATOM      7  C   UNL     1       4.994   4.732  16.212  0.00  0.00    +0.000 A 
ATOM      8  C   UNL     1       5.396   6.037  16.457  0.00  0.00    +0.000 A 
ATOM      9  C   UNL     1       4.673   6.852  17.341  0.00  0.00    +0.000 A 
ATOM     10  C   UNL     1       3.515   6.396  17.991  0.00  0.00    +0.000 A 
BRANCH   5  11
ATOM     11  C   UNL     1       1.855   4.465  18.228  0.00  0.00    +0.000 C 
ATOM     12  O   UNL     1       1.091   3.822  17.520  0.00  0.00    +0.000 OA
BRANCH  11  14
ATOM     13  C   UNL     1       1.308   3.578  20.327  0.00  0.00    +0.000 C 
ATOM     14  O   UNL     1       1.708   4.710  19.549  0.00  0.00    +0.000 OA
ENDBRANCH  11  14
ENDBRANCH   5  11
ENDBRANCH   1  10
BRANCH   2  15
ATOM     15  C   UNL     1       1.239   9.059  19.617  0.00  0.00    +0.000 C 
BRANCH  15  16
ATOM     16  N   UNL     1       0.290  10.072  19.190  0.00  0.00    +0.000 N 
ATOM     17  N   UNL     1      -0.845   9.691  18.530  0.00  0.00    +0.000 NA
ATOM     18  C   UNL     1      -1.353  10.834  17.993  0.00  0.00    +0.000 A 
ATOM     19  C   UNL     1      -0.553  11.921  18.367  0.00  0.00    +0.000 A 
ATOM     20  C   UNL     1       0.453  11.413  19.133  0.00  0.00    +0.000 A 
ATOM     21  C   UNL     1       1.403  12.424  19.628  0.00  0.00    +0.000 C 
ATOM     22  C   UNL     1       0.592  13.738  19.311  0.00  0.00    +0.000 C 
ATOM     23  C   UNL     1      -0.462  13.380  18.208  0.00  0.00    +0.000 C 
BRANCH  18  24
ATOM     24  C   UNL     1      -2.602  10.913  17.160  0.00  0.00    +0.000 C 
ATOM     25  F   UNL     1      -3.290   9.746  17.092  0.00  0.00    +0.000 F 
ATOM     26  F   UNL     1      -3.462  11.844  17.663  0.00  0.00    +0.000 F 
ATOM     27  F   UNL     1      -2.338  11.290  15.877  0.00  0.00    +0.000 F 
ENDBRANCH  18  24
ENDBRANCH  15  16
ENDBRANCH   2  15
TORSDOF 6
ENDMDL
MODEL 5
REMARK VINA RESULT:      -7.2      4.124      5.636
REMARK  Name = 
REMARK  7 active torsions:
REMARK  status: ('A' for Active; 'I' for Inactive)
REMARK    1  A    between atoms: C_1  and  O_2
REMARK    2  A    between atoms: O_2  and  C_3
REMARK    3  A    between atoms: C_3  and  C_5
REMARK    4  A    between atoms: C_10  and  N_11
REMARK    5  A    between atoms: C_12  and  C_14
REMARK    6  A    between atoms: C_14  and  N_15
REMARK    7  A    between atoms: C_17  and  C_18
REMARK                            x       y       z     vdW  Elec       q    Type
REMARK                         _______ _______ _______ _____ _____    ______ ____
ROOT
ATOM      1  N   UNL     1       0.788   9.082  19.218  0.00  0.00    +0.000 N 
ATOM      2  C   UNL     1       1.835   8.565  18.475  0.00  0.00    +0.000 C 
ATOM      3  O   UNL     1       2.176   8.983  17.366  0.00  0.00    +0.000 OA
ATOM      4  H   UNL     1       0.612   8.658  20.130  0.00  0.00    +0.000 HD
ENDROOT
BRANCH   1  10
ATOM      5  C   UNL     1       0.059  11.435  19.462  0.00  0.00    +0.000 A 
ATOM      6  C   UNL     1      -0.787  12.506  19.099  0.00  0.00    +0.000 A 
ATOM      7  C   UNL     1      -1.777  12.336  18.137  0.00  0.00    +0.000 A 
ATOM      8  C   UNL     1      -1.923  11.095  17.533  0.00  0.00    +0.000 A 
ATOM      9  C   UNL     1      -1.097  10.022  17.900  0.00  0.00    +0.000 A 
ATOM     10  C   UNL     1      -0.087  10.161  18.866  0.00  0.00    +0.000 A 
BRANCH   5  11
ATOM     11  C   UNL     1       1.140  11.787  20.412  0.00  0.00    +0.000 C 
ATOM     12  O   UNL     1       1.258  11.261  21.511  0.00  0.00    +0.000 OA
BRANCH  11  14
ATOM     13  C   UNL     1       2.390  13.730  20.805  0.00  0.00    +0.000 C 
ATOM     14  O   UNL     1       1.954  12.728  19.883  0.00  0.00    +0.000 OA
ENDBRANCH  11  14
ENDBRANCH   5  11
ENDBRANCH   1  10
BRANCH   2  15
ATOM     15  C   UNL     1       2.699   7.497  19.116  0.00  0.00    +0.000 C 
BRANCH  15  16
ATOM     16  N   UNL     1       2.812   6.227  18.423  0.00  0.00    +0.000 N 
ATOM     17  N   UNL     1       2.012   5.184  18.799  0.00  0.00    +0.000 NA
ATOM     18  C   UNL     1       2.555   4.081  18.213  0.00  0.00    +0.000 A 
ATOM     19  C   UNL     1       3.657   4.459  17.438  0.00  0.00    +0.000 A 
ATOM     20  C   UNL     1       3.779   5.810  17.573  0.00  0.00    +0.000 A 
ATOM     21  C   UNL     1       4.897   6.394  16.814  0.00  0.00    +0.000 C 
ATOM     22  C   UNL     1       5.256   5.178  15.878  0.00  0.00    +0.000 C 
ATOM     23  C   UNL     1       4.682   3.885  16.553  0.00  0.00    +0.000 C 
BRANCH  18  24
ATOM     24  C   UNL     1       2.020   2.683  18.351  0.00  0.00    +0.000 C 
ATOM     25  F   UNL     1       0.667   2.617  18.412  0.00  0.00    +0.000 F 
ATOM     26  F   UNL     1       2.401   1.912  17.293  0.00  0.00    +0.000 F 
ATOM     27  F   UNL     1       2.496   2.062  19.467  0.00  0.00    +0.000 F 
ENDBRANCH  18  24
ENDBRANCH  15  16
ENDBRANCH   2  15
TORSDOF 6
ENDMDL
MODEL 6
REMARK VINA RESULT:      -7.2      4.324      6.206
REMARK  Name = 
REMARK  7 active torsions:
REMARK  status: ('A' for Active; 'I' for Inactive)
REMARK    1  A    between atoms: C_1  and  O_2
REMARK    2  A    between atoms: O_2  and  C_3
REMARK    3  A    between atoms: C_3  and  C_5
REMARK    4  A    between atoms: C_10  and  N_11
REMARK    5  A    between atoms: C_12  and  C_14
REMARK    6  A    between atoms: C_14  and  N_15
REMARK    7  A    between atoms: C_17  and  C_18
REMARK                            x       y       z     vdW  Elec       q    Type
REMARK                         _______ _______ _______ _____ _____    ______ ____
ROOT
ATOM      1  N   UNL     1       0.657   9.490  19.736  0.00  0.00    +0.000 N 
ATOM      2  C   UNL     1       0.683   8.546  20.747  0.00  0.00    +0.000 C 
ATOM      3  O   UNL     1      -0.274   8.280  21.477  0.00  0.00    +0.000 OA
ATOM      4  H   UNL     1       1.512   9.609  19.189  0.00  0.00    +0.000 HD
ENDROOT
BRANCH   1  10
ATOM      5  C   UNL     1      -0.792  11.460  20.119  0.00  0.00    +0.000 A 
ATOM      6  C   UNL     1      -1.856  12.302  19.726  0.00  0.00    +0.000 A 
ATOM      7  C   UNL     1      -2.574  12.044  18.563  0.00  0.00    +0.000 A 
ATOM      8  C   UNL     1      -2.229  10.945  17.788  0.00  0.00    +0.000 A 
ATOM      9  C   UNL     1      -1.184  10.095  18.181  0.00  0.00    +0.000 A 
ATOM     10  C   UNL     1      -0.438  10.328  19.348  0.00  0.00    +0.000 A 
BRANCH   5  11
ATOM     11  C   UNL     1      -0.043  11.917  21.313  0.00  0.00    +0.000 C 
ATOM     12  O   UNL     1       1.178  11.999  21.342  0.00  0.00    +0.000 OA
BRANCH  11  14
ATOM     13  C   UNL     1      -1.314  11.128  23.117  0.00  0.00    +0.000 C 
ATOM     14  O   UNL     1      -0.891  12.235  22.316  0.00  0.00    +0.000 OA
ENDBRANCH  11  14
ENDBRANCH   5  11
ENDBRANCH   1  10
BRANCH   2  15
ATOM     15  C   UNL     1       1.928   7.692  20.887  0.00  0.00    +0.000 C 
BRANCH  15  16
ATOM     16  N   UNL     1       1.957   6.433  20.164  0.00  0.00    +0.000 N 
ATOM     17  N   UNL     1       1.271   5.360  20.659  0.00  0.00    +0.000 NA
ATOM     18  C   UNL     1       1.736   4.283  19.969  0.00  0.00    +0.000 A 
ATOM     19  C   UNL     1       2.672   4.706  19.018  0.00  0.00    +0.000 A 
ATOM     20  C   UNL     1       2.772   6.058  19.151  0.00  0.00    +0.000 A 
ATOM     21  C   UNL     1       3.719   6.689  18.216  0.00  0.00    +0.000 C 
ATOM     22  C   UNL     1       3.945   5.495  17.212  0.00  0.00    +0.000 C 
ATOM     23  C   UNL     1       3.542   4.177  17.956  0.00  0.00    +0.000 C 
BRANCH  18  24
ATOM     24  C   UNL     1       1.280   2.865  20.176  0.00  0.00    +0.000 C 
ATOM     25  F   UNL     1       0.260   2.493  19.362  0.00  0.00    +0.000 F 
ATOM     26  F   UNL     1       2.300   1.989  19.948  0.00  0.00    +0.000 F 
ATOM     27  F   UNL     1       0.864   2.644  21.455  0.00  0.00    +0.000 F 
ENDBRANCH  18  24
ENDBRANCH  15  16
ENDBRANCH   2  15
TORSDOF 6
ENDMDL
MODEL 7
REMARK VINA RESULT:      -7.2      3.108      4.853
REMARK  Name = 
REMARK  7 active torsions:
REMARK  status: ('A' for Active; 'I' for Inactive)
REMARK    1  A    between atoms: C_1  and  O_2
REMARK    2  A    between atoms: O_2  and  C_3
REMARK    3  A    between atoms: C_3  and  C_5
REMARK    4  A    between atoms: C_10  and  N_11
REMARK    5  A    between atoms: C_12  and  C_14
REMARK    6  A    between atoms: C_14  and  N_15
REMARK    7  A    between atoms: C_17  and  C_18
REMARK                            x       y       z     vdW  Elec       q    Type
REMARK                         _______ _______ _______ _____ _____    ______ ____
ROOT
ATOM      1  N   UNL     1       1.480   9.109  19.588  0.00  0.00    +0.000 N 
ATOM      2  C   UNL     1       2.044   7.862  19.387  0.00  0.00    +0.000 C 
ATOM      3  O   UNL     1       1.990   6.933  20.197  0.00  0.00    +0.000 OA
ATOM      4  H   UNL     1       1.582   9.791  18.834  0.00  0.00    +0.000 HD
ENDROOT
BRANCH   1  10
ATOM      5  C   UNL     1      -0.275  10.531  20.601  0.00  0.00    +0.000 A 
ATOM      6  C   UNL     1      -1.010  10.966  21.725  0.00  0.00    +0.000 A 
ATOM      7  C   UNL     1      -0.749  10.449  22.989  0.00  0.00    +0.000 A 
ATOM      8  C   UNL     1       0.245   9.492  23.133  0.00  0.00    +0.000 A 
ATOM      9  C   UNL     1       0.991   9.066  22.024  0.00  0.00    +0.000 A 
ATOM     10  C   UNL     1       0.752   9.567  20.733  0.00  0.00    +0.000 A 
BRANCH   5  11
ATOM     11  C   UNL     1      -0.734  11.079  19.303  0.00  0.00    +0.000 C 
ATOM     12  O   UNL     1      -1.830  10.822  18.822  0.00  0.00    +0.000 OA
BRANCH  11  14
ATOM     13  C   UNL     1      -0.245  13.220  18.483  0.00  0.00    +0.000 C 
ATOM     14  O   UNL     1       0.205  11.892  18.769  0.00  0.00    +0.000 OA
ENDBRANCH  11  14
ENDBRANCH   5  11
ENDBRANCH   1  10
BRANCH   2  15
ATOM     15  C   UNL     1       2.663   7.572  18.034  0.00  0.00    +0.000 C 
BRANCH  15  16
ATOM     16  N   UNL     1       3.477   6.376  17.916  0.00  0.00    +0.000 N 
ATOM     17  N   UNL     1       4.824   6.499  17.717  0.00  0.00    +0.000 NA
ATOM     18  C   UNL     1       5.248   5.263  17.334  0.00  0.00    +0.000 A 
ATOM     19  C   UNL     1       4.166   4.374  17.347  0.00  0.00    +0.000 A 
ATOM     20  C   UNL     1       3.079   5.096  17.735  0.00  0.00    +0.000 A 
ATOM     21  C   UNL     1       1.832   4.316  17.812  0.00  0.00    +0.000 C 
ATOM     22  C   UNL     1       2.420   2.856  17.732  0.00  0.00    +0.000 C 
ATOM     23  C   UNL     1       3.846   2.961  17.091  0.00  0.00    +0.000 C 
BRANCH  18  24
ATOM     24  C   UNL     1       6.668   4.908  16.991  0.00  0.00    +0.000 C 
ATOM     25  F   UNL     1       6.782   4.064  15.935  0.00  0.00    +0.000 F 
ATOM     26  F   UNL     1       7.385   6.024  16.678  0.00  0.00    +0.000 F 
ATOM     27  F   UNL     1       7.315   4.319  18.037  0.00  0.00    +0.000 F 
ENDBRANCH  18  24
ENDBRANCH  15  16
ENDBRANCH   2  15
TORSDOF 6
ENDMDL
MODEL 8
REMARK VINA RESULT:      -7.2      4.645      7.830
REMARK  Name = 
REMARK  7 active torsions:
REMARK  status: ('A' for Active; 'I' for Inactive)
REMARK    1  A    between atoms: C_1  and  O_2
REMARK    2  A    between atoms: O_2  and  C_3
REMARK    3  A    between atoms: C_3  and  C_5
REMARK    4  A    between atoms: C_10  and  N_11
REMARK    5  A    between atoms: C_12  and  C_14
REMARK    6  A    between atoms: C_14  and  N_15
REMARK    7  A    between atoms: C_17  and  C_18
REMARK                            x       y       z     vdW  Elec       q    Type
REMARK                         _______ _______ _______ _____ _____    ______ ____
ROOT
ATOM      1  N   UNL     1       2.685   6.446  19.862  0.00  0.00    +0.000 N 
ATOM      2  C   UNL     1       2.322   7.074  18.684  0.00  0.00    +0.000 C 
ATOM      3  O   UNL     1       1.891   6.489  17.687  0.00  0.00    +0.000 OA
ATOM      4  H   UNL     1       3.015   7.043  20.623  0.00  0.00    +0.000 HD
ENDROOT
BRANCH   1  10
ATOM      5  C   UNL     1       3.709   4.195  19.772  0.00  0.00    +0.000 A 
ATOM      6  C   UNL     1       3.684   2.817  20.082  0.00  0.00    +0.000 A 
ATOM      7  C   UNL     1       2.619   2.265  20.786  0.00  0.00    +0.000 A 
ATOM      8  C   UNL     1       1.576   3.090  21.184  0.00  0.00    +0.000 A 
ATOM      9  C   UNL     1       1.585   4.456  20.864  0.00  0.00    +0.000 A 
ATOM     10  C   UNL     1       2.646   5.045  20.157  0.00  0.00    +0.000 A 
BRANCH   5  11
ATOM     11  C   UNL     1       4.953   4.666  19.122  0.00  0.00    +0.000 C 
ATOM     12  O   UNL     1       5.668   5.536  19.603  0.00  0.00    +0.000 OA
BRANCH  11  14
ATOM     13  C   UNL     1       4.700   4.652  16.791  0.00  0.00    +0.000 C 
ATOM     14  O   UNL     1       5.175   3.995  17.969  0.00  0.00    +0.000 OA
ENDBRANCH  11  14
ENDBRANCH   5  11
ENDBRANCH   1  10
BRANCH   2  15
ATOM     15  C   UNL     1       2.335   8.589  18.654  0.00  0.00    +0.000 C 
BRANCH  15  16
ATOM     16  N   UNL     1       1.168   9.276  19.178  0.00  0.00    +0.000 N 
ATOM     17  N   UNL     1       0.411  10.045  18.340  0.00  0.00    +0.000 NA
ATOM     18  C   UNL     1      -0.387  10.790  19.154  0.00  0.00    +0.000 A 
ATOM     19  C   UNL     1      -0.150  10.438  20.488  0.00  0.00    +0.000 A 
ATOM     20  C   UNL     1       0.812   9.474  20.468  0.00  0.00    +0.000 A 
ATOM     21  C   UNL     1       1.191   8.971  21.799  0.00  0.00    +0.000 C 
ATOM     22  C   UNL     1       0.014   9.567  22.660  0.00  0.00    +0.000 C 
ATOM     23  C   UNL     1      -0.598  10.762  21.851  0.00  0.00    +0.000 C 
BRANCH  18  24
ATOM     24  C   UNL     1      -1.393  11.803  18.682  0.00  0.00    +0.000 C 
ATOM     25  F   UNL     1      -1.670  11.723  17.356  0.00  0.00    +0.000 F 
ATOM     26  F   UNL     1      -2.578  11.653  19.338  0.00  0.00    +0.000 F 
ATOM     27  F   UNL     1      -0.982  13.081  18.921  0.00  0.00    +0.000 F 
ENDBRANCH  18  24
ENDBRANCH  15  16
ENDBRANCH   2  15
TORSDOF 6
ENDMDL
MODEL 9
REMARK VINA RESULT:      -7.1      4.023      5.646
REMARK  Name = 
REMARK  7 active torsions:
REMARK  status: ('A' for Active; 'I' for Inactive)
REMARK    1  A    between atoms: C_1  and  O_2
REMARK    2  A    between atoms: O_2  and  C_3
REMARK    3  A    between atoms: C_3  and  C_5
REMARK    4  A    between atoms: C_10  and  N_11
REMARK    5  A    between atoms: C_12  and  C_14
REMARK    6  A    between atoms: C_14  and  N_15
REMARK    7  A    between atoms: C_17  and  C_18
REMARK                            x       y       z     vdW  Elec       q    Type
REMARK                         _______ _______ _______ _____ _____    ______ ____
ROOT
ATOM      1  N   UNL     1       0.980   9.078  19.187  0.00  0.00    +0.000 N 
ATOM      2  C   UNL     1       1.957   8.808  18.245  0.00  0.00    +0.000 C 
ATOM      3  O   UNL     1       2.043   9.370  17.150  0.00  0.00    +0.000 OA
ATOM      4  H   UNL     1       1.024   8.555  20.063  0.00  0.00    +0.000 HD
ENDROOT
BRANCH   1  10
ATOM      5  C   UNL     1      -0.266  11.027  20.067  0.00  0.00    +0.000 A 
ATOM      6  C   UNL     1      -1.311  11.971  19.960  0.00  0.00    +0.000 A 
ATOM      7  C   UNL     1      -2.191  11.939  18.883  0.00  0.00    +0.000 A 
ATOM      8  C   UNL     1      -2.027  10.965  17.909  0.00  0.00    +0.000 A 
ATOM      9  C   UNL     1      -1.002  10.014  18.016  0.00  0.00    +0.000 A 
ATOM     10  C   UNL     1      -0.095  10.019  19.089  0.00  0.00    +0.000 A 
BRANCH   5  11
ATOM     11  C   UNL     1       0.662  11.248  21.200  0.00  0.00    +0.000 C 
ATOM     12  O   UNL     1       1.106  10.336  21.886  0.00  0.00    +0.000 OA
BRANCH  11  14
ATOM     13  C   UNL     1       2.040  13.025  20.539  0.00  0.00    +0.000 C 
ATOM     14  O   UNL     1       0.947  12.563  21.336  0.00  0.00    +0.000 OA
ENDBRANCH  11  14
ENDBRANCH   5  11
ENDBRANCH   1  10
BRANCH   2  15
ATOM     15  C   UNL     1       3.069   7.851  18.629  0.00  0.00    +0.000 C 
BRANCH  15  16
ATOM     16  N   UNL     1       2.844   6.438  18.385  0.00  0.00    +0.000 N 
ATOM     17  N   UNL     1       1.883   5.779  19.099  0.00  0.00    +0.000 NA
ATOM     18  C   UNL     1       2.122   4.455  18.892  0.00  0.00    +0.000 A 
ATOM     19  C   UNL     1       3.200   4.307  18.011  0.00  0.00    +0.000 A 
ATOM     20  C   UNL     1       3.615   5.566  17.696  0.00  0.00    +0.000 A 
ATOM     21  C   UNL     1       4.754   5.610  16.763  0.00  0.00    +0.000 C 
ATOM     22  C   UNL     1       4.757   4.114  16.266  0.00  0.00    +0.000 C 
ATOM     23  C   UNL     1       3.992   3.266  17.339  0.00  0.00    +0.000 C 
BRANCH  18  24
ATOM     24  C   UNL     1       1.321   3.332  19.489  0.00  0.00    +0.000 C 
ATOM     25  F   UNL     1       2.077   2.376  20.086  0.00  0.00    +0.000 F 
ATOM     26  F   UNL     1       0.464   3.800  20.440  0.00  0.00    +0.000 F 
ATOM     27  F   UNL     1       0.551   2.700  18.558  0.00  0.00    +0.000 F 
ENDBRANCH  18  24
ENDBRANCH  15  16
ENDBRANCH   2  15
TORSDOF 6
ENDMDL
