MODEL 1
REMARK VINA RESULT:      -9.0      0.000      0.000
REMARK  Name = 
REMARK  6 active torsions:
REMARK  status: ('A' for Active; 'I' for Inactive)
REMARK    1  A    between atoms: C_1  and  S_2
REMARK    2  A    between atoms: S_2  and  C_5
REMARK    3  A    between atoms: C_8  and  C_9
REMARK    4  A    between atoms: C_13  and  N_14
REMARK    5  A    between atoms: N_14  and  C_15
REMARK    6  A    between atoms: C_20  and  C_21
REMARK                            x       y       z     vdW  Elec       q    Type
REMARK                         _______ _______ _______ _____ _____    ______ ____
ROOT
ATOM      1  C   UNL     1       2.173   7.297  19.213  0.00  0.00    +0.000 A 
ATOM      2  C   UNL     1       3.285   7.528  18.392  0.00  0.00    +0.000 A 
ATOM      3  C   UNL     1       3.845   6.507  17.625  0.00  0.00    +0.000 A 
ATOM      4  C   UNL     1       3.311   5.210  17.672  0.00  0.00    +0.000 A 
ATOM      5  C   UNL     1       3.915   4.102  17.041  0.00  0.00    +0.000 A 
ATOM      6  C   UNL     1       3.355   2.873  17.381  0.00  0.00    +0.000 A 
ATOM      7  N   UNL     1       2.023   2.806  17.654  0.00  0.00    +0.000 NA
ATOM      8  N   UNL     1       1.470   3.832  18.320  0.00  0.00    +0.000 NA
ATOM      9  C   UNL     1       2.131   4.991  18.410  0.00  0.00    +0.000 A 
ATOM     10  C   UNL     1       1.619   6.011  19.206  0.00  0.00    +0.000 A 
ENDROOT
BRANCH   1  14
ATOM     11  C   UNL     1       0.189  10.470  21.283  0.00  0.00    +0.000 A 
ATOM     12  C   UNL     1       0.585  10.639  19.960  0.00  0.00    +0.000 A 
ATOM     13  C   UNL     1       1.248   9.601  19.313  0.00  0.00    +0.000 A 
ATOM     14  C   UNL     1       1.534   8.389  19.972  0.00  0.00    +0.000 A 
ATOM     15  C   UNL     1       1.168   8.265  21.321  0.00  0.00    +0.000 A 
ATOM     16  C   UNL     1       0.496   9.303  21.981  0.00  0.00    +0.000 A 
BRANCH  11  18
ATOM     17  C   UNL     1      -1.966  12.135  20.816  0.00  0.00    +0.000 C 
ATOM     18  S   UNL     1      -0.749  11.756  22.058  0.00  0.00    +0.000 S 
ATOM     19  O   UNL     1       0.118  12.918  22.196  0.00  0.00    +0.000 OA
ATOM     20  O   UNL     1      -1.434  11.189  23.204  0.00  0.00    +0.000 OA
ENDBRANCH  11  18
ENDBRANCH   1  14
BRANCH   6  21
ATOM     21  C   UNL     1       4.065   2.163  18.554  0.00  0.00    +0.000 C 
ATOM     22  N   UNL     1       4.004   0.792  18.509  0.00  0.00    +0.000 N 
ATOM     23  O   UNL     1       4.536   2.751  19.512  0.00  0.00    +0.000 OA
ATOM     24  H   UNL     1       3.362   0.385  17.829  0.00  0.00    +0.000 HD
ATOM     25  H   UNL     1       4.075   0.305  19.391  0.00  0.00    +0.000 HD
ENDBRANCH   6  21
BRANCH   5  26
ATOM     26  N   UNL     1       4.744   4.342  15.910  0.00  0.00    +0.000 N 
ATOM     27  H   UNL     1       4.264   3.974  15.081  0.00  0.00    +0.000 HD
BRANCH  26  28
ATOM     28  C   UNL     1       6.156   3.910  15.906  0.00  0.00    +0.000 C 
ATOM     29  C   UNL     1       6.806   4.407  17.193  0.00  0.00    +0.000 C 
ATOM     30  C   UNL     1       7.247   5.820  16.852  0.00  0.00    +0.000 C 
ATOM     31  O   UNL     1       7.400   5.892  15.429  0.00  0.00    +0.000 OA
ATOM     32  C   UNL     1       7.015   4.625  14.867  0.00  0.00    +0.000 C 
ENDBRANCH  26  28
ENDBRANCH   5  26
TORSDOF 5
ENDMDL
MODEL 2
REMARK VINA RESULT:      -8.7      0.740      1.164
REMARK  Name = 
REMARK  6 active torsions:
REMARK  status: ('A' for Active; 'I' for Inactive)
REMARK    1  A    between atoms: C_1  and  S_2
REMARK    2  A    between atoms: S_2  and  C_5
REMARK    3  A    between atoms: C_8  and  C_9
REMARK    4  A    between atoms: C_13  and  N_14
REMARK    5  A    between atoms: N_14  and  C_15
REMARK    6  A    between atoms: C_20  and  C_21
REMARK                            x       y       z     vdW  Elec       q    Type
REMARK                         _______ _______ _______ _____ _____    ______ ____
ROOT
ATOM      1  C   UNL     1       2.115   7.501  19.192  0.00  0.00    +0.000 A 
ATOM      2  C   UNL     1       2.983   7.656  18.103  0.00  0.00    +0.000 A 
ATOM      3  C   UNL     1       3.583   6.555  17.492  0.00  0.00    +0.000 A 
ATOM      4  C   UNL     1       3.339   5.258  17.968  0.00  0.00    +0.000 A 
ATOM      5  C   UNL     1       4.024   4.118  17.495  0.00  0.00    +0.000 A 
ATOM      6  C   UNL     1       3.796   2.963  18.238  0.00  0.00    +0.000 A 
ATOM      7  N   UNL     1       2.580   2.781  18.823  0.00  0.00    +0.000 NA
ATOM      8  N   UNL     1       1.967   3.860  19.337  0.00  0.00    +0.000 NA
ATOM      9  C   UNL     1       2.387   5.082  18.992  0.00  0.00    +0.000 A 
ATOM     10  C   UNL     1       1.840   6.197  19.620  0.00  0.00    +0.000 A 
ENDROOT
BRANCH   1  14
ATOM     11  C   UNL     1       0.248  10.857  21.074  0.00  0.00    +0.000 A 
ATOM     12  C   UNL     1       0.540   9.714  21.812  0.00  0.00    +0.000 A 
ATOM     13  C   UNL     1       1.128   8.626  21.175  0.00  0.00    +0.000 A 
ATOM     14  C   UNL     1       1.424   8.655  19.798  0.00  0.00    +0.000 A 
ATOM     15  C   UNL     1       1.073   9.801  19.068  0.00  0.00    +0.000 A 
ATOM     16  C   UNL     1       0.484  10.904  19.700  0.00  0.00    +0.000 A 
BRANCH  11  18
ATOM     17  C   UNL     1      -1.772  12.733  20.887  0.00  0.00    +0.000 C 
ATOM     18  S   UNL     1      -0.398  12.271  21.921  0.00  0.00    +0.000 S 
ATOM     19  O   UNL     1       0.595  13.332  21.836  0.00  0.00    +0.000 OA
ATOM     20  O   UNL     1      -0.923  11.831  23.200  0.00  0.00    +0.000 OA
ENDBRANCH  11  18
ENDBRANCH   1  14
BRANCH   6  21
ATOM     21  C   UNL     1       4.842   2.714  19.347  0.00  0.00    +0.000 C 
ATOM     22  N   UNL     1       4.917   1.411  19.775  0.00  0.00    +0.000 N 
ATOM     23  O   UNL     1       5.466   3.604  19.896  0.00  0.00    +0.000 OA
ATOM     24  H   UNL     1       4.175   0.784  19.463  0.00  0.00    +0.000 HD
ATOM     25  H   UNL     1       5.252   1.261  20.715  0.00  0.00    +0.000 HD
ENDBRANCH   6  21
BRANCH   5  26
ATOM     26  N   UNL     1       4.560   4.156  16.178  0.00  0.00    +0.000 N 
ATOM     27  H   UNL     1       3.944   3.605  15.569  0.00  0.00    +0.000 HD
BRANCH  26  28
ATOM     28  C   UNL     1       5.969   3.792  15.928  0.00  0.00    +0.000 C 
ATOM     29  C   UNL     1       6.838   4.561  16.917  0.00  0.00    +0.000 C 
ATOM     30  C   UNL     1       7.070   5.896  16.231  0.00  0.00    +0.000 C 
ATOM     31  O   UNL     1       6.903   5.691  14.822  0.00  0.00    +0.000 OA
ATOM     32  C   UNL     1       6.516   4.323  14.606  0.00  0.00    +0.000 C 
ENDBRANCH  26  28
ENDBRANCH   5  26
TORSDOF 5
ENDMDL
MODEL 3
REMARK VINA RESULT:      -8.7      1.219      1.460
REMARK  Name = 
REMARK  6 active torsions:
REMARK  status: ('A' for Active; 'I' for Inactive)
REMARK    1  A    between atoms: C_1  and  S_2
REMARK    2  A    between atoms: S_2  and  C_5
REMARK    3  A    between atoms: C_8  and  C_9
REMARK    4  A    between atoms: C_13  and  N_14
REMARK    5  A    between atoms: N_14  and  C_15
REMARK    6  A    between atoms: C_20  and  C_21
REMARK                            x       y       z     vdW  Elec       q    Type
REMARK                         _______ _______ _______ _____ _____    ______ ____
ROOT
ATOM      1  C   UNL     1       1.866   7.762  19.861  0.00  0.00    +0.000 A 
ATOM      2  C   UNL     1       2.560   8.051  18.678  0.00  0.00    +0.000 A 
ATOM      3  C   UNL     1       3.176   7.045  17.934  0.00  0.00    +0.000 A 
ATOM      4  C   UNL     1       3.126   5.711  18.366  0.00  0.00    +0.000 A 
ATOM      5  C   UNL     1       3.848   4.668  17.747  0.00  0.00    +0.000 A 
ATOM      6  C   UNL     1       3.836   3.466  18.448  0.00  0.00    +0.000 A 
ATOM      7  N   UNL     1       2.734   3.135  19.176  0.00  0.00    +0.000 NA
ATOM      8  N   UNL     1       2.095   4.122  19.824  0.00  0.00    +0.000 NA
ATOM      9  C   UNL     1       2.343   5.395  19.495  0.00  0.00    +0.000 A 
ATOM     10  C   UNL     1       1.780   6.419  20.250  0.00  0.00    +0.000 A 
ENDROOT
BRANCH   1  14
ATOM     11  C   UNL     1      -0.322  10.812  21.909  0.00  0.00    +0.000 A 
ATOM     12  C   UNL     1       0.135  11.030  20.613  0.00  0.00    +0.000 A 
ATOM     13  C   UNL     1       0.863  10.032  19.974  0.00  0.00    +0.000 A 
ATOM     14  C   UNL     1       1.155   8.811  20.615  0.00  0.00    +0.000 A 
ATOM     15  C   UNL     1       0.726   8.639  21.939  0.00  0.00    +0.000 A 
ATOM     16  C   UNL     1      -0.012   9.637  22.591  0.00  0.00    +0.000 A 
BRANCH  11  18
ATOM     17  C   UNL     1      -2.163  12.770  21.265  0.00  0.00    +0.000 C 
ATOM     18  S   UNL     1      -1.339  12.047  22.667  0.00  0.00    +0.000 S 
ATOM     19  O   UNL     1      -0.460  13.060  23.234  0.00  0.00    +0.000 OA
ATOM     20  O   UNL     1      -2.335  11.375  23.481  0.00  0.00    +0.000 OA
ENDBRANCH  11  18
ENDBRANCH   1  14
BRANCH   6  21
ATOM     21  C   UNL     1       5.042   3.281  19.396  0.00  0.00    +0.000 C 
ATOM     22  N   UNL     1       4.972   2.165  20.193  0.00  0.00    +0.000 N 
ATOM     23  O   UNL     1       5.927   4.108  19.529  0.00  0.00    +0.000 OA
ATOM     24  H   UNL     1       4.077   1.676  20.218  0.00  0.00    +0.000 HD
ATOM     25  H   UNL     1       5.478   2.198  21.066  0.00  0.00    +0.000 HD
ENDBRANCH   6  21
BRANCH   5  26
ATOM     26  N   UNL     1       4.194   4.816  16.374  0.00  0.00    +0.000 N 
ATOM     27  H   UNL     1       4.394   3.884  15.996  0.00  0.00    +0.000 HD
BRANCH  26  28
ATOM     28  C   UNL     1       5.251   5.762  15.962  0.00  0.00    +0.000 C 
ATOM     29  C   UNL     1       5.808   5.293  14.623  0.00  0.00    +0.000 C 
ATOM     30  C   UNL     1       6.875   4.284  15.009  0.00  0.00    +0.000 C 
ATOM     31  O   UNL     1       7.298   4.594  16.343  0.00  0.00    +0.000 OA
ATOM     32  C   UNL     1       6.508   5.694  16.825  0.00  0.00    +0.000 C 
ENDBRANCH  26  28
ENDBRANCH   5  26
TORSDOF 5
ENDMDL
MODEL 4
REMARK VINA RESULT:      -8.7      1.064      1.124
REMARK  Name = 
REMARK  6 active torsions:
REMARK  status: ('A' for Active; 'I' for Inactive)
REMARK    1  A    between atoms: C_1  and  S_2
REMARK    2  A    between atoms: S_2  and  C_5
REMARK    3  A    between atoms: C_8  and  C_9
REMARK    4  A    between atoms: C_13  and  N_14
REMARK    5  A    between atoms: N_14  and  C_15
REMARK    6  A    between atoms: C_20  and  C_21
REMARK                            x       y       z     vdW  Elec       q    Type
REMARK                         _______ _______ _______ _____ _____    ______ ____
ROOT
ATOM      1  C   UNL     1       2.034   7.504  19.521  0.00  0.00    +0.000 A 
ATOM      2  C   UNL     1       2.829   7.679  18.380  0.00  0.00    +0.000 A 
ATOM      3  C   UNL     1       3.399   6.591  17.720  0.00  0.00    +0.000 A 
ATOM      4  C   UNL     1       3.199   5.287  18.196  0.00  0.00    +0.000 A 
ATOM      5  C   UNL     1       3.863   4.159  17.669  0.00  0.00    +0.000 A 
ATOM      6  C   UNL     1       3.695   2.994  18.412  0.00  0.00    +0.000 A 
ATOM      7  N   UNL     1       2.521   2.793  19.071  0.00  0.00    +0.000 NA
ATOM      8  N   UNL     1       1.932   3.860  19.636  0.00  0.00    +0.000 NA
ATOM      9  C   UNL     1       2.317   5.090  19.278  0.00  0.00    +0.000 A 
ATOM     10  C   UNL     1       1.800   6.192  19.952  0.00  0.00    +0.000 A 
ENDROOT
BRANCH   1  14
ATOM     11  C   UNL     1      -0.022  10.797  21.315  0.00  0.00    +0.000 A 
ATOM     12  C   UNL     1       0.316  10.835  19.966  0.00  0.00    +0.000 A 
ATOM     13  C   UNL     1       1.004   9.762  19.408  0.00  0.00    +0.000 A 
ATOM     14  C   UNL     1       1.372   8.644  20.183  0.00  0.00    +0.000 A 
ATOM     15  C   UNL     1       1.063   8.655  21.551  0.00  0.00    +0.000 A 
ATOM     16  C   UNL     1       0.367   9.729  22.122  0.00  0.00    +0.000 A 
BRANCH  11  18
ATOM     17  C   UNL     1       0.081  13.523  21.760  0.00  0.00    +0.000 C 
ATOM     18  S   UNL     1      -0.991  12.119  21.983  0.00  0.00    +0.000 S 
ATOM     19  O   UNL     1      -1.127  11.891  23.415  0.00  0.00    +0.000 OA
ATOM     20  O   UNL     1      -2.155  12.300  21.136  0.00  0.00    +0.000 OA
ENDBRANCH  11  18
ENDBRANCH   1  14
BRANCH   6  21
ATOM     21  C   UNL     1       4.812   2.744  19.448  0.00  0.00    +0.000 C 
ATOM     22  N   UNL     1       4.910   1.444  19.877  0.00  0.00    +0.000 N 
ATOM     23  O   UNL     1       5.478   3.634  19.949  0.00  0.00    +0.000 OA
ATOM     24  H   UNL     1       4.145   0.819  19.620  0.00  0.00    +0.000 HD
ATOM     25  H   UNL     1       5.307   1.296  20.793  0.00  0.00    +0.000 HD
ENDBRANCH   6  21
BRANCH   5  26
ATOM     26  N   UNL     1       4.312   4.216  16.320  0.00  0.00    +0.000 N 
ATOM     27  H   UNL     1       3.628   3.722  15.736  0.00  0.00    +0.000 HD
BRANCH  26  28
ATOM     28  C   UNL     1       5.680   3.786  15.963  0.00  0.00    +0.000 C 
ATOM     29  C   UNL     1       6.659   4.535  16.860  0.00  0.00    +0.000 C 
ATOM     30  C   UNL     1       6.890   5.845  16.128  0.00  0.00    +0.000 C 
ATOM     31  O   UNL     1       6.598   5.621  14.743  0.00  0.00    +0.000 OA
ATOM     32  C   UNL     1       6.137   4.268  14.590  0.00  0.00    +0.000 C 
ENDBRANCH  26  28
ENDBRANCH   5  26
TORSDOF 5
ENDMDL
MODEL 5
REMARK VINA RESULT:      -8.6      1.337      1.503
REMARK  Name = 
REMARK  6 active torsions:
REMARK  status: ('A' for Active; 'I' for Inactive)
REMARK    1  A    between atoms: C_1  and  S_2
REMARK    2  A    between atoms: S_2  and  C_5
REMARK    3  A    between atoms: C_8  and  C_9
REMARK    4  A    between atoms: C_13  and  N_14
REMARK    5  A    between atoms: N_14  and  C_15
REMARK    6  A    between atoms: C_20  and  C_21
REMARK                            x       y       z     vdW  Elec       q    Type
REMARK                         _______ _______ _______ _____ _____    ______ ____
ROOT
ATOM      1  C   UNL     1       1.475   7.474  20.297  0.00  0.00    +0.000 A 
ATOM      2  C   UNL     1       2.366   7.615  19.224  0.00  0.00    +0.000 A 
ATOM      3  C   UNL     1       2.897   6.503  18.571  0.00  0.00    +0.000 A 
ATOM      4  C   UNL     1       2.559   5.207  18.988  0.00  0.00    +0.000 A 
ATOM      5  C   UNL     1       3.170   4.044  18.473  0.00  0.00    +0.000 A 
ATOM      6  C   UNL     1       2.853   2.876  19.162  0.00  0.00    +0.000 A 
ATOM      7  N   UNL     1       1.620   2.754  19.726  0.00  0.00    +0.000 NA
ATOM      8  N   UNL     1       1.077   3.849  20.281  0.00  0.00    +0.000 NA
ATOM      9  C   UNL     1       1.584   5.053  19.994  0.00  0.00    +0.000 A 
ATOM     10  C   UNL     1       1.106   6.175  20.664  0.00  0.00    +0.000 A 
ENDROOT
BRANCH   1  14
ATOM     11  C   UNL     1      -0.458  10.857  22.059  0.00  0.00    +0.000 A 
ATOM     12  C   UNL     1      -0.176  10.844  20.697  0.00  0.00    +0.000 A 
ATOM     13  C   UNL     1       0.473   9.743  20.149  0.00  0.00    +0.000 A 
ATOM     14  C   UNL     1       0.858   8.646  20.945  0.00  0.00    +0.000 A 
ATOM     15  C   UNL     1       0.605   8.708  22.324  0.00  0.00    +0.000 A 
ATOM     16  C   UNL     1      -0.051   9.811  22.886  0.00  0.00    +0.000 A 
BRANCH  11  18
ATOM     17  C   UNL     1      -2.039  12.975  21.252  0.00  0.00    +0.000 C 
ATOM     18  S   UNL     1      -1.381  12.215  22.721  0.00  0.00    +0.000 S 
ATOM     19  O   UNL     1      -0.434  13.148  23.315  0.00  0.00    +0.000 OA
ATOM     20  O   UNL     1      -2.489  11.678  23.488  0.00  0.00    +0.000 OA
ENDBRANCH  11  18
ENDBRANCH   1  14
BRANCH   6  21
ATOM     21  C   UNL     1       3.865   2.508  20.269  0.00  0.00    +0.000 C 
ATOM     22  N   UNL     1       5.100   2.125  19.807  0.00  0.00    +0.000 N 
ATOM     23  O   UNL     1       3.574   2.435  21.450  0.00  0.00    +0.000 OA
ATOM     24  H   UNL     1       5.178   1.948  18.805  0.00  0.00    +0.000 HD
ATOM     25  H   UNL     1       5.639   1.514  20.403  0.00  0.00    +0.000 HD
ENDBRANCH   6  21
BRANCH   5  26
ATOM     26  N   UNL     1       3.724   4.101  17.164  0.00  0.00    +0.000 N 
ATOM     27  H   UNL     1       3.160   3.499  16.554  0.00  0.00    +0.000 HD
BRANCH  26  28
ATOM     28  C   UNL     1       5.160   3.836  16.942  0.00  0.00    +0.000 C 
ATOM     29  C   UNL     1       5.956   4.929  17.646  0.00  0.00    +0.000 C 
ATOM     30  C   UNL     1       6.014   6.049  16.623  0.00  0.00    +0.000 C 
ATOM     31  O   UNL     1       5.839   5.460  15.328  0.00  0.00    +0.000 OA
ATOM     32  C   UNL     1       5.610   4.051  15.500  0.00  0.00    +0.000 C 
ENDBRANCH  26  28
ENDBRANCH   5  26
TORSDOF 5
ENDMDL
MODEL 6
REMARK VINA RESULT:      -8.4      1.326      1.448
REMARK  Name = 
REMARK  6 active torsions:
REMARK  status: ('A' for Active; 'I' for Inactive)
REMARK    1  A    between atoms: C_1  and  S_2
REMARK    2  A    between atoms: S_2  and  C_5
REMARK    3  A    between atoms: C_8  and  C_9
REMARK    4  A    between atoms: C_13  and  N_14
REMARK    5  A    between atoms: N_14  and  C_15
REMARK    6  A    between atoms: C_20  and  C_21
REMARK                            x       y       z     vdW  Elec       q    Type
REMARK                         _______ _______ _______ _____ _____    ______ ____
ROOT
ATOM      1  C   UNL     1       1.693   7.624  19.937  0.00  0.00    +0.000 A 
ATOM      2  C   UNL     1       2.569   7.735  18.848  0.00  0.00    +0.000 A 
ATOM      3  C   UNL     1       3.082   6.604  18.213  0.00  0.00    +0.000 A 
ATOM      4  C   UNL     1       2.740   5.320  18.663  0.00  0.00    +0.000 A 
ATOM      5  C   UNL     1       3.334   4.141  18.165  0.00  0.00    +0.000 A 
ATOM      6  C   UNL     1       3.019   2.992  18.884  0.00  0.00    +0.000 A 
ATOM      7  N   UNL     1       1.794   2.891  19.469  0.00  0.00    +0.000 NA
ATOM      8  N   UNL     1       1.267   4.003  20.007  0.00  0.00    +0.000 NA
ATOM      9  C   UNL     1       1.779   5.196  19.686  0.00  0.00    +0.000 A 
ATOM     10  C   UNL     1       1.319   6.336  20.339  0.00  0.00    +0.000 A 
ENDROOT
BRANCH   1  14
ATOM     11  C   UNL     1      -0.177  11.073  21.639  0.00  0.00    +0.000 A 
ATOM     12  C   UNL     1       0.211  11.076  20.303  0.00  0.00    +0.000 A 
ATOM     13  C   UNL     1       0.837   9.951  19.776  0.00  0.00    +0.000 A 
ATOM     14  C   UNL     1       1.094   8.815  20.568  0.00  0.00    +0.000 A 
ATOM     15  C   UNL     1       0.737   8.858  21.925  0.00  0.00    +0.000 A 
ATOM     16  C   UNL     1       0.102   9.985  22.465  0.00  0.00    +0.000 A 
BRANCH  11  18
ATOM     17  C   UNL     1      -2.284  11.697  23.315  0.00  0.00    +0.000 C 
ATOM     18  S   UNL     1      -1.070  12.467  22.265  0.00  0.00    +0.000 S 
ATOM     19  O   UNL     1      -1.776  13.081  21.150  0.00  0.00    +0.000 OA
ATOM     20  O   UNL     1      -0.172  13.239  23.103  0.00  0.00    +0.000 OA
ENDBRANCH  11  18
ENDBRANCH   1  14
BRANCH   6  21
ATOM     21  C   UNL     1       4.045   2.640  19.984  0.00  0.00    +0.000 C 
ATOM     22  N   UNL     1       3.492   2.378  21.214  0.00  0.00    +0.000 N 
ATOM     23  O   UNL     1       5.251   2.706  19.826  0.00  0.00    +0.000 OA
ATOM     24  H   UNL     1       2.506   2.611  21.331  0.00  0.00    +0.000 HD
ATOM     25  H   UNL     1       4.079   2.540  22.019  0.00  0.00    +0.000 HD
ENDBRANCH   6  21
BRANCH   5  26
ATOM     26  N   UNL     1       3.869   4.165  16.846  0.00  0.00    +0.000 N 
ATOM     27  H   UNL     1       3.268   3.587  16.249  0.00  0.00    +0.000 HD
BRANCH  26  28
ATOM     28  C   UNL     1       5.287   3.831  16.604  0.00  0.00    +0.000 C 
ATOM     29  C   UNL     1       6.145   4.817  17.389  0.00  0.00    +0.000 C 
ATOM     30  C   UNL     1       6.275   6.006  16.454  0.00  0.00    +0.000 C 
ATOM     31  O   UNL     1       6.069   5.530  15.119  0.00  0.00    +0.000 OA
ATOM     32  C   UNL     1       5.754   4.128  15.182  0.00  0.00    +0.000 C 
ENDBRANCH  26  28
ENDBRANCH   5  26
TORSDOF 5
ENDMDL
MODEL 7
REMARK VINA RESULT:      -8.0      4.512     10.056
REMARK  Name = 
REMARK  6 active torsions:
REMARK  status: ('A' for Active; 'I' for Inactive)
REMARK    1  A    between atoms: C_1  and  S_2
REMARK    2  A    between atoms: S_2  and  C_5
REMARK    3  A    between atoms: C_8  and  C_9
REMARK    4  A    between atoms: C_13  and  N_14
REMARK    5  A    between atoms: N_14  and  C_15
REMARK    6  A    between atoms: C_20  and  C_21
REMARK                            x       y       z     vdW  Elec       q    Type
REMARK                         _______ _______ _______ _____ _____    ______ ____
ROOT
ATOM      1  C   UNL     1       1.307   8.415  20.336  0.00  0.00    +0.000 A 
ATOM      2  C   UNL     1       0.651   8.536  21.568  0.00  0.00    +0.000 A 
ATOM      3  C   UNL     1       0.022   9.723  21.942  0.00  0.00    +0.000 A 
ATOM      4  C   UNL     1       0.046  10.838  21.090  0.00  0.00    +0.000 A 
ATOM      5  C   UNL     1      -0.437  12.109  21.464  0.00  0.00    +0.000 A 
ATOM      6  C   UNL     1      -0.130  13.128  20.565  0.00  0.00    +0.000 A 
ATOM      7  N   UNL     1      -0.055  12.838  19.237  0.00  0.00    +0.000 NA
ATOM      8  N   UNL     1       0.475  11.656  18.886  0.00  0.00    +0.000 NA
ATOM      9  C   UNL     1       0.611  10.695  19.806  0.00  0.00    +0.000 A 
ATOM     10  C   UNL     1       1.275   9.518  19.475  0.00  0.00    +0.000 A 
ENDROOT
BRANCH   1  14
ATOM     11  C   UNL     1       3.227   4.808  19.076  0.00  0.00    +0.000 A 
ATOM     12  C   UNL     1       3.281   5.944  18.276  0.00  0.00    +0.000 A 
ATOM     13  C   UNL     1       2.631   7.101  18.696  0.00  0.00    +0.000 A 
ATOM     14  C   UNL     1       1.913   7.141  19.907  0.00  0.00    +0.000 A 
ATOM     15  C   UNL     1       1.833   5.965  20.669  0.00  0.00    +0.000 A 
ATOM     16  C   UNL     1       2.487   4.796  20.258  0.00  0.00    +0.000 A 
BRANCH  11  18
ATOM     17  C   UNL     1       2.876   2.145  18.425  0.00  0.00    +0.000 C 
ATOM     18  S   UNL     1       4.149   3.379  18.582  0.00  0.00    +0.000 S 
ATOM     19  O   UNL     1       5.003   2.994  19.697  0.00  0.00    +0.000 OA
ATOM     20  O   UNL     1       4.701   3.630  17.264  0.00  0.00    +0.000 OA
ENDBRANCH  11  18
ENDBRANCH   1  14
BRANCH   6  21
ATOM     21  C   UNL     1       1.166  13.895  20.906  0.00  0.00    +0.000 C 
ATOM     22  N   UNL     1       1.948  14.201  19.820  0.00  0.00    +0.000 N 
ATOM     23  O   UNL     1       1.542  14.109  22.046  0.00  0.00    +0.000 OA
ATOM     24  H   UNL     1       1.703  13.750  18.938  0.00  0.00    +0.000 HD
ATOM     25  H   UNL     1       2.936  14.321  19.991  0.00  0.00    +0.000 HD
ENDBRANCH   6  21
BRANCH   5  26
ATOM     26  N   UNL     1      -1.443  12.176  22.469  0.00  0.00    +0.000 N 
ATOM     27  H   UNL     1      -1.929  11.272  22.491  0.00  0.00    +0.000 HD
BRANCH  26  28
ATOM     28  C   UNL     1      -2.427  13.276  22.477  0.00  0.00    +0.000 C 
ATOM     29  C   UNL     1      -2.798  13.567  23.927  0.00  0.00    +0.000 C 
ATOM     30  C   UNL     1      -3.914  12.579  24.219  0.00  0.00    +0.000 C 
ATOM     31  O   UNL     1      -4.514  12.225  22.967  0.00  0.00    +0.000 OA
ATOM     32  C   UNL     1      -3.791  12.886  21.915  0.00  0.00    +0.000 C 
ENDBRANCH  26  28
ENDBRANCH   5  26
TORSDOF 5
ENDMDL
MODEL 8
REMARK VINA RESULT:      -8.0      1.257      1.337
REMARK  Name = 
REMARK  6 active torsions:
REMARK  status: ('A' for Active; 'I' for Inactive)
REMARK    1  A    between atoms: C_1  and  S_2
REMARK    2  A    between atoms: S_2  and  C_5
REMARK    3  A    between atoms: C_8  and  C_9
REMARK    4  A    between atoms: C_13  and  N_14
REMARK    5  A    between atoms: N_14  and  C_15
REMARK    6  A    between atoms: C_20  and  C_21
REMARK                            x       y       z     vdW  Elec       q    Type
REMARK                         _______ _______ _______ _____ _____    ______ ____
ROOT
ATOM      1  C   UNL     1       1.981   7.868  18.807  0.00  0.00    +0.000 A 
ATOM      2  C   UNL     1       3.092   7.985  17.960  0.00  0.00    +0.000 A 
ATOM      3  C   UNL     1       3.746   6.859  17.461  0.00  0.00    +0.000 A 
ATOM      4  C   UNL     1       3.311   5.572  17.811  0.00  0.00    +0.000 A 
ATOM      5  C   UNL     1       4.011   4.397  17.466  0.00  0.00    +0.000 A 
ATOM      6  C   UNL     1       3.537   3.243  18.084  0.00  0.00    +0.000 A 
ATOM      7  N   UNL     1       2.208   3.137  18.358  0.00  0.00    +0.000 NA
ATOM      8  N   UNL     1       1.563   4.245  18.759  0.00  0.00    +0.000 NA
ATOM      9  C   UNL     1       2.133   5.441  18.574  0.00  0.00    +0.000 A 
ATOM     10  C   UNL     1       1.526   6.577  19.103  0.00  0.00    +0.000 A 
ENDROOT
BRANCH   1  14
ATOM     11  C   UNL     1      -0.298  11.257  20.072  0.00  0.00    +0.000 A 
ATOM     12  C   UNL     1      -0.033  11.058  18.721  0.00  0.00    +0.000 A 
ATOM     13  C   UNL     1       0.729   9.960  18.334  0.00  0.00    +0.000 A 
ATOM     14  C   UNL     1       1.244   9.053  19.281  0.00  0.00    +0.000 A 
ATOM     15  C   UNL     1       1.003   9.307  20.640  0.00  0.00    +0.000 A 
ATOM     16  C   UNL     1       0.234  10.408  21.041  0.00  0.00    +0.000 A 
BRANCH  11  18
ATOM     17  C   UNL     1      -0.384  14.019  20.102  0.00  0.00    +0.000 C 
ATOM     18  S   UNL     1      -1.358  12.596  20.540  0.00  0.00    +0.000 S 
ATOM     19  O   UNL     1      -1.486  12.576  21.990  0.00  0.00    +0.000 OA
ATOM     20  O   UNL     1      -2.528  12.567  19.681  0.00  0.00    +0.000 OA
ENDBRANCH  11  18
ENDBRANCH   1  14
BRANCH   6  21
ATOM     21  C   UNL     1       4.271   2.888  19.396  0.00  0.00    +0.000 C 
ATOM     22  N   UNL     1       3.479   2.295  20.348  0.00  0.00    +0.000 N 
ATOM     23  O   UNL     1       5.421   3.213  19.634  0.00  0.00    +0.000 OA
ATOM     24  H   UNL     1       2.473   2.307  20.178  0.00  0.00    +0.000 HD
ATOM     25  H   UNL     1       3.762   2.408  21.310  0.00  0.00    +0.000 HD
ENDBRANCH   6  21
BRANCH   5  26
ATOM     26  N   UNL     1       4.847   4.428  16.314  0.00  0.00    +0.000 N 
ATOM     27  H   UNL     1       4.398   3.868  15.581  0.00  0.00    +0.000 HD
BRANCH  26  28
ATOM     28  C   UNL     1       6.277   4.074  16.412  0.00  0.00    +0.000 C 
ATOM     29  C   UNL     1       6.888   4.887  17.548  0.00  0.00    +0.000 C 
ATOM     30  C   UNL     1       7.268   6.201  16.888  0.00  0.00    +0.000 C 
ATOM     31  O   UNL     1       7.434   5.947  15.487  0.00  0.00    +0.000 OA
ATOM     32  C   UNL     1       7.115   4.568  15.236  0.00  0.00    +0.000 C 
ENDBRANCH  26  28
ENDBRANCH   5  26
TORSDOF 5
ENDMDL
MODEL 9
REMARK VINA RESULT:      -7.9      1.406      1.693
REMARK  Name = 
REMARK  6 active torsions:
REMARK  status: ('A' for Active; 'I' for Inactive)
REMARK    1  A    between atoms: C_1  and  S_2
REMARK    2  A    between atoms: S_2  and  C_5
REMARK    3  A    between atoms: C_8  and  C_9
REMARK    4  A    between atoms: C_13  and  N_14
REMARK    5  A    between atoms: N_14  and  C_15
REMARK    6  A    between atoms: C_20  and  C_21
REMARK                            x       y       z     vdW  Elec       q    Type
REMARK                         _______ _______ _______ _____ _____    ______ ____
ROOT
ATOM      1  C   UNL     1       1.841   7.837  19.646  0.00  0.00    +0.000 A 
ATOM      2  C   UNL     1       2.588   8.030  18.476  0.00  0.00    +0.000 A 
ATOM      3  C   UNL     1       3.196   6.961  17.819  0.00  0.00    +0.000 A 
ATOM      4  C   UNL     1       3.084   5.658  18.329  0.00  0.00    +0.000 A 
ATOM      5  C   UNL     1       3.792   4.557  17.803  0.00  0.00    +0.000 A 
ATOM      6  C   UNL     1       3.713   3.401  18.575  0.00  0.00    +0.000 A 
ATOM      7  N   UNL     1       2.574   3.152  19.277  0.00  0.00    +0.000 NA
ATOM      8  N   UNL     1       1.945   4.197  19.839  0.00  0.00    +0.000 NA
ATOM      9  C   UNL     1       2.249   5.438  19.443  0.00  0.00    +0.000 A 
ATOM     10  C   UNL     1       1.694   6.525  20.111  0.00  0.00    +0.000 A 
ENDROOT
BRANCH   1  14
ATOM     11  C   UNL     1      -0.313  11.080  21.415  0.00  0.00    +0.000 A 
ATOM     12  C   UNL     1       0.222  11.211  20.138  0.00  0.00    +0.000 A 
ATOM     13  C   UNL     1       0.938  10.151  19.591  0.00  0.00    +0.000 A 
ATOM     14  C   UNL     1       1.139   8.954  20.306  0.00  0.00    +0.000 A 
ATOM     15  C   UNL     1       0.631   8.869  21.611  0.00  0.00    +0.000 A 
ATOM     16  C   UNL     1      -0.095   9.929  22.171  0.00  0.00    +0.000 A 
BRANCH  11  18
ATOM     17  C   UNL     1      -2.179  11.595  23.387  0.00  0.00    +0.000 C 
ATOM     18  S   UNL     1      -1.312  12.395  22.054  0.00  0.00    +0.000 S 
ATOM     19  O   UNL     1      -2.293  12.744  21.036  0.00  0.00    +0.000 OA
ATOM     20  O   UNL     1      -0.431  13.396  22.624  0.00  0.00    +0.000 OA
ENDBRANCH  11  18
ENDBRANCH   1  14
BRANCH   6  21
ATOM     21  C   UNL     1       4.875   3.236  19.578  0.00  0.00    +0.000 C 
ATOM     22  N   UNL     1       4.723   2.194  20.458  0.00  0.00    +0.000 N 
ATOM     23  O   UNL     1       5.796   4.029  19.678  0.00  0.00    +0.000 OA
ATOM     24  H   UNL     1       3.804   1.752  20.489  0.00  0.00    +0.000 HD
ATOM     25  H   UNL     1       5.200   2.274  21.344  0.00  0.00    +0.000 HD
ENDBRANCH   6  21
BRANCH   5  26
ATOM     26  N   UNL     1       4.194   4.609  16.439  0.00  0.00    +0.000 N 
ATOM     27  H   UNL     1       4.205   3.649  16.075  0.00  0.00    +0.000 HD
BRANCH  26  28
ATOM     28  C   UNL     1       5.434   5.308  16.045  0.00  0.00    +0.000 C 
ATOM     29  C   UNL     1       5.500   5.332  14.522  0.00  0.00    +0.000 C 
ATOM     30  C   UNL     1       6.147   4.005  14.168  0.00  0.00    +0.000 C 
ATOM     31  O   UNL     1       6.904   3.577  15.307  0.00  0.00    +0.000 OA
ATOM     32  C   UNL     1       6.707   4.530  16.365  0.00  0.00    +0.000 C 
ENDBRANCH  26  28
ENDBRANCH   5  26
TORSDOF 5
ENDMDL
