MODEL 1
REMARK VINA RESULT:      -6.4      0.000      0.000
REMARK  Name = 
REMARK  5 active torsions:
REMARK  status: ('A' for Active; 'I' for Inactive)
REMARK    1  A    between atoms: C_1  and  O_2
REMARK    2  A    between atoms: O_2  and  C_3
REMARK    3  A    between atoms: N_5  and  S_6
REMARK    4  A    between atoms: S_6  and  C_9
REMARK    5  A    between atoms: C_12  and  N_13
REMARK                            x       y       z     vdW  Elec       q    Type
REMARK                         _______ _______ _______ _____ _____    ______ ____
ROOT
ATOM      1  S   UNL     1       4.441   3.860  19.134  0.00  0.00    +0.000 S 
ATOM      2  O   UNL     1       3.988   5.082  19.763  0.00  0.00    +0.000 OA
ATOM      3  O   UNL     1       5.224   2.887  19.866  0.00  0.00    +0.000 OA
ENDROOT
BRANCH   1   4
ATOM      4  C   UNL     1       5.360   4.273  17.672  0.00  0.00    +0.000 A 
ATOM      5  C   UNL     1       4.751   4.228  16.418  0.00  0.00    +0.000 A 
ATOM      6  C   UNL     1       5.498   4.554  15.281  0.00  0.00    +0.000 A 
ATOM      7  C   UNL     1       6.855   4.881  15.384  0.00  0.00    +0.000 A 
ATOM      8  C   UNL     1       7.430   4.979  16.655  0.00  0.00    +0.000 A 
ATOM      9  C   UNL     1       6.696   4.661  17.799  0.00  0.00    +0.000 A 
BRANCH   7  10
ATOM     10  N   UNL     1       7.557   5.329  14.261  0.00  0.00    +0.000 N 
ATOM     11  H   UNL     1       6.978   5.488  13.442  0.00  0.00    +0.000 HD
ATOM     12  H   UNL     1       8.388   4.786  14.047  0.00  0.00    +0.000 HD
ENDBRANCH   7  10
ENDBRANCH   1   4
BRANCH   1  15
ATOM     13  C   UNL     1       2.187   2.357  19.240  0.00  0.00    +0.000 C 
ATOM     14  N   UNL     1       1.242   1.797  18.579  0.00  0.00    +0.000 NA
ATOM     15  N   UNL     1       3.133   3.053  18.521  0.00  0.00    +0.000 N 
ATOM     16  H   UNL     1       0.593   1.322  19.201  0.00  0.00    +0.000 HD
ATOM     17  H   UNL     1       3.022   3.094  17.515  0.00  0.00    +0.000 HD
BRANCH  13  19
ATOM     18  C   UNL     1       1.299   2.885  21.418  0.00  0.00    +0.000 C 
ATOM     19  O   UNL     1       2.323   2.352  20.577  0.00  0.00    +0.000 OA
ENDBRANCH  13  19
ENDBRANCH   1  15
TORSDOF 4
ENDMDL
MODEL 2
REMARK VINA RESULT:      -6.4      2.607      5.984
REMARK  Name = 
REMARK  5 active torsions:
REMARK  status: ('A' for Active; 'I' for Inactive)
REMARK    1  A    between atoms: C_1  and  O_2
REMARK    2  A    between atoms: O_2  and  C_3
REMARK    3  A    between atoms: N_5  and  S_6
REMARK    4  A    between atoms: S_6  and  C_9
REMARK    5  A    between atoms: C_12  and  N_13
REMARK                            x       y       z     vdW  Elec       q    Type
REMARK                         _______ _______ _______ _____ _____    ______ ____
ROOT
ATOM      1  S   UNL     1       4.402   4.745  17.638  0.00  0.00    +0.000 S 
ATOM      2  O   UNL     1       4.329   6.189  17.651  0.00  0.00    +0.000 OA
ATOM      3  O   UNL     1       3.987   3.984  16.478  0.00  0.00    +0.000 OA
ENDROOT
BRANCH   1   4
ATOM      4  C   UNL     1       3.493   4.110  19.026  0.00  0.00    +0.000 A 
ATOM      5  C   UNL     1       2.285   4.694  19.406  0.00  0.00    +0.000 A 
ATOM      6  C   UNL     1       1.590   4.178  20.504  0.00  0.00    +0.000 A 
ATOM      7  C   UNL     1       2.113   3.115  21.249  0.00  0.00    +0.000 A 
ATOM      8  C   UNL     1       3.295   2.506  20.815  0.00  0.00    +0.000 A 
ATOM      9  C   UNL     1       3.997   3.007  19.718  0.00  0.00    +0.000 A 
BRANCH   7  10
ATOM     10  N   UNL     1       1.353   2.525  22.263  0.00  0.00    +0.000 N 
ATOM     11  H   UNL     1       1.898   2.010  22.948  0.00  0.00    +0.000 HD
ATOM     12  H   UNL     1       0.554   1.995  21.929  0.00  0.00    +0.000 HD
ENDBRANCH   7  10
ENDBRANCH   1   4
BRANCH   1  15
ATOM     13  C   UNL     1       7.080   4.578  17.248  0.00  0.00    +0.000 C 
ATOM     14  N   UNL     1       8.198   4.126  17.682  0.00  0.00    +0.000 NA
ATOM     15  N   UNL     1       5.953   4.280  17.981  0.00  0.00    +0.000 N 
ATOM     16  H   UNL     1       8.965   4.411  17.078  0.00  0.00    +0.000 HD
ATOM     17  H   UNL     1       6.071   3.733  18.826  0.00  0.00    +0.000 HD
BRANCH  13  19
ATOM     18  C   UNL     1       7.012   4.783  14.847  0.00  0.00    +0.000 C 
ATOM     19  O   UNL     1       6.910   5.344  16.157  0.00  0.00    +0.000 OA
ENDBRANCH  13  19
ENDBRANCH   1  15
TORSDOF 4
ENDMDL
MODEL 3
REMARK VINA RESULT:      -6.4      0.232      1.253
REMARK  Name = 
REMARK  5 active torsions:
REMARK  status: ('A' for Active; 'I' for Inactive)
REMARK    1  A    between atoms: C_1  and  O_2
REMARK    2  A    between atoms: O_2  and  C_3
REMARK    3  A    between atoms: N_5  and  S_6
REMARK    4  A    between atoms: S_6  and  C_9
REMARK    5  A    between atoms: C_12  and  N_13
REMARK                            x       y       z     vdW  Elec       q    Type
REMARK                         _______ _______ _______ _____ _____    ______ ____
ROOT
ATOM      1  S   UNL     1       4.310   3.853  19.158  0.00  0.00    +0.000 S 
ATOM      2  O   UNL     1       3.895   5.049  19.858  0.00  0.00    +0.000 OA
ATOM      3  O   UNL     1       5.030   2.798  19.840  0.00  0.00    +0.000 OA
ENDROOT
BRANCH   1   4
ATOM      4  C   UNL     1       5.284   4.320  17.749  0.00  0.00    +0.000 A 
ATOM      5  C   UNL     1       6.516   4.952  17.919  0.00  0.00    +0.000 A 
ATOM      6  C   UNL     1       7.263   5.312  16.793  0.00  0.00    +0.000 A 
ATOM      7  C   UNL     1       6.769   5.086  15.503  0.00  0.00    +0.000 A 
ATOM      8  C   UNL     1       5.561   4.397  15.354  0.00  0.00    +0.000 A 
ATOM      9  C   UNL     1       4.807   4.027  16.469  0.00  0.00    +0.000 A 
BRANCH   7  10
ATOM     10  N   UNL     1       7.576   5.332  14.387  0.00  0.00    +0.000 N 
ATOM     11  H   UNL     1       8.557   5.103  14.524  0.00  0.00    +0.000 HD
ATOM     12  H   UNL     1       7.448   6.251  13.976  0.00  0.00    +0.000 HD
ENDBRANCH   7  10
ENDBRANCH   1   4
BRANCH   1  15
ATOM     13  C   UNL     1       2.012   2.414  19.103  0.00  0.00    +0.000 C 
ATOM     14  N   UNL     1       1.057   1.951  18.386  0.00  0.00    +0.000 NA
ATOM     15  N   UNL     1       2.984   3.150  18.462  0.00  0.00    +0.000 N 
ATOM     16  H   UNL     1       0.390   1.436  18.955  0.00  0.00    +0.000 HD
ATOM     17  H   UNL     1       2.882   3.294  17.464  0.00  0.00    +0.000 HD
BRANCH  13  19
ATOM     18  C   UNL     1       1.277   2.976  21.329  0.00  0.00    +0.000 C 
ATOM     19  O   UNL     1       2.139   2.272  20.434  0.00  0.00    +0.000 OA
ENDBRANCH  13  19
ENDBRANCH   1  15
TORSDOF 4
ENDMDL
MODEL 4
REMARK VINA RESULT:      -6.4      2.591      6.054
REMARK  Name = 
REMARK  5 active torsions:
REMARK  status: ('A' for Active; 'I' for Inactive)
REMARK    1  A    between atoms: C_1  and  O_2
REMARK    2  A    between atoms: O_2  and  C_3
REMARK    3  A    between atoms: N_5  and  S_6
REMARK    4  A    between atoms: S_6  and  C_9
REMARK    5  A    between atoms: C_12  and  N_13
REMARK                            x       y       z     vdW  Elec       q    Type
REMARK                         _______ _______ _______ _____ _____    ______ ____
ROOT
ATOM      1  S   UNL     1       4.401   4.742  17.668  0.00  0.00    +0.000 S 
ATOM      2  O   UNL     1       4.332   6.186  17.727  0.00  0.00    +0.000 OA
ATOM      3  O   UNL     1       3.982   4.020  16.485  0.00  0.00    +0.000 OA
ENDROOT
BRANCH   1   4
ATOM      4  C   UNL     1       3.495   4.066  19.037  0.00  0.00    +0.000 A 
ATOM      5  C   UNL     1       3.982   2.956  19.727  0.00  0.00    +0.000 A 
ATOM      6  C   UNL     1       3.248   2.440  20.801  0.00  0.00    +0.000 A 
ATOM      7  C   UNL     1       2.015   2.997  21.159  0.00  0.00    +0.000 A 
ATOM      8  C   UNL     1       1.575   4.145  20.493  0.00  0.00    +0.000 A 
ATOM      9  C   UNL     1       2.299   4.674  19.423  0.00  0.00    +0.000 A 
BRANCH   7  10
ATOM     10  N   UNL     1       1.353   2.557  22.309  0.00  0.00    +0.000 N 
ATOM     11  H   UNL     1       0.990   3.305  22.894  0.00  0.00    +0.000 HD
ATOM     12  H   UNL     1       1.865   1.864  22.844  0.00  0.00    +0.000 HD
ENDBRANCH   7  10
ENDBRANCH   1   4
BRANCH   1  15
ATOM     13  C   UNL     1       7.078   4.577  17.261  0.00  0.00    +0.000 C 
ATOM     14  N   UNL     1       8.196   4.110  17.677  0.00  0.00    +0.000 NA
ATOM     15  N   UNL     1       5.953   4.264  17.991  0.00  0.00    +0.000 N 
ATOM     16  H   UNL     1       8.961   4.408  17.078  0.00  0.00    +0.000 HD
ATOM     17  H   UNL     1       6.073   3.695  18.821  0.00  0.00    +0.000 HD
BRANCH  13  19
ATOM     18  C   UNL     1       6.996   4.842  14.866  0.00  0.00    +0.000 C 
ATOM     19  O   UNL     1       6.905   5.371  16.191  0.00  0.00    +0.000 OA
ENDBRANCH  13  19
ENDBRANCH   1  15
TORSDOF 4
ENDMDL
MODEL 5
REMARK VINA RESULT:      -6.3      1.502      2.220
REMARK  Name = 
REMARK  5 active torsions:
REMARK  status: ('A' for Active; 'I' for Inactive)
REMARK    1  A    between atoms: C_1  and  O_2
REMARK    2  A    between atoms: O_2  and  C_3
REMARK    3  A    between atoms: N_5  and  S_6
REMARK    4  A    between atoms: S_6  and  C_9
REMARK    5  A    between atoms: C_12  and  N_13
REMARK                            x       y       z     vdW  Elec       q    Type
REMARK                         _______ _______ _______ _____ _____    ______ ____
ROOT
ATOM      1  S   UNL     1       4.180   3.358  18.912  0.00  0.00    +0.000 S 
ATOM      2  O   UNL     1       5.021   2.826  19.961  0.00  0.00    +0.000 OA
ATOM      3  O   UNL     1       3.174   2.538  18.269  0.00  0.00    +0.000 OA
ENDROOT
BRANCH   1   4
ATOM      4  C   UNL     1       5.212   4.017  17.625  0.00  0.00    +0.000 A 
ATOM      5  C   UNL     1       6.475   4.527  17.924  0.00  0.00    +0.000 A 
ATOM      6  C   UNL     1       7.267   5.042  16.893  0.00  0.00    +0.000 A 
ATOM      7  C   UNL     1       6.790   5.091  15.578  0.00  0.00    +0.000 A 
ATOM      8  C   UNL     1       5.547   4.519  15.291  0.00  0.00    +0.000 A 
ATOM      9  C   UNL     1       4.747   3.997  16.308  0.00  0.00    +0.000 A 
BRANCH   7  10
ATOM     10  N   UNL     1       7.636   5.488  14.538  0.00  0.00    +0.000 N 
ATOM     11  H   UNL     1       7.156   5.910  13.748  0.00  0.00    +0.000 HD
ATOM     12  H   UNL     1       8.302   4.779  14.250  0.00  0.00    +0.000 HD
ENDBRANCH   7  10
ENDBRANCH   1   4
BRANCH   1  15
ATOM     13  C   UNL     1       2.592   4.783  20.585  0.00  0.00    +0.000 C 
ATOM     14  N   UNL     1       2.081   5.926  20.861  0.00  0.00    +0.000 NA
ATOM     15  N   UNL     1       3.404   4.707  19.476  0.00  0.00    +0.000 N 
ATOM     16  H   UNL     1       1.511   5.877  21.702  0.00  0.00    +0.000 HD
ATOM     17  H   UNL     1       3.562   5.558  18.949  0.00  0.00    +0.000 HD
BRANCH  13  19
ATOM     18  C   UNL     1       1.227   2.893  21.199  0.00  0.00    +0.000 C 
ATOM     19  O   UNL     1       2.431   3.656  21.299  0.00  0.00    +0.000 OA
ENDBRANCH  13  19
ENDBRANCH   1  15
TORSDOF 4
ENDMDL
MODEL 6
REMARK VINA RESULT:      -6.2      3.123      5.765
REMARK  Name = 
REMARK  5 active torsions:
REMARK  status: ('A' for Active; 'I' for Inactive)
REMARK    1  A    between atoms: C_1  and  O_2
REMARK    2  A    between atoms: O_2  and  C_3
REMARK    3  A    between atoms: N_5  and  S_6
REMARK    4  A    between atoms: S_6  and  C_9
REMARK    5  A    between atoms: C_12  and  N_13
REMARK                            x       y       z     vdW  Elec       q    Type
REMARK                         _______ _______ _______ _____ _____    ______ ____
ROOT
ATOM      1  S   UNL     1       5.058   5.650  17.233  0.00  0.00    +0.000 S 
ATOM      2  O   UNL     1       4.515   6.988  17.307  0.00  0.00    +0.000 OA
ATOM      3  O   UNL     1       5.705   5.169  16.029  0.00  0.00    +0.000 OA
ENDROOT
BRANCH   1   4
ATOM      4  C   UNL     1       3.778   4.486  17.633  0.00  0.00    +0.000 A 
ATOM      5  C   UNL     1       4.050   3.119  17.665  0.00  0.00    +0.000 A 
ATOM      6  C   UNL     1       3.024   2.223  17.980  0.00  0.00    +0.000 A 
ATOM      7  C   UNL     1       1.722   2.679  18.220  0.00  0.00    +0.000 A 
ATOM      8  C   UNL     1       1.484   4.056  18.243  0.00  0.00    +0.000 A 
ATOM      9  C   UNL     1       2.500   4.963  17.935  0.00  0.00    +0.000 A 
BRANCH   7  10
ATOM     10  N   UNL     1       0.735   1.790  18.659  0.00  0.00    +0.000 N 
ATOM     11  H   UNL     1       0.092   1.489  17.932  0.00  0.00    +0.000 HD
ATOM     12  H   UNL     1       0.254   2.088  19.501  0.00  0.00    +0.000 HD
ENDBRANCH   7  10
ENDBRANCH   1   4
BRANCH   1  15
ATOM     13  C   UNL     1       7.391   5.997  18.571  0.00  0.00    +0.000 C 
ATOM     14  N   UNL     1       8.080   5.711  19.613  0.00  0.00    +0.000 NA
ATOM     15  N   UNL     1       6.138   5.437  18.469  0.00  0.00    +0.000 N 
ATOM     16  H   UNL     1       8.980   6.183  19.596  0.00  0.00    +0.000 HD
ATOM     17  H   UNL     1       5.826   4.842  19.227  0.00  0.00    +0.000 HD
BRANCH  13  19
ATOM     18  C   UNL     1       7.901   8.225  17.805  0.00  0.00    +0.000 C 
ATOM     19  O   UNL     1       7.770   6.821  17.578  0.00  0.00    +0.000 OA
ENDBRANCH  13  19
ENDBRANCH   1  15
TORSDOF 4
ENDMDL
MODEL 7
REMARK VINA RESULT:      -6.2      1.579      1.911
REMARK  Name = 
REMARK  5 active torsions:
REMARK  status: ('A' for Active; 'I' for Inactive)
REMARK    1  A    between atoms: C_1  and  O_2
REMARK    2  A    between atoms: O_2  and  C_3
REMARK    3  A    between atoms: N_5  and  S_6
REMARK    4  A    between atoms: S_6  and  C_9
REMARK    5  A    between atoms: C_12  and  N_13
REMARK                            x       y       z     vdW  Elec       q    Type
REMARK                         _______ _______ _______ _____ _____    ______ ____
ROOT
ATOM      1  S   UNL     1       4.053   3.400  18.879  0.00  0.00    +0.000 S 
ATOM      2  O   UNL     1       4.840   2.683  19.860  0.00  0.00    +0.000 OA
ATOM      3  O   UNL     1       2.932   2.771  18.213  0.00  0.00    +0.000 OA
ENDROOT
BRANCH   1   4
ATOM      4  C   UNL     1       5.135   4.011  17.610  0.00  0.00    +0.000 A 
ATOM      5  C   UNL     1       4.731   4.006  16.275  0.00  0.00    +0.000 A 
ATOM      6  C   UNL     1       5.602   4.490  15.294  0.00  0.00    +0.000 A 
ATOM      7  C   UNL     1       6.885   4.936  15.631  0.00  0.00    +0.000 A 
ATOM      8  C   UNL     1       7.247   4.989  16.981  0.00  0.00    +0.000 A 
ATOM      9  C   UNL     1       6.386   4.514  17.972  0.00  0.00    +0.000 A 
BRANCH   7  10
ATOM     10  N   UNL     1       7.698   5.535  14.664  0.00  0.00    +0.000 N 
ATOM     11  H   UNL     1       8.328   4.893  14.192  0.00  0.00    +0.000 HD
ATOM     12  H   UNL     1       8.171   6.376  14.981  0.00  0.00    +0.000 HD
ENDBRANCH   7  10
ENDBRANCH   1   4
BRANCH   1  15
ATOM     13  C   UNL     1       2.354   4.919  20.348  0.00  0.00    +0.000 C 
ATOM     14  N   UNL     1       2.074   6.089  20.789  0.00  0.00    +0.000 NA
ATOM     15  N   UNL     1       3.479   4.793  19.564  0.00  0.00    +0.000 N 
ATOM     16  H   UNL     1       1.236   6.071  21.365  0.00  0.00    +0.000 HD
ATOM     17  H   UNL     1       4.027   5.627  19.390  0.00  0.00    +0.000 HD
BRANCH  13  19
ATOM     18  C   UNL     1       1.872   3.074  21.823  0.00  0.00    +0.000 C 
ATOM     19  O   UNL     1       1.665   3.794  20.606  0.00  0.00    +0.000 OA
ENDBRANCH  13  19
ENDBRANCH   1  15
TORSDOF 4
ENDMDL
MODEL 8
REMARK VINA RESULT:      -6.2      3.123      5.735
REMARK  Name = 
REMARK  5 active torsions:
REMARK  status: ('A' for Active; 'I' for Inactive)
REMARK    1  A    between atoms: C_1  and  O_2
REMARK    2  A    between atoms: O_2  and  C_3
REMARK    3  A    between atoms: N_5  and  S_6
REMARK    4  A    between atoms: S_6  and  C_9
REMARK    5  A    between atoms: C_12  and  N_13
REMARK                            x       y       z     vdW  Elec       q    Type
REMARK                         _______ _______ _______ _____ _____    ______ ____
ROOT
ATOM      1  S   UNL     1       5.022   5.675  17.218  0.00  0.00    +0.000 S 
ATOM      2  O   UNL     1       4.496   7.021  17.282  0.00  0.00    +0.000 OA
ATOM      3  O   UNL     1       5.650   5.172  16.014  0.00  0.00    +0.000 OA
ENDROOT
BRANCH   1   4
ATOM      4  C   UNL     1       3.730   4.533  17.646  0.00  0.00    +0.000 A 
ATOM      5  C   UNL     1       2.452   4.996  17.954  0.00  0.00    +0.000 A 
ATOM      6  C   UNL     1       1.453   4.076  18.291  0.00  0.00    +0.000 A 
ATOM      7  C   UNL     1       1.734   2.707  18.364  0.00  0.00    +0.000 A 
ATOM      8  C   UNL     1       3.005   2.259  17.992  0.00  0.00    +0.000 A 
ATOM      9  C   UNL     1       4.011   3.165  17.649  0.00  0.00    +0.000 A 
BRANCH   7  10
ATOM     10  N   UNL     1       0.702   1.787  18.575  0.00  0.00    +0.000 N 
ATOM     11  H   UNL     1       0.992   0.815  18.523  0.00  0.00    +0.000 HD
ATOM     12  H   UNL     1      -0.135   1.970  18.030  0.00  0.00    +0.000 HD
ENDBRANCH   7  10
ENDBRANCH   1   4
BRANCH   1  15
ATOM     13  C   UNL     1       7.364   6.026  18.538  0.00  0.00    +0.000 C 
ATOM     14  N   UNL     1       8.061   5.740  19.575  0.00  0.00    +0.000 NA
ATOM     15  N   UNL     1       6.111   5.463  18.446  0.00  0.00    +0.000 N 
ATOM     16  H   UNL     1       8.961   6.214  19.552  0.00  0.00    +0.000 HD
ATOM     17  H   UNL     1       5.806   4.867  19.207  0.00  0.00    +0.000 HD
BRANCH  13  19
ATOM     18  C   UNL     1       7.900   8.250  17.778  0.00  0.00    +0.000 C 
ATOM     19  O   UNL     1       7.734   6.851  17.543  0.00  0.00    +0.000 OA
ENDBRANCH  13  19
ENDBRANCH   1  15
TORSDOF 4
ENDMDL
MODEL 9
REMARK VINA RESULT:      -6.1      1.116      1.277
REMARK  Name = 
REMARK  5 active torsions:
REMARK  status: ('A' for Active; 'I' for Inactive)
REMARK    1  A    between atoms: C_1  and  O_2
REMARK    2  A    between atoms: O_2  and  C_3
REMARK    3  A    between atoms: N_5  and  S_6
REMARK    4  A    between atoms: S_6  and  C_9
REMARK    5  A    between atoms: C_12  and  N_13
REMARK                            x       y       z     vdW  Elec       q    Type
REMARK                         _______ _______ _______ _____ _____    ______ ____
ROOT
ATOM      1  S   UNL     1       3.313   4.910  18.538  0.00  0.00    +0.000 S 
ATOM      2  O   UNL     1       2.295   5.871  18.174  0.00  0.00    +0.000 OA
ATOM      3  O   UNL     1       3.902   4.907  19.861  0.00  0.00    +0.000 OA
ENDROOT
BRANCH   1   4
ATOM      4  C   UNL     1       4.651   5.021  17.375  0.00  0.00    +0.000 A 
ATOM      5  C   UNL     1       4.713   4.154  16.285  0.00  0.00    +0.000 A 
ATOM      6  C   UNL     1       5.778   4.260  15.384  0.00  0.00    +0.000 A 
ATOM      7  C   UNL     1       6.800   5.193  15.590  0.00  0.00    +0.000 A 
ATOM      8  C   UNL     1       6.687   6.093  16.655  0.00  0.00    +0.000 A 
ATOM      9  C   UNL     1       5.627   6.002  17.559  0.00  0.00    +0.000 A 
BRANCH   7  10
ATOM     10  N   UNL     1       7.790   5.378  14.619  0.00  0.00    +0.000 N 
ATOM     11  H   UNL     1       7.455   5.797  13.757  0.00  0.00    +0.000 HD
ATOM     12  H   UNL     1       8.365   4.559  14.452  0.00  0.00    +0.000 HD
ENDBRANCH   7  10
ENDBRANCH   1   4
BRANCH   1  15
ATOM     13  C   UNL     1       1.772   2.730  19.014  0.00  0.00    +0.000 C 
ATOM     14  N   UNL     1       1.453   1.545  18.646  0.00  0.00    +0.000 NA
ATOM     15  N   UNL     1       2.732   3.383  18.274  0.00  0.00    +0.000 N 
ATOM     16  H   UNL     1       0.730   1.159  19.248  0.00  0.00    +0.000 HD
ATOM     17  H   UNL     1       3.123   2.896  17.476  0.00  0.00    +0.000 HD
BRANCH  13  19
ATOM     18  C   UNL     1       1.364   2.934  21.381  0.00  0.00    +0.000 C 
ATOM     19  O   UNL     1       1.231   3.409  20.040  0.00  0.00    +0.000 OA
ENDBRANCH  13  19
ENDBRANCH   1  15
TORSDOF 4
ENDMDL
