MODEL 1
REMARK VINA RESULT:      -7.6      0.000      0.000
REMARK  Name = 
REMARK  6 active torsions:
REMARK  status: ('A' for Active; 'I' for Inactive)
REMARK    1  A    between atoms: C_1  and  O_2
REMARK    2  A    between atoms: O_2  and  C_3
REMARK    3  A    between atoms: C_3  and  C_4
REMARK    4  A    between atoms: C_4  and  N_5
REMARK    5  A    between atoms: C_7  and  C_8
REMARK    6  A    between atoms: C_8  and  C_9
REMARK                            x       y       z     vdW  Elec       q    Type
REMARK                         _______ _______ _______ _____ _____    ______ ____
ROOT
ATOM      1  N   UNL     1       6.453   5.420  15.687  0.00  0.00    +0.000 N 
ATOM      2  C   UNL     1       5.158   6.041  15.798  0.00  0.00    +0.000 C 
ATOM      3  C   UNL     1       5.170   6.646  17.196  0.00  0.00    +0.000 C 
ATOM      4  C   UNL     1       6.094   5.699  17.983  0.00  0.00    +0.000 C 
ATOM      5  C   UNL     1       6.980   5.091  16.926  0.00  0.00    +0.000 C 
ATOM      6  O   UNL     1       7.959   4.396  17.150  0.00  0.00    +0.000 OA
ENDROOT
BRANCH   1   7
ATOM      7  C   UNL     1       6.988   4.913  14.429  0.00  0.00    +0.000 C 
BRANCH   7   8
ATOM      8  C   UNL     1       6.219   3.707  13.877  0.00  0.00    +0.000 C 
BRANCH   8  10
ATOM      9  C   UNL     1       5.123   3.230  11.849  0.00  0.00    +0.000 C 
ATOM     10  O   UNL     1       6.343   3.637  12.454  0.00  0.00    +0.000 OA
ENDBRANCH   8  10
ENDBRANCH   7   8
ENDBRANCH   1   7
BRANCH   3  11
ATOM     11  C   UNL     1       3.785   6.777  17.837  0.00  0.00    +0.000 C 
BRANCH  11  12
ATOM     12  C   UNL     1       3.135   5.524  18.395  0.00  0.00    +0.000 A 
ATOM     13  C   UNL     1       2.550   4.519  17.591  0.00  0.00    +0.000 A 
ATOM     14  C   UNL     1       1.943   3.390  18.164  0.00  0.00    +0.000 A 
ATOM     15  C   UNL     1       1.904   3.304  19.539  0.00  0.00    +0.000 A 
ATOM     16  C   UNL     1       2.438   4.288  20.332  0.00  0.00    +0.000 A 
ATOM     17  C   UNL     1       3.051   5.400  19.796  0.00  0.00    +0.000 A 
ATOM     18  O   UNL     1       2.284   4.031  21.659  0.00  0.00    +0.000 OA
ATOM     19  C   UNL     1       1.557   2.787  21.609  0.00  0.00    +0.000 C 
ATOM     20  O   UNL     1       1.358   2.295  20.267  0.00  0.00    +0.000 OA
ENDBRANCH  11  12
ENDBRANCH   3  11
TORSDOF 5
ENDMDL
MODEL 2
REMARK VINA RESULT:      -7.1      0.994      1.671
REMARK  Name = 
REMARK  6 active torsions:
REMARK  status: ('A' for Active; 'I' for Inactive)
REMARK    1  A    between atoms: C_1  and  O_2
REMARK    2  A    between atoms: O_2  and  C_3
REMARK    3  A    between atoms: C_3  and  C_4
REMARK    4  A    between atoms: C_4  and  N_5
REMARK    5  A    between atoms: C_7  and  C_8
REMARK    6  A    between atoms: C_8  and  C_9
REMARK                            x       y       z     vdW  Elec       q    Type
REMARK                         _______ _______ _______ _____ _____    ______ ____
ROOT
ATOM      1  N   UNL     1       6.425   5.414  16.057  0.00  0.00    +0.000 N 
ATOM      2  C   UNL     1       5.216   6.184  15.918  0.00  0.00    +0.000 C 
ATOM      3  C   UNL     1       5.083   6.888  17.262  0.00  0.00    +0.000 C 
ATOM      4  C   UNL     1       5.748   5.906  18.243  0.00  0.00    +0.000 C 
ATOM      5  C   UNL     1       6.706   5.123  17.383  0.00  0.00    +0.000 C 
ATOM      6  O   UNL     1       7.545   4.340  17.804  0.00  0.00    +0.000 OA
ENDROOT
BRANCH   1   7
ATOM      7  C   UNL     1       7.083   4.756  14.935  0.00  0.00    +0.000 C 
BRANCH   7   8
ATOM      8  C   UNL     1       6.213   3.696  14.250  0.00  0.00    +0.000 C 
BRANCH   8  10
ATOM      9  C   UNL     1       5.999   2.949  12.027  0.00  0.00    +0.000 C 
ATOM     10  O   UNL     1       5.931   4.071  12.899  0.00  0.00    +0.000 OA
ENDBRANCH   8  10
ENDBRANCH   7   8
ENDBRANCH   1   7
BRANCH   3  11
ATOM     11  C   UNL     1       3.642   7.223  17.658  0.00  0.00    +0.000 C 
BRANCH  11  12
ATOM     12  C   UNL     1       2.851   6.180  18.427  0.00  0.00    +0.000 A 
ATOM     13  C   UNL     1       2.552   6.281  19.805  0.00  0.00    +0.000 A 
ATOM     14  C   UNL     1       1.834   5.274  20.469  0.00  0.00    +0.000 A 
ATOM     15  C   UNL     1       1.455   4.164  19.746  0.00  0.00    +0.000 A 
ATOM     16  C   UNL     1       1.768   4.037  18.416  0.00  0.00    +0.000 A 
ATOM     17  C   UNL     1       2.461   5.016  17.736  0.00  0.00    +0.000 A 
ATOM     18  O   UNL     1       1.327   2.866  17.885  0.00  0.00    +0.000 OA
ATOM     19  C   UNL     1       0.731   2.251  19.045  0.00  0.00    +0.000 C 
ATOM     20  O   UNL     1       0.764   3.094  20.218  0.00  0.00    +0.000 OA
ENDBRANCH  11  12
ENDBRANCH   3  11
TORSDOF 5
ENDMDL
MODEL 3
REMARK VINA RESULT:      -6.9      1.013      1.280
REMARK  Name = 
REMARK  6 active torsions:
REMARK  status: ('A' for Active; 'I' for Inactive)
REMARK    1  A    between atoms: C_1  and  O_2
REMARK    2  A    between atoms: O_2  and  C_3
REMARK    3  A    between atoms: C_3  and  C_4
REMARK    4  A    between atoms: C_4  and  N_5
REMARK    5  A    between atoms: C_7  and  C_8
REMARK    6  A    between atoms: C_8  and  C_9
REMARK                            x       y       z     vdW  Elec       q    Type
REMARK                         _______ _______ _______ _____ _____    ______ ____
ROOT
ATOM      1  N   UNL     1       6.145   4.660  16.025  0.00  0.00    +0.000 N 
ATOM      2  C   UNL     1       4.842   5.252  16.186  0.00  0.00    +0.000 C 
ATOM      3  C   UNL     1       5.068   6.339  17.229  0.00  0.00    +0.000 C 
ATOM      4  C   UNL     1       6.219   5.776  18.081  0.00  0.00    +0.000 C 
ATOM      5  C   UNL     1       6.936   4.832  17.150  0.00  0.00    +0.000 C 
ATOM      6  O   UNL     1       8.005   4.291  17.390  0.00  0.00    +0.000 OA
ENDROOT
BRANCH   1   7
ATOM      7  C   UNL     1       6.469   3.727  14.952  0.00  0.00    +0.000 C 
BRANCH   7   8
ATOM      8  C   UNL     1       6.798   4.414  13.622  0.00  0.00    +0.000 C 
BRANCH   8  10
ATOM      9  C   UNL     1       8.504   5.756  12.711  0.00  0.00    +0.000 C 
ATOM     10  O   UNL     1       7.659   5.537  13.832  0.00  0.00    +0.000 OA
ENDBRANCH   8  10
ENDBRANCH   7   8
ENDBRANCH   1   7
BRANCH   3  11
ATOM     11  C   UNL     1       3.831   6.674  18.067  0.00  0.00    +0.000 C 
BRANCH  11  12
ATOM     12  C   UNL     1       3.006   5.525  18.615  0.00  0.00    +0.000 A 
ATOM     13  C   UNL     1       2.033   4.829  17.861  0.00  0.00    +0.000 A 
ATOM     14  C   UNL     1       1.283   3.785  18.426  0.00  0.00    +0.000 A 
ATOM     15  C   UNL     1       1.499   3.478  19.753  0.00  0.00    +0.000 A 
ATOM     16  C   UNL     1       2.415   4.168  20.506  0.00  0.00    +0.000 A 
ATOM     17  C   UNL     1       3.174   5.188  19.972  0.00  0.00    +0.000 A 
ATOM     18  O   UNL     1       2.468   3.732  21.793  0.00  0.00    +0.000 OA
ATOM     19  C   UNL     1       1.450   2.710  21.773  0.00  0.00    +0.000 C 
ATOM     20  O   UNL     1       0.868   2.510  20.467  0.00  0.00    +0.000 OA
ENDBRANCH  11  12
ENDBRANCH   3  11
TORSDOF 5
ENDMDL
MODEL 4
REMARK VINA RESULT:      -6.8      3.028      3.846
REMARK  Name = 
REMARK  6 active torsions:
REMARK  status: ('A' for Active; 'I' for Inactive)
REMARK    1  A    between atoms: C_1  and  O_2
REMARK    2  A    between atoms: O_2  and  C_3
REMARK    3  A    between atoms: C_3  and  C_4
REMARK    4  A    between atoms: C_4  and  N_5
REMARK    5  A    between atoms: C_7  and  C_8
REMARK    6  A    between atoms: C_8  and  C_9
REMARK                            x       y       z     vdW  Elec       q    Type
REMARK                         _______ _______ _______ _____ _____    ______ ____
ROOT
ATOM      1  N   UNL     1       6.191   5.199  16.586  0.00  0.00    +0.000 N 
ATOM      2  C   UNL     1       4.806   5.586  16.492  0.00  0.00    +0.000 C 
ATOM      3  C   UNL     1       4.515   6.206  17.853  0.00  0.00    +0.000 C 
ATOM      4  C   UNL     1       5.464   5.448  18.798  0.00  0.00    +0.000 C 
ATOM      5  C   UNL     1       6.583   4.988  17.899  0.00  0.00    +0.000 C 
ATOM      6  O   UNL     1       7.625   4.478  18.284  0.00  0.00    +0.000 OA
ENDROOT
BRANCH   1   7
ATOM      7  C   UNL     1       6.979   4.774  15.436  0.00  0.00    +0.000 C 
BRANCH   7   8
ATOM      8  C   UNL     1       6.210   3.867  14.468  0.00  0.00    +0.000 C 
BRANCH   8  10
ATOM      9  C   UNL     1       5.913   3.273  12.209  0.00  0.00    +0.000 C 
ATOM     10  O   UNL     1       6.613   4.113  13.118  0.00  0.00    +0.000 OA
ENDBRANCH   8  10
ENDBRANCH   7   8
ENDBRANCH   1   7
BRANCH   3  11
ATOM     11  C   UNL     1       3.051   6.103  18.291  0.00  0.00    +0.000 C 
BRANCH  11  12
ATOM     12  C   UNL     1       2.325   7.381  18.668  0.00  0.00    +0.000 A 
ATOM     13  C   UNL     1       2.057   8.429  17.758  0.00  0.00    +0.000 A 
ATOM     14  C   UNL     1       1.400   9.600  18.168  0.00  0.00    +0.000 A 
ATOM     15  C   UNL     1       1.051   9.714  19.496  0.00  0.00    +0.000 A 
ATOM     16  C   UNL     1       1.335   8.720  20.398  0.00  0.00    +0.000 A 
ATOM     17  C   UNL     1       1.968   7.555  20.020  0.00  0.00    +0.000 A 
ATOM     18  O   UNL     1       0.931   9.028  21.659  0.00  0.00    +0.000 OA
ATOM     19  C   UNL     1       0.391  10.349  21.454  0.00  0.00    +0.000 C 
ATOM     20  O   UNL     1       0.418  10.769  20.073  0.00  0.00    +0.000 OA
ENDBRANCH  11  12
ENDBRANCH   3  11
TORSDOF 5
ENDMDL
MODEL 5
REMARK VINA RESULT:      -6.8      1.004      1.060
REMARK  Name = 
REMARK  6 active torsions:
REMARK  status: ('A' for Active; 'I' for Inactive)
REMARK    1  A    between atoms: C_1  and  O_2
REMARK    2  A    between atoms: O_2  and  C_3
REMARK    3  A    between atoms: C_3  and  C_4
REMARK    4  A    between atoms: C_4  and  N_5
REMARK    5  A    between atoms: C_7  and  C_8
REMARK    6  A    between atoms: C_8  and  C_9
REMARK                            x       y       z     vdW  Elec       q    Type
REMARK                         _______ _______ _______ _____ _____    ______ ____
ROOT
ATOM      1  N   UNL     1       6.023   5.462  16.208  0.00  0.00    +0.000 N 
ATOM      2  C   UNL     1       4.636   5.366  16.587  0.00  0.00    +0.000 C 
ATOM      3  C   UNL     1       4.267   6.797  16.958  0.00  0.00    +0.000 C 
ATOM      4  C   UNL     1       5.592   7.381  17.478  0.00  0.00    +0.000 C 
ATOM      5  C   UNL     1       6.649   6.547  16.801  0.00  0.00    +0.000 C 
ATOM      6  O   UNL     1       7.848   6.784  16.825  0.00  0.00    +0.000 OA
ENDROOT
BRANCH   1   7
ATOM      7  C   UNL     1       6.745   4.380  15.550  0.00  0.00    +0.000 C 
BRANCH   7   8
ATOM      8  C   UNL     1       6.894   4.574  14.036  0.00  0.00    +0.000 C 
BRANCH   8  10
ATOM      9  C   UNL     1       6.552   3.453  11.995  0.00  0.00    +0.000 C 
ATOM     10  O   UNL     1       6.084   3.634  13.325  0.00  0.00    +0.000 OA
ENDBRANCH   8  10
ENDBRANCH   7   8
ENDBRANCH   1   7
BRANCH   3  11
ATOM     11  C   UNL     1       3.136   6.908  17.986  0.00  0.00    +0.000 C 
BRANCH  11  12
ATOM     12  C   UNL     1       2.566   5.626  18.563  0.00  0.00    +0.000 A 
ATOM     13  C   UNL     1       1.802   4.701  17.815  0.00  0.00    +0.000 A 
ATOM     14  C   UNL     1       1.281   3.540  18.407  0.00  0.00    +0.000 A 
ATOM     15  C   UNL     1       1.508   3.341  19.752  0.00  0.00    +0.000 A 
ATOM     16  C   UNL     1       2.219   4.247  20.498  0.00  0.00    +0.000 A 
ATOM     17  C   UNL     1       2.753   5.389  19.939  0.00  0.00    +0.000 A 
ATOM     18  O   UNL     1       2.318   3.885  21.805  0.00  0.00    +0.000 OA
ATOM     19  C   UNL     1       1.554   2.662  21.804  0.00  0.00    +0.000 C 
ATOM     20  O   UNL     1       1.081   2.286  20.493  0.00  0.00    +0.000 OA
ENDBRANCH  11  12
ENDBRANCH   3  11
TORSDOF 5
ENDMDL
MODEL 6
REMARK VINA RESULT:      -6.8      1.554      1.957
REMARK  Name = 
REMARK  6 active torsions:
REMARK  status: ('A' for Active; 'I' for Inactive)
REMARK    1  A    between atoms: C_1  and  O_2
REMARK    2  A    between atoms: O_2  and  C_3
REMARK    3  A    between atoms: C_3  and  C_4
REMARK    4  A    between atoms: C_4  and  N_5
REMARK    5  A    between atoms: C_7  and  C_8
REMARK    6  A    between atoms: C_8  and  C_9
REMARK                            x       y       z     vdW  Elec       q    Type
REMARK                         _______ _______ _______ _____ _____    ______ ____
ROOT
ATOM      1  N   UNL     1       6.165   4.198  14.178  0.00  0.00    +0.000 N 
ATOM      2  C   UNL     1       5.443   3.838  15.371  0.00  0.00    +0.000 C 
ATOM      3  C   UNL     1       5.534   5.089  16.236  0.00  0.00    +0.000 C 
ATOM      4  C   UNL     1       6.877   5.713  15.815  0.00  0.00    +0.000 C 
ATOM      5  C   UNL     1       7.096   5.197  14.416  0.00  0.00    +0.000 C 
ATOM      6  O   UNL     1       7.977   5.579  13.659  0.00  0.00    +0.000 OA
ENDROOT
BRANCH   1   7
ATOM      7  C   UNL     1       6.145   3.394  12.962  0.00  0.00    +0.000 C 
BRANCH   7   8
ATOM      8  C   UNL     1       4.895   3.615  12.102  0.00  0.00    +0.000 C 
BRANCH   8  10
ATOM      9  C   UNL     1       5.747   1.577  11.290  0.00  0.00    +0.000 C 
ATOM     10  O   UNL     1       4.650   2.481  11.266  0.00  0.00    +0.000 OA
ENDBRANCH   8  10
ENDBRANCH   7   8
ENDBRANCH   1   7
BRANCH   3  11
ATOM     11  C   UNL     1       5.464   4.819  17.742  0.00  0.00    +0.000 C 
BRANCH  11  12
ATOM     12  C   UNL     1       4.120   4.443  18.338  0.00  0.00    +0.000 A 
ATOM     13  C   UNL     1       2.879   4.857  17.801  0.00  0.00    +0.000 A 
ATOM     14  C   UNL     1       1.666   4.496  18.408  0.00  0.00    +0.000 A 
ATOM     15  C   UNL     1       1.718   3.750  19.566  0.00  0.00    +0.000 A 
ATOM     16  C   UNL     1       2.915   3.370  20.117  0.00  0.00    +0.000 A 
ATOM     17  C   UNL     1       4.121   3.700  19.536  0.00  0.00    +0.000 A 
ATOM     18  O   UNL     1       2.759   2.659  21.266  0.00  0.00    +0.000 OA
ATOM     19  C   UNL     1       1.323   2.667  21.395  0.00  0.00    +0.000 C 
ATOM     20  O   UNL     1       0.655   3.315  20.291  0.00  0.00    +0.000 OA
ENDBRANCH  11  12
ENDBRANCH   3  11
TORSDOF 5
ENDMDL
MODEL 7
REMARK VINA RESULT:      -6.7      2.165      6.503
REMARK  Name = 
REMARK  6 active torsions:
REMARK  status: ('A' for Active; 'I' for Inactive)
REMARK    1  A    between atoms: C_1  and  O_2
REMARK    2  A    between atoms: O_2  and  C_3
REMARK    3  A    between atoms: C_3  and  C_4
REMARK    4  A    between atoms: C_4  and  N_5
REMARK    5  A    between atoms: C_7  and  C_8
REMARK    6  A    between atoms: C_8  and  C_9
REMARK                            x       y       z     vdW  Elec       q    Type
REMARK                         _______ _______ _______ _____ _____    ______ ____
ROOT
ATOM      1  N   UNL     1       1.559   4.171  20.003  0.00  0.00    +0.000 N 
ATOM      2  C   UNL     1       2.391   5.344  20.081  0.00  0.00    +0.000 C 
ATOM      3  C   UNL     1       2.117   6.065  18.766  0.00  0.00    +0.000 C 
ATOM      4  C   UNL     1       1.787   4.917  17.796  0.00  0.00    +0.000 C 
ATOM      5  C   UNL     1       1.285   3.814  18.692  0.00  0.00    +0.000 C 
ATOM      6  O   UNL     1       0.772   2.775  18.303  0.00  0.00    +0.000 OA
ENDROOT
BRANCH   1   7
ATOM      7  C   UNL     1       1.310   3.294  21.142  0.00  0.00    +0.000 C 
BRANCH   7   8
ATOM      8  C   UNL     1       2.553   2.524  21.605  0.00  0.00    +0.000 C 
BRANCH   8  10
ATOM      9  C   UNL     1       4.517   2.283  20.330  0.00  0.00    +0.000 C 
ATOM     10  O   UNL     1       3.172   1.856  20.503  0.00  0.00    +0.000 OA
ENDBRANCH   8  10
ENDBRANCH   7   8
ENDBRANCH   1   7
BRANCH   3  11
ATOM     11  C   UNL     1       3.278   6.932  18.271  0.00  0.00    +0.000 C 
BRANCH  11  12
ATOM     12  C   UNL     1       4.521   6.234  17.751  0.00  0.00    +0.000 A 
ATOM     13  C   UNL     1       5.493   5.638  18.587  0.00  0.00    +0.000 A 
ATOM     14  C   UNL     1       6.636   5.024  18.051  0.00  0.00    +0.000 A 
ATOM     15  C   UNL     1       6.801   5.046  16.682  0.00  0.00    +0.000 A 
ATOM     16  C   UNL     1       5.883   5.650  15.861  0.00  0.00    +0.000 A 
ATOM     17  C   UNL     1       4.746   6.249  16.360  0.00  0.00    +0.000 A 
ATOM     18  O   UNL     1       6.232   5.584  14.549  0.00  0.00    +0.000 OA
ATOM     19  C   UNL     1       7.498   4.900  14.641  0.00  0.00    +0.000 C 
ATOM     20  O   UNL     1       7.839   4.510  15.989  0.00  0.00    +0.000 OA
ENDBRANCH  11  12
ENDBRANCH   3  11
TORSDOF 5
ENDMDL
MODEL 8
REMARK VINA RESULT:      -6.7      2.776      6.872
REMARK  Name = 
REMARK  6 active torsions:
REMARK  status: ('A' for Active; 'I' for Inactive)
REMARK    1  A    between atoms: C_1  and  O_2
REMARK    2  A    between atoms: O_2  and  C_3
REMARK    3  A    between atoms: C_3  and  C_4
REMARK    4  A    between atoms: C_4  and  N_5
REMARK    5  A    between atoms: C_7  and  C_8
REMARK    6  A    between atoms: C_8  and  C_9
REMARK                            x       y       z     vdW  Elec       q    Type
REMARK                         _______ _______ _______ _____ _____    ______ ____
ROOT
ATOM      1  N   UNL     1       1.975   4.128  18.948  0.00  0.00    +0.000 N 
ATOM      2  C   UNL     1       3.224   4.701  18.514  0.00  0.00    +0.000 C 
ATOM      3  C   UNL     1       3.337   4.256  17.062  0.00  0.00    +0.000 C 
ATOM      4  C   UNL     1       2.590   2.911  17.045  0.00  0.00    +0.000 C 
ATOM      5  C   UNL     1       1.630   3.012  18.203  0.00  0.00    +0.000 C 
ATOM      6  O   UNL     1       0.739   2.210  18.445  0.00  0.00    +0.000 OA
ENDROOT
BRANCH   1   7
ATOM      7  C   UNL     1       1.331   4.483  20.207  0.00  0.00    +0.000 C 
BRANCH   7   8
ATOM      8  C   UNL     1       2.293   4.514  21.400  0.00  0.00    +0.000 C 
BRANCH   8  10
ATOM      9  C   UNL     1       1.260   2.466  21.927  0.00  0.00    +0.000 C 
ATOM     10  O   UNL     1       2.476   3.201  21.935  0.00  0.00    +0.000 OA
ENDBRANCH   8  10
ENDBRANCH   7   8
ENDBRANCH   1   7
BRANCH   3  11
ATOM     11  C   UNL     1       4.776   4.130  16.552  0.00  0.00    +0.000 C 
BRANCH  11  12
ATOM     12  C   UNL     1       5.839   5.004  17.191  0.00  0.00    +0.000 A 
ATOM     13  C   UNL     1       6.679   4.576  18.244  0.00  0.00    +0.000 A 
ATOM     14  C   UNL     1       7.632   5.436  18.812  0.00  0.00    +0.000 A 
ATOM     15  C   UNL     1       7.705   6.727  18.333  0.00  0.00    +0.000 A 
ATOM     16  C   UNL     1       6.874   7.167  17.334  0.00  0.00    +0.000 A 
ATOM     17  C   UNL     1       5.938   6.339  16.750  0.00  0.00    +0.000 A 
ATOM     18  O   UNL     1       7.086   8.471  17.014  0.00  0.00    +0.000 OA
ATOM     19  C   UNL     1       8.124   8.814  17.956  0.00  0.00    +0.000 C 
ATOM     20  O   UNL     1       8.556   7.696  18.760  0.00  0.00    +0.000 OA
ENDBRANCH  11  12
ENDBRANCH   3  11
TORSDOF 5
ENDMDL
MODEL 9
REMARK VINA RESULT:      -6.4      2.603      6.715
REMARK  Name = 
REMARK  6 active torsions:
REMARK  status: ('A' for Active; 'I' for Inactive)
REMARK    1  A    between atoms: C_1  and  O_2
REMARK    2  A    between atoms: O_2  and  C_3
REMARK    3  A    between atoms: C_3  and  C_4
REMARK    4  A    between atoms: C_4  and  N_5
REMARK    5  A    between atoms: C_7  and  C_8
REMARK    6  A    between atoms: C_8  and  C_9
REMARK                            x       y       z     vdW  Elec       q    Type
REMARK                         _______ _______ _______ _____ _____    ______ ____
ROOT
ATOM      1  N   UNL     1       1.989   4.590  20.271  0.00  0.00    +0.000 N 
ATOM      2  C   UNL     1       2.535   4.623  18.938  0.00  0.00    +0.000 C 
ATOM      3  C   UNL     1       2.708   3.151  18.586  0.00  0.00    +0.000 C 
ATOM      4  C   UNL     1       2.971   2.489  19.950  0.00  0.00    +0.000 C 
ATOM      5  C   UNL     1       2.322   3.423  20.940  0.00  0.00    +0.000 C 
ATOM      6  O   UNL     1       2.170   3.185  22.129  0.00  0.00    +0.000 OA
ENDROOT
BRANCH   1   7
ATOM      7  C   UNL     1       1.438   5.765  20.935  0.00  0.00    +0.000 C 
BRANCH   7   8
ATOM      8  C   UNL     1       1.877   7.090  20.300  0.00  0.00    +0.000 C 
BRANCH   8  10
ATOM      9  C   UNL     1       0.949   9.251  20.188  0.00  0.00    +0.000 C 
ATOM     10  O   UNL     1       1.371   8.200  21.047  0.00  0.00    +0.000 OA
ENDBRANCH   8  10
ENDBRANCH   7   8
ENDBRANCH   1   7
BRANCH   3  11
ATOM     11  C   UNL     1       3.826   2.873  17.577  0.00  0.00    +0.000 C 
BRANCH  11  12
ATOM     12  C   UNL     1       4.796   3.995  17.258  0.00  0.00    +0.000 A 
ATOM     13  C   UNL     1       5.012   4.499  15.955  0.00  0.00    +0.000 A 
ATOM     14  C   UNL     1       5.939   5.525  15.715  0.00  0.00    +0.000 A 
ATOM     15  C   UNL     1       6.660   6.009  16.786  0.00  0.00    +0.000 A 
ATOM     16  C   UNL     1       6.486   5.506  18.050  0.00  0.00    +0.000 A 
ATOM     17  C   UNL     1       5.573   4.507  18.316  0.00  0.00    +0.000 A 
ATOM     18  O   UNL     1       7.301   6.096  18.965  0.00  0.00    +0.000 OA
ATOM     19  C   UNL     1       8.038   7.006  18.121  0.00  0.00    +0.000 C 
ATOM     20  O   UNL     1       7.599   6.991  16.746  0.00  0.00    +0.000 OA
ENDBRANCH  11  12
ENDBRANCH   3  11
TORSDOF 5
ENDMDL
