MODEL 1
REMARK VINA RESULT:      -6.6      0.000      0.000
REMARK  Name = 
REMARK  1 active torsions:
REMARK  status: ('A' for Active; 'I' for Inactive)
REMARK    1  A    between atoms: C_3  and  N_4
REMARK                            x       y       z     vdW  Elec       q    Type
REMARK                         _______ _______ _______ _____ _____    ______ ____
ROOT
ATOM      1  C   UNL     1       2.816   1.711  18.406  0.00  0.00    +0.000 A 
ATOM      2  C   UNL     1       3.758   2.486  17.746  0.00  0.00    +0.000 A 
ATOM      3  C   UNL     1       3.927   3.874  17.978  0.00  0.00    +0.000 A 
ATOM      4  C   UNL     1       3.053   4.450  18.950  0.00  0.00    +0.000 A 
ATOM      5  S   UNL     1       2.931   6.105  19.464  0.00  0.00    +0.000 S 
ATOM      6  C   UNL     1       1.690   5.785  20.576  0.00  0.00    +0.000 A 
ATOM      7  C   UNL     1       1.329   4.463  20.568  0.00  0.00    +0.000 A 
ATOM      8  C   UNL     1       2.091   3.681  19.633  0.00  0.00    +0.000 A 
ATOM      9  C   UNL     1       1.985   2.300  19.347  0.00  0.00    +0.000 A 
ENDROOT
BRANCH   3  10
ATOM     10  N   UNL     1       4.955   4.501  17.250  0.00  0.00    +0.000 N 
ATOM     11  C   UNL     1       5.195   4.186  15.833  0.00  0.00    +0.000 C 
ATOM     12  C   UNL     1       6.004   5.344  15.194  0.00  0.00    +0.000 C 
ATOM     13  N   UNL     1       7.278   5.630  15.890  0.00  0.00    +0.000 NA
ATOM     14  C   UNL     1       7.010   5.853  17.327  0.00  0.00    +0.000 C 
ATOM     15  C   UNL     1       6.219   4.700  17.990  0.00  0.00    +0.000 C 
ATOM     16  H   UNL     1       7.686   6.475  15.496  0.00  0.00    +0.000 HD
ENDBRANCH   3  10
TORSDOF 1
ENDMDL
MODEL 2
REMARK VINA RESULT:      -6.6      0.502      1.270
REMARK  Name = 
REMARK  1 active torsions:
REMARK  status: ('A' for Active; 'I' for Inactive)
REMARK    1  A    between atoms: C_3  and  N_4
REMARK                            x       y       z     vdW  Elec       q    Type
REMARK                         _______ _______ _______ _____ _____    ______ ____
ROOT
ATOM      1  C   UNL     1       2.596   1.656  18.294  0.00  0.00    +0.000 A 
ATOM      2  C   UNL     1       3.657   2.367  17.753  0.00  0.00    +0.000 A 
ATOM      3  C   UNL     1       3.936   3.719  18.076  0.00  0.00    +0.000 A 
ATOM      4  C   UNL     1       3.043   4.329  19.009  0.00  0.00    +0.000 A 
ATOM      5  S   UNL     1       3.036   5.961  19.605  0.00  0.00    +0.000 S 
ATOM      6  C   UNL     1       1.684   5.711  20.599  0.00  0.00    +0.000 A 
ATOM      7  C   UNL     1       1.201   4.432  20.488  0.00  0.00    +0.000 A 
ATOM      8  C   UNL     1       1.960   3.626  19.572  0.00  0.00    +0.000 A 
ATOM      9  C   UNL     1       1.749   2.278  19.201  0.00  0.00    +0.000 A 
ENDROOT
BRANCH   3  10
ATOM     10  N   UNL     1       5.075   4.276  17.466  0.00  0.00    +0.000 N 
ATOM     11  C   UNL     1       6.267   4.636  18.249  0.00  0.00    +0.000 C 
ATOM     12  C   UNL     1       7.483   4.733  17.292  0.00  0.00    +0.000 C 
ATOM     13  N   UNL     1       7.284   5.683  16.175  0.00  0.00    +0.000 NA
ATOM     14  C   UNL     1       6.031   5.346  15.466  0.00  0.00    +0.000 C 
ATOM     15  C   UNL     1       4.799   5.262  16.400  0.00  0.00    +0.000 C 
ATOM     16  H   UNL     1       8.063   5.597  15.527  0.00  0.00    +0.000 HD
ENDBRANCH   3  10
TORSDOF 1
ENDMDL
MODEL 3
REMARK VINA RESULT:      -6.6      1.504      2.822
REMARK  Name = 
REMARK  1 active torsions:
REMARK  status: ('A' for Active; 'I' for Inactive)
REMARK    1  A    between atoms: C_3  and  N_4
REMARK                            x       y       z     vdW  Elec       q    Type
REMARK                         _______ _______ _______ _____ _____    ______ ____
ROOT
ATOM      1  C   UNL     1       2.557   6.259  20.039  0.00  0.00    +0.000 A 
ATOM      2  C   UNL     1       3.700   5.992  19.298  0.00  0.00    +0.000 A 
ATOM      3  C   UNL     1       3.933   4.755  18.645  0.00  0.00    +0.000 A 
ATOM      4  C   UNL     1       2.907   3.773  18.794  0.00  0.00    +0.000 A 
ATOM      5  S   UNL     1       2.858   2.146  18.186  0.00  0.00    +0.000 S 
ATOM      6  C   UNL     1       1.329   1.826  18.849  0.00  0.00    +0.000 A 
ATOM      7  C   UNL     1       0.844   2.900  19.550  0.00  0.00    +0.000 A 
ATOM      8  C   UNL     1       1.739   4.024  19.540  0.00  0.00    +0.000 A 
ATOM      9  C   UNL     1       1.578   5.284  20.161  0.00  0.00    +0.000 A 
ENDROOT
BRANCH   3  10
ATOM     10  N   UNL     1       5.126   4.665  17.904  0.00  0.00    +0.000 N 
ATOM     11  C   UNL     1       6.370   5.297  18.371  0.00  0.00    +0.000 C 
ATOM     12  C   UNL     1       7.571   4.626  17.655  0.00  0.00    +0.000 C 
ATOM     13  N   UNL     1       7.481   4.673  16.179  0.00  0.00    +0.000 NA
ATOM     14  C   UNL     1       6.182   4.113  15.750  0.00  0.00    +0.000 C 
ATOM     15  C   UNL     1       4.967   4.781  16.439  0.00  0.00    +0.000 C 
ATOM     16  H   UNL     1       8.230   4.107  15.786  0.00  0.00    +0.000 HD
ENDBRANCH   3  10
TORSDOF 1
ENDMDL
MODEL 4
REMARK VINA RESULT:      -6.5      1.714      2.872
REMARK  Name = 
REMARK  1 active torsions:
REMARK  status: ('A' for Active; 'I' for Inactive)
REMARK    1  A    between atoms: C_3  and  N_4
REMARK                            x       y       z     vdW  Elec       q    Type
REMARK                         _______ _______ _______ _____ _____    ______ ____
ROOT
ATOM      1  C   UNL     1       2.260   7.044  19.664  0.00  0.00    +0.000 A 
ATOM      2  C   UNL     1       3.330   6.769  18.824  0.00  0.00    +0.000 A 
ATOM      3  C   UNL     1       3.977   5.508  18.775  0.00  0.00    +0.000 A 
ATOM      4  C   UNL     1       3.461   4.512  19.658  0.00  0.00    +0.000 A 
ATOM      5  S   UNL     1       4.015   2.884  19.910  0.00  0.00    +0.000 S 
ATOM      6  C   UNL     1       2.826   2.541  21.071  0.00  0.00    +0.000 A 
ATOM      7  C   UNL     1       2.021   3.625  21.310  0.00  0.00    +0.000 A 
ATOM      8  C   UNL     1       2.375   4.770  20.517  0.00  0.00    +0.000 A 
ATOM      9  C   UNL     1       1.781   6.053  20.507  0.00  0.00    +0.000 A 
ENDROOT
BRANCH   3  10
ATOM     10  N   UNL     1       5.020   5.387  17.838  0.00  0.00    +0.000 N 
ATOM     11  C   UNL     1       6.427   5.306  18.260  0.00  0.00    +0.000 C 
ATOM     12  C   UNL     1       7.260   4.687  17.109  0.00  0.00    +0.000 C 
ATOM     13  N   UNL     1       7.139   5.421  15.830  0.00  0.00    +0.000 NA
ATOM     14  C   UNL     1       5.710   5.563  15.481  0.00  0.00    +0.000 C 
ATOM     15  C   UNL     1       4.861   6.196  16.610  0.00  0.00    +0.000 C 
ATOM     16  H   UNL     1       7.606   4.888  15.099  0.00  0.00    +0.000 HD
ENDBRANCH   3  10
TORSDOF 1
ENDMDL
MODEL 5
REMARK VINA RESULT:      -6.5      1.685      2.596
REMARK  Name = 
REMARK  1 active torsions:
REMARK  status: ('A' for Active; 'I' for Inactive)
REMARK    1  A    between atoms: C_3  and  N_4
REMARK                            x       y       z     vdW  Elec       q    Type
REMARK                         _______ _______ _______ _____ _____    ______ ____
ROOT
ATOM      1  C   UNL     1       2.235   6.883  19.682  0.00  0.00    +0.000 A 
ATOM      2  C   UNL     1       3.339   6.544  18.912  0.00  0.00    +0.000 A 
ATOM      3  C   UNL     1       3.951   5.267  18.949  0.00  0.00    +0.000 A 
ATOM      4  C   UNL     1       3.361   4.322  19.843  0.00  0.00    +0.000 A 
ATOM      5  S   UNL     1       3.855   2.692  20.190  0.00  0.00    +0.000 S 
ATOM      6  C   UNL     1       2.597   2.429  21.299  0.00  0.00    +0.000 A 
ATOM      7  C   UNL     1       1.813   3.543  21.450  0.00  0.00    +0.000 A 
ATOM      8  C   UNL     1       2.241   4.644  20.632  0.00  0.00    +0.000 A 
ATOM      9  C   UNL     1       1.684   5.941  20.539  0.00  0.00    +0.000 A 
ENDROOT
BRANCH   3  10
ATOM     10  N   UNL     1       5.038   5.079  18.074  0.00  0.00    +0.000 N 
ATOM     11  C   UNL     1       4.985   4.094  16.983  0.00  0.00    +0.000 C 
ATOM     12  C   UNL     1       6.059   4.458  15.927  0.00  0.00    +0.000 C 
ATOM     13  N   UNL     1       7.428   4.551  16.482  0.00  0.00    +0.000 NA
ATOM     14  C   UNL     1       7.425   5.481  17.632  0.00  0.00    +0.000 C 
ATOM     15  C   UNL     1       6.372   5.125  18.709  0.00  0.00    +0.000 C 
ATOM     16  H   UNL     1       8.050   4.916  15.765  0.00  0.00    +0.000 HD
ENDBRANCH   3  10
TORSDOF 1
ENDMDL
MODEL 6
REMARK VINA RESULT:      -6.4      0.890      1.112
REMARK  Name = 
REMARK  1 active torsions:
REMARK  status: ('A' for Active; 'I' for Inactive)
REMARK    1  A    between atoms: C_3  and  N_4
REMARK                            x       y       z     vdW  Elec       q    Type
REMARK                         _______ _______ _______ _____ _____    ______ ____
ROOT
ATOM      1  C   UNL     1       2.552   2.007  17.756  0.00  0.00    +0.000 A 
ATOM      2  C   UNL     1       3.589   2.839  17.361  0.00  0.00    +0.000 A 
ATOM      3  C   UNL     1       3.819   4.119  17.927  0.00  0.00    +0.000 A 
ATOM      4  C   UNL     1       2.904   4.518  18.948  0.00  0.00    +0.000 A 
ATOM      5  S   UNL     1       2.839   6.013  19.830  0.00  0.00    +0.000 S 
ATOM      6  C   UNL     1       1.494   5.540  20.751  0.00  0.00    +0.000 A 
ATOM      7  C   UNL     1       1.057   4.287  20.405  0.00  0.00    +0.000 A 
ATOM      8  C   UNL     1       1.845   3.688  19.365  0.00  0.00    +0.000 A 
ATOM      9  C   UNL     1       1.683   2.423  18.753  0.00  0.00    +0.000 A 
ENDROOT
BRANCH   3  10
ATOM     10  N   UNL     1       4.939   4.816  17.438  0.00  0.00    +0.000 N 
ATOM     11  C   UNL     1       4.848   6.227  17.030  0.00  0.00    +0.000 C 
ATOM     12  C   UNL     1       6.271   6.841  17.030  0.00  0.00    +0.000 C 
ATOM     13  N   UNL     1       7.231   6.109  16.174  0.00  0.00    +0.000 NA
ATOM     14  C   UNL     1       7.231   4.680  16.550  0.00  0.00    +0.000 C 
ATOM     15  C   UNL     1       5.821   4.041  16.540  0.00  0.00    +0.000 C 
ATOM     16  H   UNL     1       8.163   6.490  16.324  0.00  0.00    +0.000 HD
ENDBRANCH   3  10
TORSDOF 1
ENDMDL
MODEL 7
REMARK VINA RESULT:      -6.3      1.397      2.503
REMARK  Name = 
REMARK  1 active torsions:
REMARK  status: ('A' for Active; 'I' for Inactive)
REMARK    1  A    between atoms: C_3  and  N_4
REMARK                            x       y       z     vdW  Elec       q    Type
REMARK                         _______ _______ _______ _____ _____    ______ ____
ROOT
ATOM      1  C   UNL     1       2.394   6.490  19.958  0.00  0.00    +0.000 A 
ATOM      2  C   UNL     1       3.499   6.285  19.143  0.00  0.00    +0.000 A 
ATOM      3  C   UNL     1       3.813   5.033  18.557  0.00  0.00    +0.000 A 
ATOM      4  C   UNL     1       2.912   3.966  18.858  0.00  0.00    +0.000 A 
ATOM      5  S   UNL     1       2.991   2.301  18.366  0.00  0.00    +0.000 S 
ATOM      6  C   UNL     1       1.561   1.878  19.176  0.00  0.00    +0.000 A 
ATOM      7  C   UNL     1       1.019   2.948  19.841  0.00  0.00    +0.000 A 
ATOM      8  C   UNL     1       1.785   4.152  19.680  0.00  0.00    +0.000 A 
ATOM      9  C   UNL     1       1.538   5.433  20.227  0.00  0.00    +0.000 A 
ENDROOT
BRANCH   3  10
ATOM     10  N   UNL     1       4.948   5.009  17.726  0.00  0.00    +0.000 N 
ATOM     11  C   UNL     1       4.852   4.636  16.306  0.00  0.00    +0.000 C 
ATOM     12  C   UNL     1       6.101   5.175  15.562  0.00  0.00    +0.000 C 
ATOM     13  N   UNL     1       7.381   4.711  16.141  0.00  0.00    +0.000 NA
ATOM     14  C   UNL     1       7.405   5.021  17.586  0.00  0.00    +0.000 C 
ATOM     15  C   UNL     1       6.176   4.476  18.353  0.00  0.00    +0.000 C 
ATOM     16  H   UNL     1       8.146   5.203  15.685  0.00  0.00    +0.000 HD
ENDBRANCH   3  10
TORSDOF 1
ENDMDL
MODEL 8
REMARK VINA RESULT:      -6.2      1.879      3.142
REMARK  Name = 
REMARK  1 active torsions:
REMARK  status: ('A' for Active; 'I' for Inactive)
REMARK    1  A    between atoms: C_3  and  N_4
REMARK                            x       y       z     vdW  Elec       q    Type
REMARK                         _______ _______ _______ _____ _____    ______ ____
ROOT
ATOM      1  C   UNL     1       2.758   8.129  17.945  0.00  0.00    +0.000 A 
ATOM      2  C   UNL     1       3.863   7.432  17.479  0.00  0.00    +0.000 A 
ATOM      3  C   UNL     1       4.260   6.171  17.990  0.00  0.00    +0.000 A 
ATOM      4  C   UNL     1       3.446   5.642  19.038  0.00  0.00    +0.000 A 
ATOM      5  S   UNL     1       3.642   4.165  19.932  0.00  0.00    +0.000 S 
ATOM      6  C   UNL     1       2.258   4.425  20.880  0.00  0.00    +0.000 A 
ATOM      7  C   UNL     1       1.647   5.614  20.572  0.00  0.00    +0.000 A 
ATOM      8  C   UNL     1       2.320   6.333  19.525  0.00  0.00    +0.000 A 
ATOM      9  C   UNL     1       1.986   7.586  18.962  0.00  0.00    +0.000 A 
ENDROOT
BRANCH   3  10
ATOM     10  N   UNL     1       5.383   5.583  17.377  0.00  0.00    +0.000 N 
ATOM     11  C   UNL     1       6.724   5.685  17.972  0.00  0.00    +0.000 C 
ATOM     12  C   UNL     1       7.618   4.563  17.384  0.00  0.00    +0.000 C 
ATOM     13  N   UNL     1       7.698   4.583  15.906  0.00  0.00    +0.000 NA
ATOM     14  C   UNL     1       6.331   4.571  15.344  0.00  0.00    +0.000 C 
ATOM     15  C   UNL     1       5.426   5.694  15.904  0.00  0.00    +0.000 C 
ATOM     16  H   UNL     1       8.192   3.751  15.592  0.00  0.00    +0.000 HD
ENDBRANCH   3  10
TORSDOF 1
ENDMDL
MODEL 9
REMARK VINA RESULT:      -6.2      1.249      1.868
REMARK  Name = 
REMARK  1 active torsions:
REMARK  status: ('A' for Active; 'I' for Inactive)
REMARK    1  A    between atoms: C_3  and  N_4
REMARK                            x       y       z     vdW  Elec       q    Type
REMARK                         _______ _______ _______ _____ _____    ______ ____
ROOT
ATOM      1  C   UNL     1       3.088   2.552  20.518  0.00  0.00    +0.000 A 
ATOM      2  C   UNL     1       4.053   2.824  19.559  0.00  0.00    +0.000 A 
ATOM      3  C   UNL     1       4.230   4.102  18.972  0.00  0.00    +0.000 A 
ATOM      4  C   UNL     1       3.340   5.121  19.428  0.00  0.00    +0.000 A 
ATOM      5  S   UNL     1       3.224   6.778  18.914  0.00  0.00    +0.000 S 
ATOM      6  C   UNL     1       1.954   7.136  19.982  0.00  0.00    +0.000 A 
ATOM      7  C   UNL     1       1.579   6.037  20.712  0.00  0.00    +0.000 A 
ATOM      8  C   UNL     1       2.355   4.868  20.401  0.00  0.00    +0.000 A 
ATOM      9  C   UNL     1       2.241   3.566  20.942  0.00  0.00    +0.000 A 
ENDROOT
BRANCH   3  10
ATOM     10  N   UNL     1       5.282   4.213  18.043  0.00  0.00    +0.000 N 
ATOM     11  C   UNL     1       6.470   5.034  18.323  0.00  0.00    +0.000 C 
ATOM     12  C   UNL     1       7.626   4.574  17.398  0.00  0.00    +0.000 C 
ATOM     13  N   UNL     1       7.285   4.617  15.959  0.00  0.00    +0.000 NA
ATOM     14  C   UNL     1       6.039   3.857  15.729  0.00  0.00    +0.000 C 
ATOM     15  C   UNL     1       4.865   4.313  16.629  0.00  0.00    +0.000 C 
ATOM     16  H   UNL     1       8.039   4.184  15.430  0.00  0.00    +0.000 HD
ENDBRANCH   3  10
TORSDOF 1
ENDMDL
