MODEL 1
REMARK VINA RESULT:      -8.4      0.000      0.000
REMARK  Name = 
REMARK  10 active torsions:
REMARK  status: ('A' for Active; 'I' for Inactive)
REMARK    1  A    between atoms: C_1  and  C_2
REMARK    2  A    between atoms: C_4  and  C_5
REMARK    3  A    between atoms: C_5  and  C_6
REMARK    4  A    between atoms: C_5  and  N_7
REMARK    5  A    between atoms: C_5  and  C_29
REMARK    6  A    between atoms: C_8  and  C_10
REMARK    7  A    between atoms: C_12  and  O_13
REMARK    8  A    between atoms: O_13  and  C_14
REMARK    9  A    between atoms: C_14  and  C_15
REMARK   10  A    between atoms: C_19  and  N_20
REMARK                            x       y       z     vdW  Elec       q    Type
REMARK                         _______ _______ _______ _____ _____    ______ ____
ROOT
ATOM      1  C   UNL     1       2.147   7.959  19.182  0.00  0.00    +0.000 A 
ATOM      2  C   UNL     1       2.474   6.784  19.842  0.00  0.00    +0.000 A 
ATOM      3  C   UNL     1       3.435   5.943  19.279  0.00  0.00    +0.000 A 
ATOM      4  C   UNL     1       4.063   6.269  18.053  0.00  0.00    +0.000 A 
ATOM      5  C   UNL     1       3.641   7.492  17.500  0.00  0.00    +0.000 A 
ATOM      6  N   UNL     1       2.709   8.343  18.013  0.00  0.00    +0.000 NA
ENDROOT
BRANCH   4   7
ATOM      7  N   UNL     1       5.038   5.489  17.458  0.00  0.00    +0.000 N 
ATOM      8  C   UNL     1       6.477   5.623  17.696  0.00  0.00    +0.000 C 
ATOM      9  C   UNL     1       7.089   4.448  16.940  0.00  0.00    +0.000 C 
ATOM     10  C   UNL     1       6.219   4.375  15.707  0.00  0.00    +0.000 C 
ATOM     11  F   UNL     1       6.289   3.161  15.126  0.00  0.00    +0.000 F 
ATOM     12  F   UNL     1       6.627   5.291  14.798  0.00  0.00    +0.000 F 
ATOM     13  C   UNL     1       4.819   4.700  16.226  0.00  0.00    +0.000 C 
ENDBRANCH   4   7
BRANCH   1  15
ATOM     14  N   UNL     1       0.943  10.086  19.173  0.00  0.00    +0.000 N 
ATOM     15  C   UNL     1       1.135   8.872  19.801  0.00  0.00    +0.000 C 
ATOM     16  O   UNL     1       0.543   8.519  20.817  0.00  0.00    +0.000 OA
ATOM     17  H   UNL     1       1.356  10.177  18.251  0.00  0.00    +0.000 HD
BRANCH  14  18
ATOM     18  C   UNL     1      -0.053  11.082  19.609  0.00  0.00    +0.000 C 
ATOM     19  C   UNL     1      -0.438  10.820  21.092  0.00  0.00    +0.000 C 
BRANCH  18  23
ATOM     20  C   UNL     1      -3.121  10.068  15.803  0.00  0.00    +0.000 C 
ATOM     21  C   UNL     1      -2.503  10.488  17.075  0.00  0.00    +0.000 A 
ATOM     22  N   UNL     1      -1.324  10.209  17.564  0.00  0.00    +0.000 NA
ATOM     23  C   UNL     1      -1.294  10.970  18.720  0.00  0.00    +0.000 A 
ATOM     24  N   UNL     1      -2.442  11.627  18.971  0.00  0.00    +0.000 NA
ATOM     25  O   UNL     1      -3.247  11.305  17.875  0.00  0.00    +0.000 OA
ENDBRANCH  18  23
BRANCH  18  26
ATOM     26  C   UNL     1       0.659  12.451  19.611  0.00  0.00    +0.000 C 
ATOM     27  C   UNL     1       1.876  12.789  18.780  0.00  0.00    +0.000 C 
ATOM     28  C   UNL     1       0.555  13.430  18.460  0.00  0.00    +0.000 C 
ENDBRANCH  18  26
ENDBRANCH  14  18
ENDBRANCH   1  15
BRANCH   3  29
ATOM     29  O   UNL     1       3.727   4.731  19.852  0.00  0.00    +0.000 OA
BRANCH  29  30
ATOM     30  C   UNL     1       2.731   3.703  19.791  0.00  0.00    +0.000 C 
BRANCH  30  31
ATOM     31  C   UNL     1       2.248   3.360  21.201  0.00  0.00    +0.000 C 
ATOM     32  F   UNL     1       2.398   4.388  22.069  0.00  0.00    +0.000 F 
ATOM     33  F   UNL     1       0.936   3.029  21.199  0.00  0.00    +0.000 F 
ATOM     34  F   UNL     1       2.931   2.307  21.704  0.00  0.00    +0.000 F 
ENDBRANCH  30  31
ENDBRANCH  29  30
ENDBRANCH   3  29
TORSDOF 8
ENDMDL
MODEL 2
REMARK VINA RESULT:      -8.3      0.718      1.184
REMARK  Name = 
REMARK  10 active torsions:
REMARK  status: ('A' for Active; 'I' for Inactive)
REMARK    1  A    between atoms: C_1  and  C_2
REMARK    2  A    between atoms: C_4  and  C_5
REMARK    3  A    between atoms: C_5  and  C_6
REMARK    4  A    between atoms: C_5  and  N_7
REMARK    5  A    between atoms: C_5  and  C_29
REMARK    6  A    between atoms: C_8  and  C_10
REMARK    7  A    between atoms: C_12  and  O_13
REMARK    8  A    between atoms: O_13  and  C_14
REMARK    9  A    between atoms: C_14  and  C_15
REMARK   10  A    between atoms: C_19  and  N_20
REMARK                            x       y       z     vdW  Elec       q    Type
REMARK                         _______ _______ _______ _____ _____    ______ ____
ROOT
ATOM      1  C   UNL     1       2.077   8.091  19.128  0.00  0.00    +0.000 A 
ATOM      2  C   UNL     1       2.362   6.917  19.808  0.00  0.00    +0.000 A 
ATOM      3  C   UNL     1       3.325   6.053  19.285  0.00  0.00    +0.000 A 
ATOM      4  C   UNL     1       3.998   6.356  18.077  0.00  0.00    +0.000 A 
ATOM      5  C   UNL     1       3.616   7.581  17.500  0.00  0.00    +0.000 A 
ATOM      6  N   UNL     1       2.684   8.453  17.974  0.00  0.00    +0.000 NA
ENDROOT
BRANCH   4   7
ATOM      7  N   UNL     1       4.978   5.554  17.522  0.00  0.00    +0.000 N 
ATOM      8  C   UNL     1       6.418   5.757  17.686  0.00  0.00    +0.000 C 
ATOM      9  C   UNL     1       7.044   4.533  17.023  0.00  0.00    +0.000 C 
ATOM     10  C   UNL     1       6.131   4.310  15.841  0.00  0.00    +0.000 C 
ATOM     11  F   UNL     1       6.224   3.047  15.378  0.00  0.00    +0.000 F 
ATOM     12  F   UNL     1       6.471   5.145  14.829  0.00  0.00    +0.000 F 
ATOM     13  C   UNL     1       4.741   4.639  16.382  0.00  0.00    +0.000 C 
ENDBRANCH   4   7
BRANCH   1  15
ATOM     14  N   UNL     1       0.746  10.132  18.939  0.00  0.00    +0.000 N 
ATOM     15  C   UNL     1       1.062   9.027  19.705  0.00  0.00    +0.000 C 
ATOM     16  O   UNL     1       0.576   8.789  20.806  0.00  0.00    +0.000 OA
ATOM     17  H   UNL     1       1.078  10.115  17.981  0.00  0.00    +0.000 HD
BRANCH  14  18
ATOM     18  C   UNL     1      -0.273  11.127  19.324  0.00  0.00    +0.000 C 
ATOM     19  C   UNL     1      -0.718  10.877  20.793  0.00  0.00    +0.000 C 
BRANCH  18  23
ATOM     20  C   UNL     1      -4.768  11.676  17.220  0.00  0.00    +0.000 C 
ATOM     21  C   UNL     1      -3.383  11.308  17.571  0.00  0.00    +0.000 A 
ATOM     22  N   UNL     1      -2.573  11.837  18.449  0.00  0.00    +0.000 NA
ATOM     23  C   UNL     1      -1.475  10.997  18.385  0.00  0.00    +0.000 A 
ATOM     24  N   UNL     1      -1.575  10.038  17.446  0.00  0.00    +0.000 NA
ATOM     25  O   UNL     1      -2.846  10.245  16.904  0.00  0.00    +0.000 OA
ENDBRANCH  18  23
BRANCH  18  26
ATOM     26  C   UNL     1       0.431  12.499  19.341  0.00  0.00    +0.000 C 
ATOM     27  C   UNL     1       1.847  12.734  19.819  0.00  0.00    +0.000 C 
ATOM     28  C   UNL     1       1.522  12.872  18.358  0.00  0.00    +0.000 C 
ENDBRANCH  18  26
ENDBRANCH  14  18
ENDBRANCH   1  15
BRANCH   3  29
ATOM     29  O   UNL     1       3.577   4.842  19.879  0.00  0.00    +0.000 OA
BRANCH  29  30
ATOM     30  C   UNL     1       2.692   3.755  19.584  0.00  0.00    +0.000 C 
BRANCH  30  31
ATOM     31  C   UNL     1       1.742   3.520  20.760  0.00  0.00    +0.000 C 
ATOM     32  F   UNL     1       1.470   2.209  20.957  0.00  0.00    +0.000 F 
ATOM     33  F   UNL     1       2.268   3.995  21.913  0.00  0.00    +0.000 F 
ATOM     34  F   UNL     1       0.562   4.150  20.562  0.00  0.00    +0.000 F 
ENDBRANCH  30  31
ENDBRANCH  29  30
ENDBRANCH   3  29
TORSDOF 8
ENDMDL
MODEL 3
REMARK VINA RESULT:      -8.3      1.154      1.357
REMARK  Name = 
REMARK  10 active torsions:
REMARK  status: ('A' for Active; 'I' for Inactive)
REMARK    1  A    between atoms: C_1  and  C_2
REMARK    2  A    between atoms: C_4  and  C_5
REMARK    3  A    between atoms: C_5  and  C_6
REMARK    4  A    between atoms: C_5  and  N_7
REMARK    5  A    between atoms: C_5  and  C_29
REMARK    6  A    between atoms: C_8  and  C_10
REMARK    7  A    between atoms: C_12  and  O_13
REMARK    8  A    between atoms: O_13  and  C_14
REMARK    9  A    between atoms: C_14  and  C_15
REMARK   10  A    between atoms: C_19  and  N_20
REMARK                            x       y       z     vdW  Elec       q    Type
REMARK                         _______ _______ _______ _____ _____    ______ ____
ROOT
ATOM      1  C   UNL     1       2.209   7.914  19.070  0.00  0.00    +0.000 A 
ATOM      2  C   UNL     1       2.418   6.658  19.618  0.00  0.00    +0.000 A 
ATOM      3  C   UNL     1       3.365   5.817  19.031  0.00  0.00    +0.000 A 
ATOM      4  C   UNL     1       4.097   6.226  17.891  0.00  0.00    +0.000 A 
ATOM      5  C   UNL     1       3.789   7.525  17.447  0.00  0.00    +0.000 A 
ATOM      6  N   UNL     1       2.875   8.379  17.987  0.00  0.00    +0.000 NA
ENDROOT
BRANCH   4   7
ATOM      7  N   UNL     1       5.063   5.449  17.279  0.00  0.00    +0.000 N 
ATOM      8  C   UNL     1       6.499   5.530  17.554  0.00  0.00    +0.000 C 
ATOM      9  C   UNL     1       7.096   4.376  16.753  0.00  0.00    +0.000 C 
ATOM     10  C   UNL     1       6.253   4.388  15.500  0.00  0.00    +0.000 C 
ATOM     11  F   UNL     1       6.303   3.203  14.861  0.00  0.00    +0.000 F 
ATOM     12  F   UNL     1       6.707   5.336  14.646  0.00  0.00    +0.000 F 
ATOM     13  C   UNL     1       4.851   4.728  16.004  0.00  0.00    +0.000 C 
ENDBRANCH   4   7
BRANCH   1  15
ATOM     14  N   UNL     1       0.961  10.015  19.067  0.00  0.00    +0.000 N 
ATOM     15  C   UNL     1       1.212   8.823  19.717  0.00  0.00    +0.000 C 
ATOM     16  O   UNL     1       0.683   8.488  20.772  0.00  0.00    +0.000 OA
ATOM     17  H   UNL     1       1.322  10.088  18.122  0.00  0.00    +0.000 HD
BRANCH  14  18
ATOM     18  C   UNL     1      -0.032  11.003  19.530  0.00  0.00    +0.000 C 
ATOM     19  C   UNL     1      -0.391  10.725  21.017  0.00  0.00    +0.000 C 
BRANCH  18  23
ATOM     20  C   UNL     1      -3.156  10.028  15.759  0.00  0.00    +0.000 C 
ATOM     21  C   UNL     1      -2.520  10.429  17.028  0.00  0.00    +0.000 A 
ATOM     22  N   UNL     1      -1.329  10.155  17.491  0.00  0.00    +0.000 NA
ATOM     23  C   UNL     1      -1.287  10.893  18.660  0.00  0.00    +0.000 A 
ATOM     24  N   UNL     1      -2.439  11.530  18.945  0.00  0.00    +0.000 NA
ATOM     25  O   UNL     1      -3.259  11.221  17.858  0.00  0.00    +0.000 OA
ENDBRANCH  18  23
BRANCH  18  26
ATOM     26  C   UNL     1       0.675  12.375  19.532  0.00  0.00    +0.000 C 
ATOM     27  C   UNL     1       1.761  12.785  18.564  0.00  0.00    +0.000 C 
ATOM     28  C   UNL     1       0.408  13.435  18.483  0.00  0.00    +0.000 C 
ENDBRANCH  18  26
ENDBRANCH  14  18
ENDBRANCH   1  15
BRANCH   3  29
ATOM     29  O   UNL     1       3.543   4.535  19.487  0.00  0.00    +0.000 OA
BRANCH  29  30
ATOM     30  C   UNL     1       2.376   3.733  19.703  0.00  0.00    +0.000 C 
BRANCH  30  31
ATOM     31  C   UNL     1       1.869   3.181  18.369  0.00  0.00    +0.000 C 
ATOM     32  F   UNL     1       1.215   4.111  17.635  0.00  0.00    +0.000 F 
ATOM     33  F   UNL     1       2.891   2.722  17.612  0.00  0.00    +0.000 F 
ATOM     34  F   UNL     1       1.015   2.151  18.566  0.00  0.00    +0.000 F 
ENDBRANCH  30  31
ENDBRANCH  29  30
ENDBRANCH   3  29
TORSDOF 8
ENDMDL
MODEL 4
REMARK VINA RESULT:      -8.3      3.950      8.577
REMARK  Name = 
REMARK  10 active torsions:
REMARK  status: ('A' for Active; 'I' for Inactive)
REMARK    1  A    between atoms: C_1  and  C_2
REMARK    2  A    between atoms: C_4  and  C_5
REMARK    3  A    between atoms: C_5  and  C_6
REMARK    4  A    between atoms: C_5  and  N_7
REMARK    5  A    between atoms: C_5  and  C_29
REMARK    6  A    between atoms: C_8  and  C_10
REMARK    7  A    between atoms: C_12  and  O_13
REMARK    8  A    between atoms: O_13  and  C_14
REMARK    9  A    between atoms: C_14  and  C_15
REMARK   10  A    between atoms: C_19  and  N_20
REMARK                            x       y       z     vdW  Elec       q    Type
REMARK                         _______ _______ _______ _____ _____    ______ ____
ROOT
ATOM      1  C   UNL     1       2.897   7.309  18.657  0.00  0.00    +0.000 A 
ATOM      2  C   UNL     1       2.059   7.482  19.748  0.00  0.00    +0.000 A 
ATOM      3  C   UNL     1       1.180   8.566  19.754  0.00  0.00    +0.000 A 
ATOM      4  C   UNL     1       1.143   9.483  18.676  0.00  0.00    +0.000 A 
ATOM      5  C   UNL     1       2.041   9.181  17.636  0.00  0.00    +0.000 A 
ATOM      6  N   UNL     1       2.915   8.137  17.587  0.00  0.00    +0.000 NA
ENDROOT
BRANCH   4   7
ATOM      7  N   UNL     1       0.279  10.560  18.613  0.00  0.00    +0.000 N 
ATOM      8  C   UNL     1       0.609  11.923  19.037  0.00  0.00    +0.000 C 
ATOM      9  C   UNL     1      -0.605  12.746  18.619  0.00  0.00    +0.000 C 
ATOM     10  C   UNL     1      -1.745  11.796  18.894  0.00  0.00    +0.000 C 
ATOM     11  F   UNL     1      -2.848  12.133  18.197  0.00  0.00    +0.000 F 
ATOM     12  F   UNL     1      -2.065  11.825  20.210  0.00  0.00    +0.000 F 
ATOM     13  C   UNL     1      -1.190  10.429  18.494  0.00  0.00    +0.000 C 
ENDBRANCH   4   7
BRANCH   1  15
ATOM     14  N   UNL     1       4.140   5.622  17.399  0.00  0.00    +0.000 N 
ATOM     15  C   UNL     1       3.820   6.131  18.642  0.00  0.00    +0.000 C 
ATOM     16  O   UNL     1       4.235   5.673  19.702  0.00  0.00    +0.000 OA
ATOM     17  H   UNL     1       3.880   6.198  16.605  0.00  0.00    +0.000 HD
BRANCH  14  18
ATOM     18  C   UNL     1       5.079   4.503  17.191  0.00  0.00    +0.000 C 
ATOM     19  C   UNL     1       5.984   4.342  18.445  0.00  0.00    +0.000 C 
BRANCH  18  23
ATOM     20  C   UNL     1       7.098   4.331  12.628  0.00  0.00    +0.000 C 
ATOM     21  C   UNL     1       6.712   4.652  14.016  0.00  0.00    +0.000 A 
ATOM     22  N   UNL     1       5.697   4.229  14.722  0.00  0.00    +0.000 NA
ATOM     23  C   UNL     1       5.939   4.796  15.960  0.00  0.00    +0.000 A 
ATOM     24  N   UNL     1       7.018   5.601  15.991  0.00  0.00    +0.000 NA
ATOM     25  O   UNL     1       7.532   5.504  14.696  0.00  0.00    +0.000 OA
ENDBRANCH  18  23
BRANCH  18  26
ATOM     26  C   UNL     1       4.229   3.216  17.137  0.00  0.00    +0.000 C 
ATOM     27  C   UNL     1       3.572   2.567  18.333  0.00  0.00    +0.000 C 
ATOM     28  C   UNL     1       2.721   3.224  17.283  0.00  0.00    +0.000 C 
ENDBRANCH  18  26
ENDBRANCH  14  18
ENDBRANCH   1  15
BRANCH   3  29
ATOM     29  O   UNL     1       0.393   8.824  20.849  0.00  0.00    +0.000 OA
BRANCH  29  30
ATOM     30  C   UNL     1       1.003   9.466  21.975  0.00  0.00    +0.000 C 
BRANCH  30  31
ATOM     31  C   UNL     1      -0.016   9.614  23.106  0.00  0.00    +0.000 C 
ATOM     32  F   UNL     1      -1.097   8.817  22.942  0.00  0.00    +0.000 F 
ATOM     33  F   UNL     1       0.534   9.298  24.301  0.00  0.00    +0.000 F 
ATOM     34  F   UNL     1      -0.464  10.887  23.190  0.00  0.00    +0.000 F 
ENDBRANCH  30  31
ENDBRANCH  29  30
ENDBRANCH   3  29
TORSDOF 8
ENDMDL
MODEL 5
REMARK VINA RESULT:      -8.2      1.831      3.202
REMARK  Name = 
REMARK  10 active torsions:
REMARK  status: ('A' for Active; 'I' for Inactive)
REMARK    1  A    between atoms: C_1  and  C_2
REMARK    2  A    between atoms: C_4  and  C_5
REMARK    3  A    between atoms: C_5  and  C_6
REMARK    4  A    between atoms: C_5  and  N_7
REMARK    5  A    between atoms: C_5  and  C_29
REMARK    6  A    between atoms: C_8  and  C_10
REMARK    7  A    between atoms: C_12  and  O_13
REMARK    8  A    between atoms: O_13  and  C_14
REMARK    9  A    between atoms: C_14  and  C_15
REMARK   10  A    between atoms: C_19  and  N_20
REMARK                            x       y       z     vdW  Elec       q    Type
REMARK                         _______ _______ _______ _____ _____    ______ ____
ROOT
ATOM      1  C   UNL     1       2.036   8.406  18.512  0.00  0.00    +0.000 A 
ATOM      2  C   UNL     1       2.267   7.325  19.348  0.00  0.00    +0.000 A 
ATOM      3  C   UNL     1       3.262   6.409  19.004  0.00  0.00    +0.000 A 
ATOM      4  C   UNL     1       4.021   6.567  17.819  0.00  0.00    +0.000 A 
ATOM      5  C   UNL     1       3.686   7.710  17.071  0.00  0.00    +0.000 A 
ATOM      6  N   UNL     1       2.725   8.629  17.369  0.00  0.00    +0.000 NA
ENDROOT
BRANCH   4   7
ATOM      7  N   UNL     1       5.035   5.708  17.436  0.00  0.00    +0.000 N 
ATOM      8  C   UNL     1       6.426   5.804  17.882  0.00  0.00    +0.000 C 
ATOM      9  C   UNL     1       7.086   4.552  17.311  0.00  0.00    +0.000 C 
ATOM     10  C   UNL     1       6.409   4.420  15.968  0.00  0.00    +0.000 C 
ATOM     11  F   UNL     1       6.506   3.163  15.489  0.00  0.00    +0.000 F 
ATOM     12  F   UNL     1       6.994   5.249  15.071  0.00  0.00    +0.000 F 
ATOM     13  C   UNL     1       4.964   4.837  16.242  0.00  0.00    +0.000 C 
ENDBRANCH   4   7
BRANCH   1  15
ATOM     14  N   UNL     1       0.964   9.781  20.225  0.00  0.00    +0.000 N 
ATOM     15  C   UNL     1       0.986   9.401  18.898  0.00  0.00    +0.000 C 
ATOM     16  O   UNL     1       0.205   9.816  18.048  0.00  0.00    +0.000 OA
ATOM     17  H   UNL     1       1.770   9.506  20.777  0.00  0.00    +0.000 HD
BRANCH  14  18
ATOM     18  C   UNL     1       0.037  10.791  20.769  0.00  0.00    +0.000 C 
ATOM     19  C   UNL     1      -1.159  10.980  19.794  0.00  0.00    +0.000 C 
BRANCH  18  23
ATOM     20  C   UNL     1       3.410  14.452  20.373  0.00  0.00    +0.000 C 
ATOM     21  C   UNL     1       2.251  13.596  20.694  0.00  0.00    +0.000 A 
ATOM     22  N   UNL     1       1.853  12.483  20.138  0.00  0.00    +0.000 NA
ATOM     23  C   UNL     1       0.787  12.115  20.939  0.00  0.00    +0.000 A 
ATOM     24  N   UNL     1       0.493  13.009  21.902  0.00  0.00    +0.000 NA
ATOM     25  O   UNL     1       1.468  13.995  21.738  0.00  0.00    +0.000 OA
ENDBRANCH  18  23
BRANCH  18  26
ATOM     26  C   UNL     1      -0.575  10.187  22.050  0.00  0.00    +0.000 C 
ATOM     27  C   UNL     1      -0.646   8.708  22.356  0.00  0.00    +0.000 C 
ATOM     28  C   UNL     1       0.269   9.590  23.158  0.00  0.00    +0.000 C 
ENDBRANCH  18  26
ENDBRANCH  14  18
ENDBRANCH   1  15
BRANCH   3  29
ATOM     29  O   UNL     1       3.467   5.280  19.756  0.00  0.00    +0.000 OA
BRANCH  29  30
ATOM     30  C   UNL     1       2.617   4.152  19.517  0.00  0.00    +0.000 C 
BRANCH  30  31
ATOM     31  C   UNL     1       1.644   3.974  20.684  0.00  0.00    +0.000 C 
ATOM     32  F   UNL     1       0.709   4.952  20.737  0.00  0.00    +0.000 F 
ATOM     33  F   UNL     1       0.984   2.797  20.594  0.00  0.00    +0.000 F 
ATOM     34  F   UNL     1       2.300   3.982  21.866  0.00  0.00    +0.000 F 
ENDBRANCH  30  31
ENDBRANCH  29  30
ENDBRANCH   3  29
TORSDOF 8
ENDMDL
MODEL 6
REMARK VINA RESULT:      -8.2      1.241      1.586
REMARK  Name = 
REMARK  10 active torsions:
REMARK  status: ('A' for Active; 'I' for Inactive)
REMARK    1  A    between atoms: C_1  and  C_2
REMARK    2  A    between atoms: C_4  and  C_5
REMARK    3  A    between atoms: C_5  and  C_6
REMARK    4  A    between atoms: C_5  and  N_7
REMARK    5  A    between atoms: C_5  and  C_29
REMARK    6  A    between atoms: C_8  and  C_10
REMARK    7  A    between atoms: C_12  and  O_13
REMARK    8  A    between atoms: O_13  and  C_14
REMARK    9  A    between atoms: C_14  and  C_15
REMARK   10  A    between atoms: C_19  and  N_20
REMARK                            x       y       z     vdW  Elec       q    Type
REMARK                         _______ _______ _______ _____ _____    ______ ____
ROOT
ATOM      1  C   UNL     1       1.582   8.614  19.438  0.00  0.00    +0.000 A 
ATOM      2  C   UNL     1       1.888   7.435  20.100  0.00  0.00    +0.000 A 
ATOM      3  C   UNL     1       2.740   6.519  19.482  0.00  0.00    +0.000 A 
ATOM      4  C   UNL     1       3.280   6.775  18.198  0.00  0.00    +0.000 A 
ATOM      5  C   UNL     1       2.892   8.010  17.649  0.00  0.00    +0.000 A 
ATOM      6  N   UNL     1       2.065   8.934  18.215  0.00  0.00    +0.000 NA
ENDROOT
BRANCH   4   7
ATOM      7  N   UNL     1       4.147   5.919  17.545  0.00  0.00    +0.000 N 
ATOM      8  C   UNL     1       3.875   4.507  17.263  0.00  0.00    +0.000 C 
ATOM      9  C   UNL     1       5.055   4.067  16.401  0.00  0.00    +0.000 C 
ATOM     10  C   UNL     1       6.204   4.823  17.023  0.00  0.00    +0.000 C 
ATOM     11  F   UNL     1       7.241   4.936  16.169  0.00  0.00    +0.000 F 
ATOM     12  F   UNL     1       6.647   4.169  18.124  0.00  0.00    +0.000 F 
ATOM     13  C   UNL     1       5.597   6.176  17.395  0.00  0.00    +0.000 C 
ENDBRANCH   4   7
BRANCH   1  15
ATOM     14  N   UNL     1       0.707  10.890  19.607  0.00  0.00    +0.000 N 
ATOM     15  C   UNL     1       0.689   9.606  20.115  0.00  0.00    +0.000 C 
ATOM     16  O   UNL     1       0.005   9.252  21.070  0.00  0.00    +0.000 OA
ATOM     17  H   UNL     1       1.172  11.005  18.713  0.00  0.00    +0.000 HD
BRANCH  14  18
ATOM     18  C   UNL     1      -0.149  11.980  20.112  0.00  0.00    +0.000 C 
ATOM     19  C   UNL     1      -0.242  11.895  21.661  0.00  0.00    +0.000 C 
BRANCH  18  23
ATOM     20  C   UNL     1      -3.898  11.144  16.921  0.00  0.00    +0.000 C 
ATOM     21  C   UNL     1      -3.047  11.452  18.087  0.00  0.00    +0.000 A 
ATOM     22  N   UNL     1      -1.768  11.255  18.265  0.00  0.00    +0.000 NA
ATOM     23  C   UNL     1      -1.544  11.842  19.497  0.00  0.00    +0.000 A 
ATOM     24  N   UNL     1      -2.659  12.311  20.088  0.00  0.00    +0.000 NA
ATOM     25  O   UNL     1      -3.659  12.051  19.148  0.00  0.00    +0.000 OA
ENDBRANCH  18  23
BRANCH  18  26
ATOM     26  C   UNL     1       0.595  13.300  19.821  0.00  0.00    +0.000 C 
ATOM     27  C   UNL     1       1.402  13.576  18.573  0.00  0.00    +0.000 C 
ATOM     28  C   UNL     1       0.107  14.306  18.798  0.00  0.00    +0.000 C 
ENDBRANCH  18  26
ENDBRANCH  14  18
ENDBRANCH   1  15
BRANCH   3  29
ATOM     29  O   UNL     1       3.001   5.303  20.062  0.00  0.00    +0.000 OA
BRANCH  29  30
ATOM     30  C   UNL     1       2.116   4.847  21.091  0.00  0.00    +0.000 C 
BRANCH  30  31
ATOM     31  C   UNL     1       1.597   3.449  20.752  0.00  0.00    +0.000 C 
ATOM     32  F   UNL     1       0.429   3.478  20.068  0.00  0.00    +0.000 F 
ATOM     33  F   UNL     1       2.486   2.770  19.992  0.00  0.00    +0.000 F 
ATOM     34  F   UNL     1       1.387   2.725  21.875  0.00  0.00    +0.000 F 
ENDBRANCH  30  31
ENDBRANCH  29  30
ENDBRANCH   3  29
TORSDOF 8
ENDMDL
MODEL 7
REMARK VINA RESULT:      -8.2      2.141      3.435
REMARK  Name = 
REMARK  10 active torsions:
REMARK  status: ('A' for Active; 'I' for Inactive)
REMARK    1  A    between atoms: C_1  and  C_2
REMARK    2  A    between atoms: C_4  and  C_5
REMARK    3  A    between atoms: C_5  and  C_6
REMARK    4  A    between atoms: C_5  and  N_7
REMARK    5  A    between atoms: C_5  and  C_29
REMARK    6  A    between atoms: C_8  and  C_10
REMARK    7  A    between atoms: C_12  and  O_13
REMARK    8  A    between atoms: O_13  and  C_14
REMARK    9  A    between atoms: C_14  and  C_15
REMARK   10  A    between atoms: C_19  and  N_20
REMARK                            x       y       z     vdW  Elec       q    Type
REMARK                         _______ _______ _______ _____ _____    ______ ____
ROOT
ATOM      1  C   UNL     1       2.055   8.427  18.455  0.00  0.00    +0.000 A 
ATOM      2  C   UNL     1       2.148   7.249  19.181  0.00  0.00    +0.000 A 
ATOM      3  C   UNL     1       3.132   6.322  18.835  0.00  0.00    +0.000 A 
ATOM      4  C   UNL     1       4.018   6.566  17.758  0.00  0.00    +0.000 A 
ATOM      5  C   UNL     1       3.815   7.802  17.117  0.00  0.00    +0.000 A 
ATOM      6  N   UNL     1       2.870   8.735  17.420  0.00  0.00    +0.000 NA
ENDROOT
BRANCH   4   7
ATOM      7  N   UNL     1       5.027   5.698  17.382  0.00  0.00    +0.000 N 
ATOM      8  C   UNL     1       6.390   5.719  17.917  0.00  0.00    +0.000 C 
ATOM      9  C   UNL     1       7.047   4.484  17.307  0.00  0.00    +0.000 C 
ATOM     10  C   UNL     1       6.451   4.458  15.920  0.00  0.00    +0.000 C 
ATOM     11  F   UNL     1       6.540   3.232  15.367  0.00  0.00    +0.000 F 
ATOM     12  F   UNL     1       7.116   5.322  15.115  0.00  0.00    +0.000 F 
ATOM     13  C   UNL     1       5.005   4.907  16.132  0.00  0.00    +0.000 C 
ENDBRANCH   4   7
BRANCH   1  15
ATOM     14  N   UNL     1       0.971   9.774  20.182  0.00  0.00    +0.000 N 
ATOM     15  C   UNL     1       1.016   9.430  18.846  0.00  0.00    +0.000 C 
ATOM     16  O   UNL     1       0.261   9.884  17.991  0.00  0.00    +0.000 OA
ATOM     17  H   UNL     1       1.759   9.468  20.744  0.00  0.00    +0.000 HD
BRANCH  14  18
ATOM     18  C   UNL     1       0.051  10.787  20.734  0.00  0.00    +0.000 C 
ATOM     19  C   UNL     1      -1.148  10.985  19.765  0.00  0.00    +0.000 C 
BRANCH  18  23
ATOM     20  C   UNL     1       3.445  14.428  20.346  0.00  0.00    +0.000 C 
ATOM     21  C   UNL     1       2.281  13.580  20.664  0.00  0.00    +0.000 A 
ATOM     22  N   UNL     1       1.878  12.469  20.107  0.00  0.00    +0.000 NA
ATOM     23  C   UNL     1       0.808  12.106  20.906  0.00  0.00    +0.000 A 
ATOM     24  N   UNL     1       0.516  13.003  21.867  0.00  0.00    +0.000 NA
ATOM     25  O   UNL     1       1.497  13.984  21.705  0.00  0.00    +0.000 OA
ENDBRANCH  18  23
BRANCH  18  26
ATOM     26  C   UNL     1      -0.558  10.181  22.016  0.00  0.00    +0.000 C 
ATOM     27  C   UNL     1      -0.615   8.703  22.327  0.00  0.00    +0.000 C 
ATOM     28  C   UNL     1       0.289   9.597  23.128  0.00  0.00    +0.000 C 
ENDBRANCH  18  26
ENDBRANCH  14  18
ENDBRANCH   1  15
BRANCH   3  29
ATOM     29  O   UNL     1       3.205   5.107  19.469  0.00  0.00    +0.000 OA
BRANCH  29  30
ATOM     30  C   UNL     1       1.993   4.359  19.626  0.00  0.00    +0.000 C 
BRANCH  30  31
ATOM     31  C   UNL     1       1.655   3.633  18.322  0.00  0.00    +0.000 C 
ATOM     32  F   UNL     1       0.801   2.600  18.507  0.00  0.00    +0.000 F 
ATOM     33  F   UNL     1       1.078   4.473  17.433  0.00  0.00    +0.000 F 
ATOM     34  F   UNL     1       2.771   3.134  17.744  0.00  0.00    +0.000 F 
ENDBRANCH  30  31
ENDBRANCH  29  30
ENDBRANCH   3  29
TORSDOF 8
ENDMDL
MODEL 8
REMARK VINA RESULT:      -8.1      1.573      2.056
REMARK  Name = 
REMARK  10 active torsions:
REMARK  status: ('A' for Active; 'I' for Inactive)
REMARK    1  A    between atoms: C_1  and  C_2
REMARK    2  A    between atoms: C_4  and  C_5
REMARK    3  A    between atoms: C_5  and  C_6
REMARK    4  A    between atoms: C_5  and  N_7
REMARK    5  A    between atoms: C_5  and  C_29
REMARK    6  A    between atoms: C_8  and  C_10
REMARK    7  A    between atoms: C_12  and  O_13
REMARK    8  A    between atoms: O_13  and  C_14
REMARK    9  A    between atoms: C_14  and  C_15
REMARK   10  A    between atoms: C_19  and  N_20
REMARK                            x       y       z     vdW  Elec       q    Type
REMARK                         _______ _______ _______ _____ _____    ______ ____
ROOT
ATOM      1  C   UNL     1       1.278   9.006  19.459  0.00  0.00    +0.000 A 
ATOM      2  C   UNL     1       1.410   7.907  20.294  0.00  0.00    +0.000 A 
ATOM      3  C   UNL     1       2.235   6.855  19.895  0.00  0.00    +0.000 A 
ATOM      4  C   UNL     1       2.921   6.894  18.658  0.00  0.00    +0.000 A 
ATOM      5  C   UNL     1       2.701   8.070  17.917  0.00  0.00    +0.000 A 
ATOM      6  N   UNL     1       1.907   9.121  18.266  0.00  0.00    +0.000 NA
ENDROOT
BRANCH   4   7
ATOM      7  N   UNL     1       3.770   5.896  18.218  0.00  0.00    +0.000 N 
ATOM      8  C   UNL     1       3.346   4.698  17.489  0.00  0.00    +0.000 C 
ATOM      9  C   UNL     1       4.655   4.015  17.104  0.00  0.00    +0.000 C 
ATOM     10  C   UNL     1       5.516   4.269  18.318  0.00  0.00    +0.000 C 
ATOM     11  F   UNL     1       6.826   4.149  18.027  0.00  0.00    +0.000 F 
ATOM     12  F   UNL     1       5.225   3.370  19.288  0.00  0.00    +0.000 F 
ATOM     13  C   UNL     1       5.135   5.685  18.749  0.00  0.00    +0.000 C 
ENDBRANCH   4   7
BRANCH   1  15
ATOM     14  N   UNL     1       0.454  11.282  19.121  0.00  0.00    +0.000 N 
ATOM     15  C   UNL     1       0.412  10.144  19.902  0.00  0.00    +0.000 C 
ATOM     16  O   UNL     1      -0.270  10.027  20.915  0.00  0.00    +0.000 OA
ATOM     17  H   UNL     1       0.912  11.184  18.221  0.00  0.00    +0.000 HD
BRANCH  14  18
ATOM     18  C   UNL     1      -0.374  12.476  19.374  0.00  0.00    +0.000 C 
ATOM     19  C   UNL     1      -0.263  12.881  20.871  0.00  0.00    +0.000 C 
BRANCH  18  23
ATOM     20  C   UNL     1      -4.534  11.265  16.892  0.00  0.00    +0.000 C 
ATOM     21  C   UNL     1      -3.516  11.625  17.898  0.00  0.00    +0.000 A 
ATOM     22  N   UNL     1      -2.213  11.629  17.807  0.00  0.00    +0.000 NA
ATOM     23  C   UNL     1      -1.830  12.156  19.027  0.00  0.00    +0.000 A 
ATOM     24  N   UNL     1      -2.856  12.391  19.866  0.00  0.00    +0.000 NA
ATOM     25  O   UNL     1      -3.979  12.038  19.114  0.00  0.00    +0.000 OA
ENDBRANCH  18  23
BRANCH  18  26
ATOM     26  C   UNL     1       0.271  13.638  18.591  0.00  0.00    +0.000 C 
ATOM     27  C   UNL     1       0.969  14.821  19.224  0.00  0.00    +0.000 C 
ATOM     28  C   UNL     1       1.772  13.804  18.461  0.00  0.00    +0.000 C 
ENDBRANCH  18  26
ENDBRANCH  14  18
ENDBRANCH   1  15
BRANCH   3  29
ATOM     29  O   UNL     1       2.328   5.712  20.649  0.00  0.00    +0.000 OA
BRANCH  29  30
ATOM     30  C   UNL     1       1.292   4.733  20.512  0.00  0.00    +0.000 C 
BRANCH  30  31
ATOM     31  C   UNL     1       1.761   3.393  21.083  0.00  0.00    +0.000 C 
ATOM     32  F   UNL     1       0.734   2.616  21.500  0.00  0.00    +0.000 F 
ATOM     33  F   UNL     1       2.448   2.684  20.159  0.00  0.00    +0.000 F 
ATOM     34  F   UNL     1       2.579   3.579  22.143  0.00  0.00    +0.000 F 
ENDBRANCH  30  31
ENDBRANCH  29  30
ENDBRANCH   3  29
TORSDOF 8
ENDMDL
MODEL 9
REMARK VINA RESULT:      -8.1      1.490      2.917
REMARK  Name = 
REMARK  10 active torsions:
REMARK  status: ('A' for Active; 'I' for Inactive)
REMARK    1  A    between atoms: C_1  and  C_2
REMARK    2  A    between atoms: C_4  and  C_5
REMARK    3  A    between atoms: C_5  and  C_6
REMARK    4  A    between atoms: C_5  and  N_7
REMARK    5  A    between atoms: C_5  and  C_29
REMARK    6  A    between atoms: C_8  and  C_10
REMARK    7  A    between atoms: C_12  and  O_13
REMARK    8  A    between atoms: O_13  and  C_14
REMARK    9  A    between atoms: C_14  and  C_15
REMARK   10  A    between atoms: C_19  and  N_20
REMARK                            x       y       z     vdW  Elec       q    Type
REMARK                         _______ _______ _______ _____ _____    ______ ____
ROOT
ATOM      1  C   UNL     1       1.831   8.456  18.937  0.00  0.00    +0.000 A 
ATOM      2  C   UNL     1       2.117   7.359  19.735  0.00  0.00    +0.000 A 
ATOM      3  C   UNL     1       3.103   6.463  19.319  0.00  0.00    +0.000 A 
ATOM      4  C   UNL     1       3.799   6.658  18.101  0.00  0.00    +0.000 A 
ATOM      5  C   UNL     1       3.413   7.814  17.399  0.00  0.00    +0.000 A 
ATOM      6  N   UNL     1       2.458   8.714  17.766  0.00  0.00    +0.000 NA
ENDROOT
BRANCH   4   7
ATOM      7  N   UNL     1       4.801   5.821  17.647  0.00  0.00    +0.000 N 
ATOM      8  C   UNL     1       6.222   5.967  17.966  0.00  0.00    +0.000 C 
ATOM      9  C   UNL     1       6.868   4.723  17.364  0.00  0.00    +0.000 C 
ATOM     10  C   UNL     1       6.080   4.541  16.089  0.00  0.00    +0.000 C 
ATOM     11  F   UNL     1       6.174   3.278  15.628  0.00  0.00    +0.000 F 
ATOM     12  F   UNL     1       6.558   5.366  15.127  0.00  0.00    +0.000 F 
ATOM     13  C   UNL     1       4.653   4.921  16.481  0.00  0.00    +0.000 C 
ENDBRANCH   4   7
BRANCH   1  15
ATOM     14  N   UNL     1       0.529  10.489  18.555  0.00  0.00    +0.000 N 
ATOM     15  C   UNL     1       0.791   9.428  19.399  0.00  0.00    +0.000 C 
ATOM     16  O   UNL     1       0.238   9.254  20.481  0.00  0.00    +0.000 OA
ATOM     17  H   UNL     1       0.918  10.417  17.621  0.00  0.00    +0.000 HD
BRANCH  14  18
ATOM     18  C   UNL     1      -0.503  11.509  18.822  0.00  0.00    +0.000 C 
ATOM     19  C   UNL     1      -0.445  12.608  17.725  0.00  0.00    +0.000 C 
BRANCH  18  23
ATOM     20  C   UNL     1      -1.144  13.502  23.355  0.00  0.00    +0.000 C 
ATOM     21  C   UNL     1      -0.620  12.943  22.094  0.00  0.00    +0.000 A 
ATOM     22  N   UNL     1      -1.238  12.286  21.149  0.00  0.00    +0.000 NA
ATOM     23  C   UNL     1      -0.246  12.129  20.198  0.00  0.00    +0.000 A 
ATOM     24  N   UNL     1       0.956  12.603  20.579  0.00  0.00    +0.000 NA
ATOM     25  O   UNL     1       0.705  13.144  21.842  0.00  0.00    +0.000 OA
ENDBRANCH  18  23
BRANCH  18  26
ATOM     26  C   UNL     1      -1.869  10.817  18.633  0.00  0.00    +0.000 C 
ATOM     27  C   UNL     1      -2.989  11.347  17.766  0.00  0.00    +0.000 C 
ATOM     28  C   UNL     1      -2.254  10.102  17.353  0.00  0.00    +0.000 C 
ENDBRANCH  18  26
ENDBRANCH  14  18
ENDBRANCH   1  15
BRANCH   3  29
ATOM     29  O   UNL     1       3.358   5.320  20.033  0.00  0.00    +0.000 OA
BRANCH  29  30
ATOM     30  C   UNL     1       2.647   4.130  19.669  0.00  0.00    +0.000 C 
BRANCH  30  31
ATOM     31  C   UNL     1       1.606   3.796  20.739  0.00  0.00    +0.000 C 
ATOM     32  F   UNL     1       1.089   2.553  20.592  0.00  0.00    +0.000 F 
ATOM     33  F   UNL     1       2.144   3.860  21.978  0.00  0.00    +0.000 F 
ATOM     34  F   UNL     1       0.574   4.668  20.699  0.00  0.00    +0.000 F 
ENDBRANCH  30  31
ENDBRANCH  29  30
ENDBRANCH   3  29
TORSDOF 8
ENDMDL
