MODEL 1
REMARK VINA RESULT:      -8.8      0.000      0.000
REMARK  Name = 
REMARK  5 active torsions:
REMARK  status: ('A' for Active; 'I' for Inactive)
REMARK    1  A    between atoms: N_3  and  C_4
REMARK    2  A    between atoms: C_4  and  N_5
REMARK    3  A    between atoms: N_5  and  C_6
REMARK    4  A    between atoms: C_14  and  C_15
REMARK    5  A    between atoms: N_25  and  C_26
REMARK                            x       y       z     vdW  Elec       q    Type
REMARK                         _______ _______ _______ _____ _____    ______ ____
ROOT
ATOM      1  S   UNL     1       6.177   7.914  16.903  0.00  0.00    +0.000 S 
ATOM      2  C   UNL     1       5.452   6.544  17.542  0.00  0.00    +0.000 A 
ATOM      3  N   UNL     1       6.096   5.296  17.490  0.00  0.00    +0.000 N 
ATOM      4  N   UNL     1       5.275   4.336  18.012  0.00  0.00    +0.000 NA
ATOM      5  C   UNL     1       4.186   4.948  18.390  0.00  0.00    +0.000 A 
ATOM      6  N   UNL     1       4.193   6.312  18.171  0.00  0.00    +0.000 N 
ENDROOT
BRANCH   5   7
ATOM      7  C   UNL     1       3.057   4.040  18.989  0.00  0.00    +0.000 C 
ATOM      8  C   UNL     1       3.426   2.506  18.949  0.00  0.00    +0.000 C 
ATOM      9  C   UNL     1       2.273   1.629  19.519  0.00  0.00    +0.000 C 
ATOM     10  C   UNL     1       1.985   2.017  20.979  0.00  0.00    +0.000 C 
ATOM     11  C   UNL     1       1.645   3.511  21.049  0.00  0.00    +0.000 C 
ATOM     12  C   UNL     1       0.389   3.776  20.200  0.00  0.00    +0.000 C 
ATOM     13  C   UNL     1       0.614   3.337  18.741  0.00  0.00    +0.000 C 
ATOM     14  C   UNL     1       0.987   1.850  18.706  0.00  0.00    +0.000 C 
ATOM     15  C   UNL     1       1.775   4.110  18.102  0.00  0.00    +0.000 C 
ATOM     16  C   UNL     1       2.857   4.292  20.515  0.00  0.00    +0.000 C 
ENDBRANCH   5   7
BRANCH   6  17
ATOM     17  C   UNL     1       3.195   7.336  18.514  0.00  0.00    +0.000 A 
ATOM     18  C   UNL     1       2.763   8.330  17.630  0.00  0.00    +0.000 A 
ATOM     19  C   UNL     1       1.752   9.272  17.883  0.00  0.00    +0.000 A 
ATOM     20  C   UNL     1       1.111   9.269  19.094  0.00  0.00    +0.000 A 
ATOM     21 CL   UNL     1      -0.159  10.372  19.405  0.00  0.00    +0.000 Cl
ATOM     22  C   UNL     1       1.519   8.353  20.046  0.00  0.00    +0.000 A 
ATOM     23  C   UNL     1       2.542   7.421  19.756  0.00  0.00    +0.000 A 
ENDBRANCH   6  17
BRANCH   3  24
ATOM     24  C   UNL     1       7.357   4.948  16.821  0.00  0.00    +0.000 C 
BRANCH  24  25
ATOM     25  N   UNL     1       7.392   5.569  15.503  0.00  0.00    +0.000 N 
ATOM     26  H   UNL     1       8.308   5.974  15.330  0.00  0.00    +0.000 HD
BRANCH  25  27
ATOM     27  C   UNL     1       6.953   4.819  14.391  0.00  0.00    +0.000 A 
ATOM     28  C   UNL     1       5.784   4.038  14.423  0.00  0.00    +0.000 A 
ATOM     29  C   UNL     1       5.326   3.350  13.291  0.00  0.00    +0.000 A 
ATOM     30  C   UNL     1       6.009   3.447  12.084  0.00  0.00    +0.000 A 
ATOM     31  C   UNL     1       7.146   4.251  12.004  0.00  0.00    +0.000 A 
ATOM     32  C   UNL     1       7.599   4.935  13.138  0.00  0.00    +0.000 A 
ATOM     33 CL   UNL     1       9.014   5.921  12.967  0.00  0.00    +0.000 Cl
ENDBRANCH  25  27
ENDBRANCH  24  25
ENDBRANCH   3  24
TORSDOF 5
ENDMDL
MODEL 2
REMARK VINA RESULT:      -8.6      0.113      1.356
REMARK  Name = 
REMARK  5 active torsions:
REMARK  status: ('A' for Active; 'I' for Inactive)
REMARK    1  A    between atoms: N_3  and  C_4
REMARK    2  A    between atoms: C_4  and  N_5
REMARK    3  A    between atoms: N_5  and  C_6
REMARK    4  A    between atoms: C_14  and  C_15
REMARK    5  A    between atoms: N_25  and  C_26
REMARK                            x       y       z     vdW  Elec       q    Type
REMARK                         _______ _______ _______ _____ _____    ______ ____
ROOT
ATOM      1  S   UNL     1       6.254   7.874  16.953  0.00  0.00    +0.000 S 
ATOM      2  C   UNL     1       5.509   6.498  17.556  0.00  0.00    +0.000 A 
ATOM      3  N   UNL     1       6.148   5.247  17.495  0.00  0.00    +0.000 N 
ATOM      4  N   UNL     1       5.313   4.284  17.986  0.00  0.00    +0.000 NA
ATOM      5  C   UNL     1       4.220   4.895  18.352  0.00  0.00    +0.000 A 
ATOM      6  N   UNL     1       4.238   6.262  18.156  0.00  0.00    +0.000 N 
ENDROOT
BRANCH   5   7
ATOM      7  C   UNL     1       3.075   3.983  18.915  0.00  0.00    +0.000 C 
ATOM      8  C   UNL     1       1.700   4.205  18.170  0.00  0.00    +0.000 C 
ATOM      9  C   UNL     1       0.577   3.311  18.773  0.00  0.00    +0.000 C 
ATOM     10  C   UNL     1       0.958   1.827  18.649  0.00  0.00    +0.000 C 
ATOM     11  C   UNL     1       2.303   1.588  19.347  0.00  0.00    +0.000 C 
ATOM     12  C   UNL     1       2.162   1.951  20.836  0.00  0.00    +0.000 C 
ATOM     13  C   UNL     1       1.715   3.415  21.002  0.00  0.00    +0.000 C 
ATOM     14  C   UNL     1       0.388   3.632  20.265  0.00  0.00    +0.000 C 
ATOM     15  C   UNL     1       2.737   4.380  20.386  0.00  0.00    +0.000 C 
ATOM     16  C   UNL     1       3.353   2.472  18.653  0.00  0.00    +0.000 C 
ENDBRANCH   5   7
BRANCH   6  17
ATOM     17  C   UNL     1       3.238   7.286  18.496  0.00  0.00    +0.000 A 
ATOM     18  C   UNL     1       2.778   8.254  17.598  0.00  0.00    +0.000 A 
ATOM     19  C   UNL     1       1.764   9.194  17.850  0.00  0.00    +0.000 A 
ATOM     20  C   UNL     1       1.150   9.215  19.075  0.00  0.00    +0.000 A 
ATOM     21 CL   UNL     1      -0.123  10.314  19.388  0.00  0.00    +0.000 Cl
ATOM     22  C   UNL     1       1.587   8.326  20.040  0.00  0.00    +0.000 A 
ATOM     23  C   UNL     1       2.612   7.396  19.750  0.00  0.00    +0.000 A 
ENDBRANCH   6  17
BRANCH   3  24
ATOM     24  C   UNL     1       7.421   4.904  16.846  0.00  0.00    +0.000 C 
BRANCH  24  25
ATOM     25  N   UNL     1       7.478   5.533  15.533  0.00  0.00    +0.000 N 
ATOM     26  H   UNL     1       8.408   5.905  15.362  0.00  0.00    +0.000 HD
BRANCH  25  27
ATOM     27  C   UNL     1       7.011   4.808  14.415  0.00  0.00    +0.000 A 
ATOM     28  C   UNL     1       5.848   4.019  14.461  0.00  0.00    +0.000 A 
ATOM     29  C   UNL     1       5.361   3.356  13.326  0.00  0.00    +0.000 A 
ATOM     30  C   UNL     1       6.007   3.488  12.103  0.00  0.00    +0.000 A 
ATOM     31  C   UNL     1       7.136   4.301  12.010  0.00  0.00    +0.000 A 
ATOM     32  C   UNL     1       7.619   4.961  13.147  0.00  0.00    +0.000 A 
ATOM     33 CL   UNL     1       9.022   5.960  12.960  0.00  0.00    +0.000 Cl
ENDBRANCH  25  27
ENDBRANCH  24  25
ENDBRANCH   3  24
TORSDOF 5
ENDMDL
MODEL 3
REMARK VINA RESULT:      -8.5      0.167      1.609
REMARK  Name = 
REMARK  5 active torsions:
REMARK  status: ('A' for Active; 'I' for Inactive)
REMARK    1  A    between atoms: N_3  and  C_4
REMARK    2  A    between atoms: C_4  and  N_5
REMARK    3  A    between atoms: N_5  and  C_6
REMARK    4  A    between atoms: C_14  and  C_15
REMARK    5  A    between atoms: N_25  and  C_26
REMARK                            x       y       z     vdW  Elec       q    Type
REMARK                         _______ _______ _______ _____ _____    ______ ____
ROOT
ATOM      1  S   UNL     1       6.136   7.913  16.905  0.00  0.00    +0.000 S 
ATOM      2  C   UNL     1       5.429   6.536  17.550  0.00  0.00    +0.000 A 
ATOM      3  N   UNL     1       6.104   5.303  17.533  0.00  0.00    +0.000 N 
ATOM      4  N   UNL     1       5.294   4.332  18.052  0.00  0.00    +0.000 NA
ATOM      5  C   UNL     1       4.182   4.923  18.395  0.00  0.00    +0.000 A 
ATOM      6  N   UNL     1       4.162   6.284  18.154  0.00  0.00    +0.000 N 
ENDROOT
BRANCH   5   7
ATOM      7  C   UNL     1       3.062   3.998  18.983  0.00  0.00    +0.000 C 
ATOM      8  C   UNL     1       2.620   4.428  20.437  0.00  0.00    +0.000 C 
ATOM      9  C   UNL     1       1.532   3.471  21.006  0.00  0.00    +0.000 C 
ATOM     10  C   UNL     1       0.289   3.486  20.101  0.00  0.00    +0.000 C 
ATOM     11  C   UNL     1       0.695   3.092  18.675  0.00  0.00    +0.000 C 
ATOM     12  C   UNL     1       1.285   1.671  18.700  0.00  0.00    +0.000 C 
ATOM     13  C   UNL     1       2.495   1.598  19.650  0.00  0.00    +0.000 C 
ATOM     14  C   UNL     1       2.067   2.031  21.058  0.00  0.00    +0.000 C 
ATOM     15  C   UNL     1       3.609   2.553  19.203  0.00  0.00    +0.000 C 
ATOM     16  C   UNL     1       1.729   4.119  18.184  0.00  0.00    +0.000 C 
ENDBRANCH   5   7
BRANCH   6  17
ATOM     17  C   UNL     1       3.132   7.289  18.456  0.00  0.00    +0.000 A 
ATOM     18  C   UNL     1       2.489   7.398  19.693  0.00  0.00    +0.000 A 
ATOM     19  C   UNL     1       1.565   8.394  20.055  0.00  0.00    +0.000 A 
ATOM     20  C   UNL     1       1.218   9.357  19.144  0.00  0.00    +0.000 A 
ATOM     21 CL   UNL     1       0.135  10.610  19.578  0.00  0.00    +0.000 Cl
ATOM     22  C   UNL     1       1.766   9.286  17.876  0.00  0.00    +0.000 A 
ATOM     23  C   UNL     1       2.691   8.268  17.549  0.00  0.00    +0.000 A 
ENDBRANCH   6  17
BRANCH   3  24
ATOM     24  C   UNL     1       7.388   4.975  16.899  0.00  0.00    +0.000 C 
BRANCH  24  25
ATOM     25  N   UNL     1       7.442   5.584  15.576  0.00  0.00    +0.000 N 
ATOM     26  H   UNL     1       8.371   5.959  15.400  0.00  0.00    +0.000 HD
BRANCH  25  27
ATOM     27  C   UNL     1       6.981   4.838  14.469  0.00  0.00    +0.000 A 
ATOM     28  C   UNL     1       5.817   4.051  14.524  0.00  0.00    +0.000 A 
ATOM     29  C   UNL     1       5.336   3.368  13.399  0.00  0.00    +0.000 A 
ATOM     30  C   UNL     1       5.990   3.475  12.177  0.00  0.00    +0.000 A 
ATOM     31  C   UNL     1       7.121   4.285  12.075  0.00  0.00    +0.000 A 
ATOM     32  C   UNL     1       7.597   4.965  13.203  0.00  0.00    +0.000 A 
ATOM     33 CL   UNL     1       9.003   5.960  13.005  0.00  0.00    +0.000 Cl
ENDBRANCH  25  27
ENDBRANCH  24  25
ENDBRANCH   3  24
TORSDOF 5
ENDMDL
MODEL 4
REMARK VINA RESULT:      -8.0      8.983     11.747
REMARK  Name = 
REMARK  5 active torsions:
REMARK  status: ('A' for Active; 'I' for Inactive)
REMARK    1  A    between atoms: N_3  and  C_4
REMARK    2  A    between atoms: C_4  and  N_5
REMARK    3  A    between atoms: N_5  and  C_6
REMARK    4  A    between atoms: C_14  and  C_15
REMARK    5  A    between atoms: N_25  and  C_26
REMARK                            x       y       z     vdW  Elec       q    Type
REMARK                         _______ _______ _______ _____ _____    ______ ____
ROOT
ATOM      1  S   UNL     1       4.738  15.705  21.303  0.00  0.00    +0.000 S 
ATOM      2  C   UNL     1       6.050  15.159  20.413  0.00  0.00    +0.000 A 
ATOM      3  N   UNL     1       6.044  15.217  19.008  0.00  0.00    +0.000 N 
ATOM      4  N   UNL     1       7.190  14.654  18.523  0.00  0.00    +0.000 NA
ATOM      5  C   UNL     1       7.887  14.282  19.561  0.00  0.00    +0.000 A 
ATOM      6  N   UNL     1       7.294  14.564  20.777  0.00  0.00    +0.000 N 
ENDROOT
BRANCH   5   7
ATOM      7  C   UNL     1       9.244  13.559  19.258  0.00  0.00    +0.000 C 
ATOM      8  C   UNL     1      10.457  14.185  20.051  0.00  0.00    +0.000 C 
ATOM      9  C   UNL     1      11.795  13.468  19.704  0.00  0.00    +0.000 C 
ATOM     10  C   UNL     1      11.704  11.975  20.063  0.00  0.00    +0.000 C 
ATOM     11  C   UNL     1      10.517  11.346  19.320  0.00  0.00    +0.000 C 
ATOM     12  C   UNL     1      10.747  11.488  17.805  0.00  0.00    +0.000 C 
ATOM     13  C   UNL     1      10.911  12.969  17.414  0.00  0.00    +0.000 C 
ATOM     14  C   UNL     1      12.080  13.579  18.197  0.00  0.00    +0.000 C 
ATOM     15  C   UNL     1       9.657  13.779  17.769  0.00  0.00    +0.000 C 
ATOM     16  C   UNL     1       9.244  12.084  19.765  0.00  0.00    +0.000 C 
ENDBRANCH   5   7
BRANCH   6  17
ATOM     17  C   UNL     1       7.788  14.360  22.147  0.00  0.00    +0.000 A 
ATOM     18  C   UNL     1       8.531  15.308  22.856  0.00  0.00    +0.000 A 
ATOM     19  C   UNL     1       8.948  15.192  24.194  0.00  0.00    +0.000 A 
ATOM     20  C   UNL     1       8.637  14.063  24.904  0.00  0.00    +0.000 A 
ATOM     21 CL   UNL     1       9.088  13.922  26.549  0.00  0.00    +0.000 Cl
ATOM     22  C   UNL     1       7.952  13.051  24.257  0.00  0.00    +0.000 A 
ATOM     23  C   UNL     1       7.551  13.203  22.910  0.00  0.00    +0.000 A 
ENDBRANCH   6  17
BRANCH   3  24
ATOM     24  C   UNL     1       4.945  15.615  18.117  0.00  0.00    +0.000 C 
BRANCH  24  25
ATOM     25  N   UNL     1       4.064  14.475  17.899  0.00  0.00    +0.000 N 
ATOM     26  H   UNL     1       4.485  13.629  18.274  0.00  0.00    +0.000 HD
BRANCH  25  27
ATOM     27  C   UNL     1       2.711  14.581  18.288  0.00  0.00    +0.000 A 
ATOM     28  C   UNL     1       2.088  15.821  18.517  0.00  0.00    +0.000 A 
ATOM     29  C   UNL     1       0.728  15.913  18.840  0.00  0.00    +0.000 A 
ATOM     30  C   UNL     1      -0.058  14.769  18.916  0.00  0.00    +0.000 A 
ATOM     31  C   UNL     1       0.517  13.526  18.648  0.00  0.00    +0.000 A 
ATOM     32  C   UNL     1       1.877  13.440  18.326  0.00  0.00    +0.000 A 
ATOM     33 CL   UNL     1       2.525  11.866  17.999  0.00  0.00    +0.000 Cl
ENDBRANCH  25  27
ENDBRANCH  24  25
ENDBRANCH   3  24
TORSDOF 5
ENDMDL
MODEL 5
REMARK VINA RESULT:      -7.6      9.107     11.787
REMARK  Name = 
REMARK  5 active torsions:
REMARK  status: ('A' for Active; 'I' for Inactive)
REMARK    1  A    between atoms: N_3  and  C_4
REMARK    2  A    between atoms: C_4  and  N_5
REMARK    3  A    between atoms: N_5  and  C_6
REMARK    4  A    between atoms: C_14  and  C_15
REMARK    5  A    between atoms: N_25  and  C_26
REMARK                            x       y       z     vdW  Elec       q    Type
REMARK                         _______ _______ _______ _____ _____    ______ ____
ROOT
ATOM      1  S   UNL     1       4.889  15.878  21.235  0.00  0.00    +0.000 S 
ATOM      2  C   UNL     1       6.205  15.304  20.368  0.00  0.00    +0.000 A 
ATOM      3  N   UNL     1       6.268  15.453  18.971  0.00  0.00    +0.000 N 
ATOM      4  N   UNL     1       7.398  14.848  18.499  0.00  0.00    +0.000 NA
ATOM      5  C   UNL     1       8.020  14.364  19.539  0.00  0.00    +0.000 A 
ATOM      6  N   UNL     1       7.389  14.606  20.744  0.00  0.00    +0.000 N 
ENDROOT
BRANCH   5   7
ATOM      7  C   UNL     1       9.342  13.573  19.247  0.00  0.00    +0.000 C 
ATOM      8  C   UNL     1      10.583  14.152  20.033  0.00  0.00    +0.000 C 
ATOM      9  C   UNL     1      11.885  13.367  19.698  0.00  0.00    +0.000 C 
ATOM     10  C   UNL     1      11.723  11.886  20.076  0.00  0.00    +0.000 C 
ATOM     11  C   UNL     1      10.508  11.304  19.340  0.00  0.00    +0.000 C 
ATOM     12  C   UNL     1      10.745  11.415  17.823  0.00  0.00    +0.000 C 
ATOM     13  C   UNL     1      10.980  12.881  17.413  0.00  0.00    +0.000 C 
ATOM     14  C   UNL     1      12.176  13.445  18.190  0.00  0.00    +0.000 C 
ATOM     15  C   UNL     1       9.766  13.754  17.756  0.00  0.00    +0.000 C 
ATOM     16  C   UNL     1       9.271  12.107  19.773  0.00  0.00    +0.000 C 
ENDBRANCH   5   7
BRANCH   6  17
ATOM     17  C   UNL     1       7.803  14.282  22.118  0.00  0.00    +0.000 A 
ATOM     18  C   UNL     1       8.569  15.132  22.922  0.00  0.00    +0.000 A 
ATOM     19  C   UNL     1       8.914  14.903  24.265  0.00  0.00    +0.000 A 
ATOM     20  C   UNL     1       8.500  13.752  24.883  0.00  0.00    +0.000 A 
ATOM     21 CL   UNL     1       8.862  13.476  26.533  0.00  0.00    +0.000 Cl
ATOM     22  C   UNL     1       7.786  12.831  24.139  0.00  0.00    +0.000 A 
ATOM     23  C   UNL     1       7.460  13.096  22.789  0.00  0.00    +0.000 A 
ENDBRANCH   6  17
BRANCH   3  24
ATOM     24  C   UNL     1       5.241  15.980  18.062  0.00  0.00    +0.000 C 
BRANCH  24  25
ATOM     25  N   UNL     1       4.428  14.878  17.564  0.00  0.00    +0.000 N 
ATOM     26  H   UNL     1       4.989  14.032  17.491  0.00  0.00    +0.000 HD
BRANCH  25  27
ATOM     27  C   UNL     1       3.192  14.611  18.192  0.00  0.00    +0.000 A 
ATOM     28  C   UNL     1       2.954  13.426  18.912  0.00  0.00    +0.000 A 
ATOM     29  C   UNL     1       1.745  13.203  19.585  0.00  0.00    +0.000 A 
ATOM     30  C   UNL     1       0.748  14.172  19.583  0.00  0.00    +0.000 A 
ATOM     31  C   UNL     1       0.970  15.379  18.919  0.00  0.00    +0.000 A 
ATOM     32  C   UNL     1       2.180  15.596  18.248  0.00  0.00    +0.000 A 
ATOM     33 CL   UNL     1       2.391  17.119  17.450  0.00  0.00    +0.000 Cl
ENDBRANCH  25  27
ENDBRANCH  24  25
ENDBRANCH   3  24
TORSDOF 5
ENDMDL
MODEL 6
REMARK VINA RESULT:      -7.3      1.179      1.678
REMARK  Name = 
REMARK  5 active torsions:
REMARK  status: ('A' for Active; 'I' for Inactive)
REMARK    1  A    between atoms: N_3  and  C_4
REMARK    2  A    between atoms: C_4  and  N_5
REMARK    3  A    between atoms: N_5  and  C_6
REMARK    4  A    between atoms: C_14  and  C_15
REMARK    5  A    between atoms: N_25  and  C_26
REMARK                            x       y       z     vdW  Elec       q    Type
REMARK                         _______ _______ _______ _____ _____    ______ ____
ROOT
ATOM      1  S   UNL     1       5.948   8.501  17.211  0.00  0.00    +0.000 S 
ATOM      2  C   UNL     1       5.342   7.066  17.831  0.00  0.00    +0.000 A 
ATOM      3  N   UNL     1       6.136   5.907  17.875  0.00  0.00    +0.000 N 
ATOM      4  N   UNL     1       5.396   4.865  18.357  0.00  0.00    +0.000 NA
ATOM      5  C   UNL     1       4.211   5.344  18.621  0.00  0.00    +0.000 A 
ATOM      6  N   UNL     1       4.071   6.693  18.359  0.00  0.00    +0.000 N 
ENDROOT
BRANCH   5   7
ATOM      7  C   UNL     1       3.153   4.316  19.152  0.00  0.00    +0.000 C 
ATOM      8  C   UNL     1       3.713   2.841  19.207  0.00  0.00    +0.000 C 
ATOM      9  C   UNL     1       2.630   1.840  19.706  0.00  0.00    +0.000 C 
ATOM     10  C   UNL     1       2.159   2.230  21.117  0.00  0.00    +0.000 C 
ATOM     11  C   UNL     1       1.629   3.670  21.095  0.00  0.00    +0.000 C 
ATOM     12  C   UNL     1       0.436   3.746  20.126  0.00  0.00    +0.000 C 
ATOM     13  C   UNL     1       0.852   3.298  18.712  0.00  0.00    +0.000 C 
ATOM     14  C   UNL     1       1.410   1.870  18.771  0.00  0.00    +0.000 C 
ATOM     15  C   UNL     1       1.962   4.195  18.150  0.00  0.00    +0.000 C 
ATOM     16  C   UNL     1       2.779   4.584  20.641  0.00  0.00    +0.000 C 
ENDBRANCH   5   7
BRANCH   6  17
ATOM     17  C   UNL     1       2.928   7.592  18.581  0.00  0.00    +0.000 A 
ATOM     18  C   UNL     1       2.250   7.704  19.798  0.00  0.00    +0.000 A 
ATOM     19  C   UNL     1       1.212   8.610  20.081  0.00  0.00    +0.000 A 
ATOM     20  C   UNL     1       0.780   9.469  19.106  0.00  0.00    +0.000 A 
ATOM     21 CL   UNL     1      -0.445  10.616  19.442  0.00  0.00    +0.000 Cl
ATOM     22  C   UNL     1       1.361   9.383  17.854  0.00  0.00    +0.000 A 
ATOM     23  C   UNL     1       2.401   8.458  17.606  0.00  0.00    +0.000 A 
ENDBRANCH   6  17
BRANCH   3  24
ATOM     24  C   UNL     1       7.485   5.704  17.328  0.00  0.00    +0.000 C 
BRANCH  24  25
ATOM     25  N   UNL     1       7.517   4.458  16.574  0.00  0.00    +0.000 N 
ATOM     26  H   UNL     1       7.013   3.731  17.075  0.00  0.00    +0.000 HD
BRANCH  25  27
ATOM     27  C   UNL     1       7.147   4.482  15.212  0.00  0.00    +0.000 A 
ATOM     28  C   UNL     1       7.949   5.081  14.224  0.00  0.00    +0.000 A 
ATOM     29  C   UNL     1       7.599   5.041  12.867  0.00  0.00    +0.000 A 
ATOM     30  C   UNL     1       6.451   4.374  12.455  0.00  0.00    +0.000 A 
ATOM     31  C   UNL     1       5.657   3.729  13.403  0.00  0.00    +0.000 A 
ATOM     32  C   UNL     1       6.011   3.773  14.758  0.00  0.00    +0.000 A 
ATOM     33 CL   UNL     1       4.984   2.945  15.881  0.00  0.00    +0.000 Cl
ENDBRANCH  25  27
ENDBRANCH  24  25
ENDBRANCH   3  24
TORSDOF 5
ENDMDL
MODEL 7
REMARK VINA RESULT:      -7.3      8.966     11.570
REMARK  Name = 
REMARK  5 active torsions:
REMARK  status: ('A' for Active; 'I' for Inactive)
REMARK    1  A    between atoms: N_3  and  C_4
REMARK    2  A    between atoms: C_4  and  N_5
REMARK    3  A    between atoms: N_5  and  C_6
REMARK    4  A    between atoms: C_14  and  C_15
REMARK    5  A    between atoms: N_25  and  C_26
REMARK                            x       y       z     vdW  Elec       q    Type
REMARK                         _______ _______ _______ _____ _____    ______ ____
ROOT
ATOM      1  S   UNL     1       4.374  15.941  21.299  0.00  0.00    +0.000 S 
ATOM      2  C   UNL     1       5.731  15.376  20.493  0.00  0.00    +0.000 A 
ATOM      3  N   UNL     1       5.909  15.623  19.120  0.00  0.00    +0.000 N 
ATOM      4  N   UNL     1       7.049  15.004  18.690  0.00  0.00    +0.000 NA
ATOM      5  C   UNL     1       7.569  14.420  19.734  0.00  0.00    +0.000 A 
ATOM      6  N   UNL     1       6.856  14.601  20.903  0.00  0.00    +0.000 N 
ENDROOT
BRANCH   5   7
ATOM      7  C   UNL     1       8.879  13.596  19.483  0.00  0.00    +0.000 C 
ATOM      8  C   UNL     1      10.162  14.299  20.076  0.00  0.00    +0.000 C 
ATOM      9  C   UNL     1      11.450  13.474  19.782  0.00  0.00    +0.000 C 
ATOM     10  C   UNL     1      11.335  12.073  20.407  0.00  0.00    +0.000 C 
ATOM     11  C   UNL     1      10.081  11.376  19.862  0.00  0.00    +0.000 C 
ATOM     12  C   UNL     1      10.212  11.238  18.335  0.00  0.00    +0.000 C 
ATOM     13  C   UNL     1      10.397  12.618  17.676  0.00  0.00    +0.000 C 
ATOM     14  C   UNL     1      11.635  13.305  18.265  0.00  0.00    +0.000 C 
ATOM     15  C   UNL     1       9.197  13.532  17.956  0.00  0.00    +0.000 C 
ATOM     16  C   UNL     1       8.865  12.236  20.244  0.00  0.00    +0.000 C 
ENDBRANCH   5   7
BRANCH   6  17
ATOM     17  C   UNL     1       7.149  14.161  22.275  0.00  0.00    +0.000 A 
ATOM     18  C   UNL     1       6.474  13.121  22.921  0.00  0.00    +0.000 A 
ATOM     19  C   UNL     1       6.777  12.610  24.195  0.00  0.00    +0.000 A 
ATOM     20  C   UNL     1       7.807  13.155  24.915  0.00  0.00    +0.000 A 
ATOM     21 CL   UNL     1       8.228  12.515  26.446  0.00  0.00    +0.000 Cl
ATOM     22  C   UNL     1       8.489  14.227  24.371  0.00  0.00    +0.000 A 
ATOM     23  C   UNL     1       8.154  14.716  23.087  0.00  0.00    +0.000 A 
ENDBRANCH   6  17
BRANCH   3  24
ATOM     24  C   UNL     1       4.976  16.257  18.179  0.00  0.00    +0.000 C 
BRANCH  24  25
ATOM     25  N   UNL     1       4.244  15.225  17.456  0.00  0.00    +0.000 N 
ATOM     26  H   UNL     1       4.876  14.483  17.167  0.00  0.00    +0.000 HD
BRANCH  25  27
ATOM     27  C   UNL     1       3.073  14.693  18.040  0.00  0.00    +0.000 A 
ATOM     28  C   UNL     1       2.998  13.366  18.500  0.00  0.00    +0.000 A 
ATOM     29  C   UNL     1       1.852  12.870  19.135  0.00  0.00    +0.000 A 
ATOM     30  C   UNL     1       0.756  13.697  19.356  0.00  0.00    +0.000 A 
ATOM     31  C   UNL     1       0.814  15.031  18.955  0.00  0.00    +0.000 A 
ATOM     32  C   UNL     1       1.962  15.521  18.320  0.00  0.00    +0.000 A 
ATOM     33 CL   UNL     1       1.970  17.190  17.855  0.00  0.00    +0.000 Cl
ENDBRANCH  25  27
ENDBRANCH  24  25
ENDBRANCH   3  24
TORSDOF 5
ENDMDL
MODEL 8
REMARK VINA RESULT:      -7.2      9.128     12.135
REMARK  Name = 
REMARK  5 active torsions:
REMARK  status: ('A' for Active; 'I' for Inactive)
REMARK    1  A    between atoms: N_3  and  C_4
REMARK    2  A    between atoms: C_4  and  N_5
REMARK    3  A    between atoms: N_5  and  C_6
REMARK    4  A    between atoms: C_14  and  C_15
REMARK    5  A    between atoms: N_25  and  C_26
REMARK                            x       y       z     vdW  Elec       q    Type
REMARK                         _______ _______ _______ _____ _____    ______ ____
ROOT
ATOM      1  S   UNL     1       6.230  17.752  20.153  0.00  0.00    +0.000 S 
ATOM      2  C   UNL     1       6.996  16.384  19.557  0.00  0.00    +0.000 A 
ATOM      3  N   UNL     1       6.509  15.724  18.416  0.00  0.00    +0.000 N 
ATOM      4  N   UNL     1       7.262  14.610  18.177  0.00  0.00    +0.000 NA
ATOM      5  C   UNL     1       8.182  14.581  19.101  0.00  0.00    +0.000 A 
ATOM      6  N   UNL     1       8.130  15.636  19.991  0.00  0.00    +0.000 N 
ENDROOT
BRANCH   5   7
ATOM      7  C   UNL     1       9.157  13.354  19.067  0.00  0.00    +0.000 C 
ATOM      8  C   UNL     1       8.736  12.272  17.997  0.00  0.00    +0.000 C 
ATOM      9  C   UNL     1       9.703  11.052  18.009  0.00  0.00    +0.000 C 
ATOM     10  C   UNL     1      11.137  11.510  17.693  0.00  0.00    +0.000 C 
ATOM     11  C   UNL     1      11.563  12.579  18.707  0.00  0.00    +0.000 C 
ATOM     12  C   UNL     1      11.529  11.967  20.119  0.00  0.00    +0.000 C 
ATOM     13  C   UNL     1      10.123  11.435  20.450  0.00  0.00    +0.000 C 
ATOM     14  C   UNL     1       9.709  10.396  19.400  0.00  0.00    +0.000 C 
ATOM     15  C   UNL     1       9.079  12.559  20.408  0.00  0.00    +0.000 C 
ATOM     16  C   UNL     1      10.584  13.758  18.584  0.00  0.00    +0.000 C 
ENDBRANCH   5   7
BRANCH   6  17
ATOM     17  C   UNL     1       9.018  15.982  21.112  0.00  0.00    +0.000 A 
ATOM     18  C   UNL     1       8.739  15.681  22.448  0.00  0.00    +0.000 A 
ATOM     19  C   UNL     1       9.594  15.913  23.539  0.00  0.00    +0.000 A 
ATOM     20  C   UNL     1      10.815  16.498  23.329  0.00  0.00    +0.000 A 
ATOM     21 CL   UNL     1      11.895  16.743  24.634  0.00  0.00    +0.000 Cl
ATOM     22  C   UNL     1      11.144  16.879  22.041  0.00  0.00    +0.000 A 
ATOM     23  C   UNL     1      10.257  16.631  20.969  0.00  0.00    +0.000 A 
ENDBRANCH   6  17
BRANCH   3  24
ATOM     24  C   UNL     1       5.280  15.999  17.659  0.00  0.00    +0.000 C 
BRANCH  24  25
ATOM     25  N   UNL     1       4.439  14.809  17.656  0.00  0.00    +0.000 N 
ATOM     26  H   UNL     1       4.992  13.987  17.886  0.00  0.00    +0.000 HD
BRANCH  25  27
ATOM     27  C   UNL     1       3.235  14.830  18.394  0.00  0.00    +0.000 A 
ATOM     28  C   UNL     1       2.961  13.901  19.414  0.00  0.00    +0.000 A 
ATOM     29  C   UNL     1       1.791  13.974  20.182  0.00  0.00    +0.000 A 
ATOM     30  C   UNL     1       0.873  14.996  19.971  0.00  0.00    +0.000 A 
ATOM     31  C   UNL     1       1.136  15.962  19.000  0.00  0.00    +0.000 A 
ATOM     32  C   UNL     1       2.307  15.885  18.236  0.00  0.00    +0.000 A 
ATOM     33 CL   UNL     1       2.574  17.121  17.051  0.00  0.00    +0.000 Cl
ENDBRANCH  25  27
ENDBRANCH  24  25
ENDBRANCH   3  24
TORSDOF 5
ENDMDL
MODEL 9
REMARK VINA RESULT:      -7.2      5.341      9.532
REMARK  Name = 
REMARK  5 active torsions:
REMARK  status: ('A' for Active; 'I' for Inactive)
REMARK    1  A    between atoms: N_3  and  C_4
REMARK    2  A    between atoms: C_4  and  N_5
REMARK    3  A    between atoms: N_5  and  C_6
REMARK    4  A    between atoms: C_14  and  C_15
REMARK    5  A    between atoms: N_25  and  C_26
REMARK                            x       y       z     vdW  Elec       q    Type
REMARK                         _______ _______ _______ _____ _____    ______ ____
ROOT
ATOM      1  S   UNL     1      -0.949   9.830  19.801  0.00  0.00    +0.000 S 
ATOM      2  C   UNL     1       0.203  10.972  19.374  0.00  0.00    +0.000 A 
ATOM      3  N   UNL     1       1.207  10.668  18.437  0.00  0.00    +0.000 N 
ATOM      4  N   UNL     1       2.054  11.733  18.315  0.00  0.00    +0.000 NA
ATOM      5  C   UNL     1       1.598  12.661  19.112  0.00  0.00    +0.000 A 
ATOM      6  N   UNL     1       0.450  12.311  19.796  0.00  0.00    +0.000 N 
ENDROOT
BRANCH   5   7
ATOM      7  C   UNL     1       2.437  13.983  19.182  0.00  0.00    +0.000 C 
ATOM      8  C   UNL     1       3.643  13.993  18.164  0.00  0.00    +0.000 C 
ATOM      9  C   UNL     1       4.475  15.304  18.280  0.00  0.00    +0.000 C 
ATOM     10  C   UNL     1       3.586  16.523  17.986  0.00  0.00    +0.000 C 
ATOM     11  C   UNL     1       2.392  16.525  18.950  0.00  0.00    +0.000 C 
ATOM     12  C   UNL     1       2.919  16.621  20.393  0.00  0.00    +0.000 C 
ATOM     13  C   UNL     1       3.869  15.450  20.707  0.00  0.00    +0.000 C 
ATOM     14  C   UNL     1       5.032  15.453  19.706  0.00  0.00    +0.000 C 
ATOM     15  C   UNL     1       3.153  14.101  20.564  0.00  0.00    +0.000 C 
ATOM     16  C   UNL     1       1.608  15.222  18.725  0.00  0.00    +0.000 C 
ENDBRANCH   5   7
BRANCH   6  17
ATOM     17  C   UNL     1      -0.383  13.094  20.721  0.00  0.00    +0.000 A 
ATOM     18  C   UNL     1      -1.415  13.944  20.310  0.00  0.00    +0.000 A 
ATOM     19  C   UNL     1      -2.291  14.643  21.159  0.00  0.00    +0.000 A 
ATOM     20  C   UNL     1      -2.153  14.527  22.517  0.00  0.00    +0.000 A 
ATOM     21 CL   UNL     1      -3.241  15.326  23.569  0.00  0.00    +0.000 Cl
ATOM     22  C   UNL     1      -1.119  13.750  23.006  0.00  0.00    +0.000 A 
ATOM     23  C   UNL     1      -0.256  13.063  22.121  0.00  0.00    +0.000 A 
ENDBRANCH   6  17
BRANCH   3  24
ATOM     24  C   UNL     1       1.496   9.378  17.797  0.00  0.00    +0.000 C 
BRANCH  24  25
ATOM     25  N   UNL     1       2.516   8.675  18.565  0.00  0.00    +0.000 N 
ATOM     26  H   UNL     1       2.784   9.225  19.378  0.00  0.00    +0.000 HD
BRANCH  25  27
ATOM     27  C   UNL     1       2.287   7.328  18.921  0.00  0.00    +0.000 A 
ATOM     28  C   UNL     1       2.563   6.262  18.047  0.00  0.00    +0.000 A 
ATOM     29  C   UNL     1       2.391   4.926  18.436  0.00  0.00    +0.000 A 
ATOM     30  C   UNL     1       1.966   4.617  19.723  0.00  0.00    +0.000 A 
ATOM     31  C   UNL     1       1.728   5.649  20.631  0.00  0.00    +0.000 A 
ATOM     32  C   UNL     1       1.901   6.982  20.236  0.00  0.00    +0.000 A 
ATOM     33 CL   UNL     1       1.595   8.214  21.416  0.00  0.00    +0.000 Cl
ENDBRANCH  25  27
ENDBRANCH  24  25
ENDBRANCH   3  24
TORSDOF 5
ENDMDL
