MODEL 1
REMARK VINA RESULT:      -7.1      0.000      0.000
REMARK  Name = 
REMARK  9 active torsions:
REMARK  status: ('A' for Active; 'I' for Inactive)
REMARK    1  A    between atoms: C_1  and  C_2
REMARK    2  A    between atoms: C_5  and  C_6
REMARK    3  A    between atoms: C_6  and  O_8
REMARK    4  A    between atoms: O_8  and  C_9
REMARK    5  A    between atoms: C_9  and  C_10
REMARK    6  A    between atoms: N_12  and  C_13
REMARK    7  A    between atoms: N_12  and  C_14
REMARK    8  A    between atoms: C_14  and  C_15
REMARK    9  A    between atoms: N_17  and  C_18
REMARK                            x       y       z     vdW  Elec       q    Type
REMARK                         _______ _______ _______ _____ _____    ______ ____
ROOT
ATOM      1  C   UNL     1       4.021   3.554  19.060  0.00  0.00    +0.000 C 
ATOM      2  O   UNL     1       4.736   4.428  19.555  0.00  0.00    +0.000 OA
ATOM      3  N   UNL     1       2.873   3.120  19.714  0.00  0.00    +0.000 N 
ATOM      4  C   UNL     1       2.026   2.017  19.277  0.00  0.00    +0.000 C 
ENDROOT
BRANCH   1   5
ATOM      5  C   UNL     1       4.378   2.875  17.728  0.00  0.00    +0.000 C 
BRANCH   5   6
ATOM      6  O   UNL     1       4.333   3.738  16.594  0.00  0.00    +0.000 OA
BRANCH   6   7
ATOM      7  C   UNL     1       5.531   3.946  15.991  0.00  0.00    +0.000 C 
ATOM      8  O   UNL     1       6.008   3.256  15.101  0.00  0.00    +0.000 OA
BRANCH   7  13
ATOM      9  C   UNL     1       8.124   8.516  18.149  0.00  0.00    +0.000 C 
ATOM     10  C   UNL     1       7.455   7.304  17.584  0.00  0.00    +0.000 A 
ATOM     11  C   UNL     1       7.821   6.020  17.977  0.00  0.00    +0.000 A 
ATOM     12  N   UNL     1       7.231   4.899  17.493  0.00  0.00    +0.000 NA
ATOM     13  C   UNL     1       6.234   5.110  16.591  0.00  0.00    +0.000 A 
ATOM     14  C   UNL     1       5.869   6.386  16.190  0.00  0.00    +0.000 A 
ATOM     15  N   UNL     1       6.469   7.506  16.674  0.00  0.00    +0.000 NA
ENDBRANCH   7  13
ENDBRANCH   6   7
ENDBRANCH   5   6
ENDBRANCH   1   5
BRANCH   3  16
ATOM     16  C   UNL     1       2.441   3.822  20.928  0.00  0.00    +0.000 C 
BRANCH  16  17
ATOM     17  C   UNL     1       1.649   5.116  20.683  0.00  0.00    +0.000 C 
ATOM     18  O   UNL     1       0.449   5.056  20.401  0.00  0.00    +0.000 OA
ATOM     19  N   UNL     1       2.407   6.268  20.636  0.00  0.00    +0.000 N 
ATOM     20  H   UNL     1       3.386   6.141  20.384  0.00  0.00    +0.000 HD
BRANCH  19  21
ATOM     21  C   UNL     1       1.840   7.542  20.373  0.00  0.00    +0.000 A 
ATOM     22  C   UNL     1       1.126   8.231  21.362  0.00  0.00    +0.000 A 
ATOM     23  C   UNL     1       0.582   9.491  21.100  0.00  0.00    +0.000 A 
ATOM     24  C   UNL     1       0.728  10.072  19.844  0.00  0.00    +0.000 A 
ATOM     25  C   UNL     1       1.431   9.391  18.847  0.00  0.00    +0.000 A 
ATOM     26  C   UNL     1       2.001   8.143  19.118  0.00  0.00    +0.000 A 
ATOM     27 CL   UNL     1       2.812   7.319  17.831  0.00  0.00    +0.000 Cl
ENDBRANCH  19  21
ENDBRANCH  16  17
ENDBRANCH   3  16
TORSDOF 7
ENDMDL
MODEL 2
REMARK VINA RESULT:      -6.7      3.911      6.292
REMARK  Name = 
REMARK  9 active torsions:
REMARK  status: ('A' for Active; 'I' for Inactive)
REMARK    1  A    between atoms: C_1  and  C_2
REMARK    2  A    between atoms: C_5  and  C_6
REMARK    3  A    between atoms: C_6  and  O_8
REMARK    4  A    between atoms: O_8  and  C_9
REMARK    5  A    between atoms: C_9  and  C_10
REMARK    6  A    between atoms: N_12  and  C_13
REMARK    7  A    between atoms: N_12  and  C_14
REMARK    8  A    between atoms: C_14  and  C_15
REMARK    9  A    between atoms: N_17  and  C_18
REMARK                            x       y       z     vdW  Elec       q    Type
REMARK                         _______ _______ _______ _____ _____    ______ ____
ROOT
ATOM      1  C   UNL     1       7.487   7.210  17.922  0.00  0.00    +0.000 C 
ATOM      2  O   UNL     1       8.306   6.679  18.677  0.00  0.00    +0.000 OA
ATOM      3  N   UNL     1       6.582   6.439  17.201  0.00  0.00    +0.000 N 
ATOM      4  C   UNL     1       5.656   6.952  16.199  0.00  0.00    +0.000 C 
ENDROOT
BRANCH   1   5
ATOM      5  C   UNL     1       7.450   8.732  17.709  0.00  0.00    +0.000 C 
BRANCH   5   6
ATOM      6  O   UNL     1       8.732   9.339  17.567  0.00  0.00    +0.000 OA
BRANCH   6   7
ATOM      7  C   UNL     1       9.140  10.063  18.641  0.00  0.00    +0.000 C 
ATOM      8  O   UNL     1       9.008   9.734  19.811  0.00  0.00    +0.000 OA
BRANCH   7  13
ATOM      9  C   UNL     1      11.219  15.071  16.949  0.00  0.00    +0.000 C 
ATOM     10  C   UNL     1      10.685  13.746  17.390  0.00  0.00    +0.000 A 
ATOM     11  C   UNL     1      11.533  12.711  17.774  0.00  0.00    +0.000 A 
ATOM     12  N   UNL     1      11.085  11.499  18.187  0.00  0.00    +0.000 NA
ATOM     13  C   UNL     1       9.732  11.358  18.215  0.00  0.00    +0.000 A 
ATOM     14  C   UNL     1       8.882  12.382  17.826  0.00  0.00    +0.000 A 
ATOM     15  N   UNL     1       9.337  13.592  17.407  0.00  0.00    +0.000 NA
ENDBRANCH   7  13
ENDBRANCH   6   7
ENDBRANCH   5   6
ENDBRANCH   1   5
BRANCH   3  16
ATOM     16  C   UNL     1       6.513   4.996  17.464  0.00  0.00    +0.000 C 
BRANCH  16  17
ATOM     17  C   UNL     1       5.486   4.579  18.529  0.00  0.00    +0.000 C 
ATOM     18  O   UNL     1       5.874   4.198  19.637  0.00  0.00    +0.000 OA
ATOM     19  N   UNL     1       4.181   4.506  18.089  0.00  0.00    +0.000 N 
ATOM     20  H   UNL     1       4.061   4.352  17.089  0.00  0.00    +0.000 HD
BRANCH  19  21
ATOM     21  C   UNL     1       3.116   4.092  18.931  0.00  0.00    +0.000 A 
ATOM     22  C   UNL     1       2.450   5.010  19.755  0.00  0.00    +0.000 A 
ATOM     23  C   UNL     1       1.393   4.599  20.571  0.00  0.00    +0.000 A 
ATOM     24  C   UNL     1       1.000   3.264  20.590  0.00  0.00    +0.000 A 
ATOM     25  C   UNL     1       1.662   2.338  19.779  0.00  0.00    +0.000 A 
ATOM     26  C   UNL     1       2.700   2.755  18.940  0.00  0.00    +0.000 A 
ATOM     27 CL   UNL     1       3.522   1.558  18.000  0.00  0.00    +0.000 Cl
ENDBRANCH  19  21
ENDBRANCH  16  17
ENDBRANCH   3  16
TORSDOF 7
ENDMDL
MODEL 3
REMARK VINA RESULT:      -6.7      3.796      6.301
REMARK  Name = 
REMARK  9 active torsions:
REMARK  status: ('A' for Active; 'I' for Inactive)
REMARK    1  A    between atoms: C_1  and  C_2
REMARK    2  A    between atoms: C_5  and  C_6
REMARK    3  A    between atoms: C_6  and  O_8
REMARK    4  A    between atoms: O_8  and  C_9
REMARK    5  A    between atoms: C_9  and  C_10
REMARK    6  A    between atoms: N_12  and  C_13
REMARK    7  A    between atoms: N_12  and  C_14
REMARK    8  A    between atoms: C_14  and  C_15
REMARK    9  A    between atoms: N_17  and  C_18
REMARK                            x       y       z     vdW  Elec       q    Type
REMARK                         _______ _______ _______ _____ _____    ______ ____
ROOT
ATOM      1  C   UNL     1       7.542   7.242  17.943  0.00  0.00    +0.000 C 
ATOM      2  O   UNL     1       8.367   6.729  18.704  0.00  0.00    +0.000 OA
ATOM      3  N   UNL     1       6.647   6.452  17.230  0.00  0.00    +0.000 N 
ATOM      4  C   UNL     1       5.715   6.943  16.223  0.00  0.00    +0.000 C 
ENDROOT
BRANCH   1   5
ATOM      5  C   UNL     1       7.487   8.761  17.714  0.00  0.00    +0.000 C 
BRANCH   5   6
ATOM      6  O   UNL     1       8.762   9.389  17.612  0.00  0.00    +0.000 OA
BRANCH   6   7
ATOM      7  C   UNL     1       9.102  10.160  18.676  0.00  0.00    +0.000 C 
ATOM      8  O   UNL     1       8.918   9.873  19.850  0.00  0.00    +0.000 OA
BRANCH   7  13
ATOM      9  C   UNL     1      11.168  15.173  16.982  0.00  0.00    +0.000 C 
ATOM     10  C   UNL     1      10.635  13.846  17.419  0.00  0.00    +0.000 A 
ATOM     11  C   UNL     1      11.421  12.698  17.382  0.00  0.00    +0.000 A 
ATOM     12  N   UNL     1      10.974  11.480  17.777  0.00  0.00    +0.000 NA
ATOM     13  C   UNL     1       9.692  11.450  18.231  0.00  0.00    +0.000 A 
ATOM     14  C   UNL     1       8.901  12.589  18.263  0.00  0.00    +0.000 A 
ATOM     15  N   UNL     1       9.352  13.806  17.858  0.00  0.00    +0.000 NA
ENDBRANCH   7  13
ENDBRANCH   6   7
ENDBRANCH   5   6
ENDBRANCH   1   5
BRANCH   3  16
ATOM     16  C   UNL     1       6.595   5.012  17.508  0.00  0.00    +0.000 C 
BRANCH  16  17
ATOM     17  C   UNL     1       5.544   4.588  18.546  0.00  0.00    +0.000 C 
ATOM     18  O   UNL     1       5.899   4.289  19.689  0.00  0.00    +0.000 OA
ATOM     19  N   UNL     1       4.268   4.414  18.052  0.00  0.00    +0.000 N 
ATOM     20  H   UNL     1       4.205   4.202  17.057  0.00  0.00    +0.000 HD
BRANCH  19  21
ATOM     21  C   UNL     1       3.189   3.980  18.866  0.00  0.00    +0.000 A 
ATOM     22  C   UNL     1       2.857   2.622  18.958  0.00  0.00    +0.000 A 
ATOM     23  C   UNL     1       1.803   2.200  19.772  0.00  0.00    +0.000 A 
ATOM     24  C   UNL     1       1.055   3.129  20.489  0.00  0.00    +0.000 A 
ATOM     25  C   UNL     1       1.371   4.486  20.400  0.00  0.00    +0.000 A 
ATOM     26  C   UNL     1       2.445   4.906  19.609  0.00  0.00    +0.000 A 
ATOM     27 CL   UNL     1       2.758   6.604  19.489  0.00  0.00    +0.000 Cl
ENDBRANCH  19  21
ENDBRANCH  16  17
ENDBRANCH   3  16
TORSDOF 7
ENDMDL
MODEL 4
REMARK VINA RESULT:      -6.6      1.128      1.486
REMARK  Name = 
REMARK  9 active torsions:
REMARK  status: ('A' for Active; 'I' for Inactive)
REMARK    1  A    between atoms: C_1  and  C_2
REMARK    2  A    between atoms: C_5  and  C_6
REMARK    3  A    between atoms: C_6  and  O_8
REMARK    4  A    between atoms: O_8  and  C_9
REMARK    5  A    between atoms: C_9  and  C_10
REMARK    6  A    between atoms: N_12  and  C_13
REMARK    7  A    between atoms: N_12  and  C_14
REMARK    8  A    between atoms: C_14  and  C_15
REMARK    9  A    between atoms: N_17  and  C_18
REMARK                            x       y       z     vdW  Elec       q    Type
REMARK                         _______ _______ _______ _____ _____    ______ ____
ROOT
ATOM      1  C   UNL     1       3.938   4.009  19.271  0.00  0.00    +0.000 C 
ATOM      2  O   UNL     1       4.602   5.011  19.548  0.00  0.00    +0.000 OA
ATOM      3  N   UNL     1       2.846   3.642  20.050  0.00  0.00    +0.000 N 
ATOM      4  C   UNL     1       2.071   2.420  19.882  0.00  0.00    +0.000 C 
ENDROOT
BRANCH   1   5
ATOM      5  C   UNL     1       4.303   3.099  18.087  0.00  0.00    +0.000 C 
BRANCH   5   6
ATOM      6  O   UNL     1       4.276   3.745  16.816  0.00  0.00    +0.000 OA
BRANCH   6   7
ATOM      7  C   UNL     1       5.488   3.883  16.223  0.00  0.00    +0.000 C 
ATOM      8  O   UNL     1       5.980   3.104  15.419  0.00  0.00    +0.000 OA
BRANCH   7  13
ATOM      9  C   UNL     1       8.052   8.637  17.984  0.00  0.00    +0.000 C 
ATOM     10  C   UNL     1       7.391   7.377  17.523  0.00  0.00    +0.000 A 
ATOM     11  C   UNL     1       7.825   6.127  17.955  0.00  0.00    +0.000 A 
ATOM     12  N   UNL     1       7.245   4.965  17.565  0.00  0.00    +0.000 NA
ATOM     13  C   UNL     1       6.187   5.098  16.720  0.00  0.00    +0.000 A 
ATOM     14  C   UNL     1       5.754   6.340  16.280  0.00  0.00    +0.000 A 
ATOM     15  N   UNL     1       6.344   7.501  16.669  0.00  0.00    +0.000 NA
ENDBRANCH   7  13
ENDBRANCH   6   7
ENDBRANCH   5   6
ENDBRANCH   1   5
BRANCH   3  16
ATOM     16  C   UNL     1       2.402   4.545  21.118  0.00  0.00    +0.000 C 
BRANCH  16  17
ATOM     17  C   UNL     1       1.630   5.785  20.640  0.00  0.00    +0.000 C 
ATOM     18  O   UNL     1       0.408   5.720  20.476  0.00  0.00    +0.000 OA
ATOM     19  N   UNL     1       2.413   6.856  20.264  0.00  0.00    +0.000 N 
ATOM     20  H   UNL     1       3.362   6.627  19.972  0.00  0.00    +0.000 HD
BRANCH  19  21
ATOM     21  C   UNL     1       1.862   8.061  19.756  0.00  0.00    +0.000 A 
ATOM     22  C   UNL     1       1.916   8.356  18.386  0.00  0.00    +0.000 A 
ATOM     23  C   UNL     1       1.360   9.538  17.890  0.00  0.00    +0.000 A 
ATOM     24  C   UNL     1       0.760  10.448  18.755  0.00  0.00    +0.000 A 
ATOM     25  C   UNL     1       0.706  10.169  20.123  0.00  0.00    +0.000 A 
ATOM     26  C   UNL     1       1.237   8.972  20.616  0.00  0.00    +0.000 A 
ATOM     27 CL   UNL     1       1.195   8.703  22.324  0.00  0.00    +0.000 Cl
ENDBRANCH  19  21
ENDBRANCH  16  17
ENDBRANCH   3  16
TORSDOF 7
ENDMDL
MODEL 5
REMARK VINA RESULT:      -6.6      4.184      6.418
REMARK  Name = 
REMARK  9 active torsions:
REMARK  status: ('A' for Active; 'I' for Inactive)
REMARK    1  A    between atoms: C_1  and  C_2
REMARK    2  A    between atoms: C_5  and  C_6
REMARK    3  A    between atoms: C_6  and  O_8
REMARK    4  A    between atoms: O_8  and  C_9
REMARK    5  A    between atoms: C_9  and  C_10
REMARK    6  A    between atoms: N_12  and  C_13
REMARK    7  A    between atoms: N_12  and  C_14
REMARK    8  A    between atoms: C_14  and  C_15
REMARK    9  A    between atoms: N_17  and  C_18
REMARK                            x       y       z     vdW  Elec       q    Type
REMARK                         _______ _______ _______ _____ _____    ______ ____
ROOT
ATOM      1  C   UNL     1       7.673   7.510  17.755  0.00  0.00    +0.000 C 
ATOM      2  O   UNL     1       7.087   7.816  16.714  0.00  0.00    +0.000 OA
ATOM      3  N   UNL     1       7.533   6.240  18.303  0.00  0.00    +0.000 N 
ATOM      4  C   UNL     1       8.084   5.814  19.583  0.00  0.00    +0.000 C 
ENDROOT
BRANCH   1   5
ATOM      5  C   UNL     1       8.548   8.519  18.518  0.00  0.00    +0.000 C 
BRANCH   5   6
ATOM      6  O   UNL     1       8.289   9.884  18.198  0.00  0.00    +0.000 OA
BRANCH   6   7
ATOM      7  C   UNL     1       9.355  10.712  18.340  0.00  0.00    +0.000 C 
ATOM      8  O   UNL     1      10.341  10.731  17.618  0.00  0.00    +0.000 OA
BRANCH   7  13
ATOM      9  C   UNL     1       8.765  14.184  22.797  0.00  0.00    +0.000 C 
ATOM     10  C   UNL     1       8.929  13.260  21.633  0.00  0.00    +0.000 A 
ATOM     11  C   UNL     1       9.188  11.904  21.811  0.00  0.00    +0.000 A 
ATOM     12  N   UNL     1       9.334  11.035  20.780  0.00  0.00    +0.000 NA
ATOM     13  C   UNL     1       9.200  11.578  19.539  0.00  0.00    +0.000 A 
ATOM     14  C   UNL     1       8.950  12.929  19.355  0.00  0.00    +0.000 A 
ATOM     15  N   UNL     1       8.811  13.796  20.392  0.00  0.00    +0.000 NA
ENDBRANCH   7  13
ENDBRANCH   6   7
ENDBRANCH   5   6
ENDBRANCH   1   5
BRANCH   3  16
ATOM     16  C   UNL     1       6.799   5.219  17.546  0.00  0.00    +0.000 C 
BRANCH  16  17
ATOM     17  C   UNL     1       5.295   5.141  17.850  0.00  0.00    +0.000 C 
ATOM     18  O   UNL     1       4.514   5.904  17.274  0.00  0.00    +0.000 OA
ATOM     19  N   UNL     1       4.949   4.311  18.895  0.00  0.00    +0.000 N 
ATOM     20  H   UNL     1       5.680   4.143  19.585  0.00  0.00    +0.000 HD
BRANCH  19  21
ATOM     21  C   UNL     1       3.608   4.160  19.336  0.00  0.00    +0.000 A 
ATOM     22  C   UNL     1       3.016   5.111  20.178  0.00  0.00    +0.000 A 
ATOM     23  C   UNL     1       1.691   4.964  20.598  0.00  0.00    +0.000 A 
ATOM     24  C   UNL     1       0.947   3.857  20.199  0.00  0.00    +0.000 A 
ATOM     25  C   UNL     1       1.529   2.899  19.365  0.00  0.00    +0.000 A 
ATOM     26  C   UNL     1       2.846   3.061  18.921  0.00  0.00    +0.000 A 
ATOM     27 CL   UNL     1       3.535   1.816  17.938  0.00  0.00    +0.000 Cl
ENDBRANCH  19  21
ENDBRANCH  16  17
ENDBRANCH   3  16
TORSDOF 7
ENDMDL
MODEL 6
REMARK VINA RESULT:      -6.4      2.243      3.237
REMARK  Name = 
REMARK  9 active torsions:
REMARK  status: ('A' for Active; 'I' for Inactive)
REMARK    1  A    between atoms: C_1  and  C_2
REMARK    2  A    between atoms: C_5  and  C_6
REMARK    3  A    between atoms: C_6  and  O_8
REMARK    4  A    between atoms: O_8  and  C_9
REMARK    5  A    between atoms: C_9  and  C_10
REMARK    6  A    between atoms: N_12  and  C_13
REMARK    7  A    between atoms: N_12  and  C_14
REMARK    8  A    between atoms: C_14  and  C_15
REMARK    9  A    between atoms: N_17  and  C_18
REMARK                            x       y       z     vdW  Elec       q    Type
REMARK                         _______ _______ _______ _____ _____    ______ ____
ROOT
ATOM      1  C   UNL     1       5.164   5.614  18.763  0.00  0.00    +0.000 C 
ATOM      2  O   UNL     1       4.783   6.696  18.308  0.00  0.00    +0.000 OA
ATOM      3  N   UNL     1       4.248   4.630  19.116  0.00  0.00    +0.000 N 
ATOM      4  C   UNL     1       4.582   3.370  19.768  0.00  0.00    +0.000 C 
ENDROOT
BRANCH   1   5
ATOM      5  C   UNL     1       6.653   5.315  18.999  0.00  0.00    +0.000 C 
BRANCH   5   6
ATOM      6  O   UNL     1       7.350   4.839  17.850  0.00  0.00    +0.000 OA
BRANCH   6   7
ATOM      7  C   UNL     1       7.413   5.718  16.819  0.00  0.00    +0.000 C 
ATOM      8  O   UNL     1       7.724   6.897  16.908  0.00  0.00    +0.000 OA
BRANCH   7  13
ATOM      9  C   UNL     1       5.709   3.128  12.059  0.00  0.00    +0.000 C 
ATOM     10  C   UNL     1       6.172   3.812  13.305  0.00  0.00    +0.000 A 
ATOM     11  C   UNL     1       7.198   4.753  13.281  0.00  0.00    +0.000 A 
ATOM     12  N   UNL     1       7.638   5.399  14.389  0.00  0.00    +0.000 NA
ATOM     13  C   UNL     1       6.997   5.075  15.545  0.00  0.00    +0.000 A 
ATOM     14  C   UNL     1       5.980   4.133  15.577  0.00  0.00    +0.000 A 
ATOM     15  N   UNL     1       5.548   3.483  14.464  0.00  0.00    +0.000 NA
ENDBRANCH   7  13
ENDBRANCH   6   7
ENDBRANCH   5   6
ENDBRANCH   1   5
BRANCH   3  16
ATOM     16  C   UNL     1       2.830   4.835  18.800  0.00  0.00    +0.000 C 
BRANCH  16  17
ATOM     17  C   UNL     1       2.096   5.824  19.721  0.00  0.00    +0.000 C 
ATOM     18  O   UNL     1       1.380   5.398  20.631  0.00  0.00    +0.000 OA
ATOM     19  N   UNL     1       2.172   7.147  19.339  0.00  0.00    +0.000 N 
ATOM     20  H   UNL     1       2.346   7.311  18.349  0.00  0.00    +0.000 HD
BRANCH  19  21
ATOM     21  C   UNL     1       1.514   8.184  20.051  0.00  0.00    +0.000 A 
ATOM     22  C   UNL     1       1.151   8.017  21.395  0.00  0.00    +0.000 A 
ATOM     23  C   UNL     1       0.515   9.046  22.094  0.00  0.00    +0.000 A 
ATOM     24  C   UNL     1       0.216  10.247  21.457  0.00  0.00    +0.000 A 
ATOM     25  C   UNL     1       0.566  10.422  20.116  0.00  0.00    +0.000 A 
ATOM     26  C   UNL     1       1.229   9.403  19.424  0.00  0.00    +0.000 A 
ATOM     27 CL   UNL     1       1.588   9.652  17.750  0.00  0.00    +0.000 Cl
ENDBRANCH  19  21
ENDBRANCH  16  17
ENDBRANCH   3  16
TORSDOF 7
ENDMDL
MODEL 7
REMARK VINA RESULT:      -6.4      2.287      3.349
REMARK  Name = 
REMARK  9 active torsions:
REMARK  status: ('A' for Active; 'I' for Inactive)
REMARK    1  A    between atoms: C_1  and  C_2
REMARK    2  A    between atoms: C_5  and  C_6
REMARK    3  A    between atoms: C_6  and  O_8
REMARK    4  A    between atoms: O_8  and  C_9
REMARK    5  A    between atoms: C_9  and  C_10
REMARK    6  A    between atoms: N_12  and  C_13
REMARK    7  A    between atoms: N_12  and  C_14
REMARK    8  A    between atoms: C_14  and  C_15
REMARK    9  A    between atoms: N_17  and  C_18
REMARK                            x       y       z     vdW  Elec       q    Type
REMARK                         _______ _______ _______ _____ _____    ______ ____
ROOT
ATOM      1  C   UNL     1       5.396   5.027  19.316  0.00  0.00    +0.000 C 
ATOM      2  O   UNL     1       5.482   4.167  20.197  0.00  0.00    +0.000 OA
ATOM      3  N   UNL     1       4.161   5.372  18.779  0.00  0.00    +0.000 N 
ATOM      4  C   UNL     1       3.959   6.284  17.660  0.00  0.00    +0.000 C 
ENDROOT
BRANCH   1   5
ATOM      5  C   UNL     1       6.640   5.725  18.742  0.00  0.00    +0.000 C 
BRANCH   5   6
ATOM      6  O   UNL     1       7.213   5.073  17.611  0.00  0.00    +0.000 OA
BRANCH   6   7
ATOM      7  C   UNL     1       7.373   5.864  16.520  0.00  0.00    +0.000 C 
ATOM      8  O   UNL     1       7.748   7.028  16.534  0.00  0.00    +0.000 OA
BRANCH   7  13
ATOM      9  C   UNL     1       5.756   2.984  11.898  0.00  0.00    +0.000 C 
ATOM     10  C   UNL     1       6.196   3.745  13.108  0.00  0.00    +0.000 A 
ATOM     11  C   UNL     1       7.170   4.737  13.029  0.00  0.00    +0.000 A 
ATOM     12  N   UNL     1       7.587   5.453  14.103  0.00  0.00    +0.000 NA
ATOM     13  C   UNL     1       6.978   5.145  15.280  0.00  0.00    +0.000 A 
ATOM     14  C   UNL     1       6.012   4.153  15.366  0.00  0.00    +0.000 A 
ATOM     15  N   UNL     1       5.603   3.434  14.287  0.00  0.00    +0.000 NA
ENDBRANCH   7  13
ENDBRANCH   6   7
ENDBRANCH   5   6
ENDBRANCH   1   5
BRANCH   3  16
ATOM     16  C   UNL     1       2.945   4.811  19.379  0.00  0.00    +0.000 C 
BRANCH  16  17
ATOM     17  C   UNL     1       2.035   5.832  20.080  0.00  0.00    +0.000 C 
ATOM     18  O   UNL     1       0.995   5.453  20.625  0.00  0.00    +0.000 OA
ATOM     19  N   UNL     1       2.385   7.153  19.896  0.00  0.00    +0.000 N 
ATOM     20  H   UNL     1       2.926   7.353  19.055  0.00  0.00    +0.000 HD
BRANCH  19  21
ATOM     21  C   UNL     1       1.625   8.224  20.434  0.00  0.00    +0.000 A 
ATOM     22  C   UNL     1       1.380   8.313  21.812  0.00  0.00    +0.000 A 
ATOM     23  C   UNL     1       0.643   9.377  22.337  0.00  0.00    +0.000 A 
ATOM     24  C   UNL     1       0.125  10.356  21.494  0.00  0.00    +0.000 A 
ATOM     25  C   UNL     1       0.356  10.274  20.119  0.00  0.00    +0.000 A 
ATOM     26  C   UNL     1       1.119   9.225  19.596  0.00  0.00    +0.000 A 
ATOM     27 CL   UNL     1       1.326   9.142  17.880  0.00  0.00    +0.000 Cl
ENDBRANCH  19  21
ENDBRANCH  16  17
ENDBRANCH   3  16
TORSDOF 7
ENDMDL
MODEL 8
REMARK VINA RESULT:      -6.4      2.712      4.004
REMARK  Name = 
REMARK  9 active torsions:
REMARK  status: ('A' for Active; 'I' for Inactive)
REMARK    1  A    between atoms: C_1  and  C_2
REMARK    2  A    between atoms: C_5  and  C_6
REMARK    3  A    between atoms: C_6  and  O_8
REMARK    4  A    between atoms: O_8  and  C_9
REMARK    5  A    between atoms: C_9  and  C_10
REMARK    6  A    between atoms: N_12  and  C_13
REMARK    7  A    between atoms: N_12  and  C_14
REMARK    8  A    between atoms: C_14  and  C_15
REMARK    9  A    between atoms: N_17  and  C_18
REMARK                            x       y       z     vdW  Elec       q    Type
REMARK                         _______ _______ _______ _____ _____    ______ ____
ROOT
ATOM      1  C   UNL     1       2.713   6.086  19.751  0.00  0.00    +0.000 C 
ATOM      2  O   UNL     1       2.552   5.146  20.532  0.00  0.00    +0.000 OA
ATOM      3  N   UNL     1       2.028   7.283  19.928  0.00  0.00    +0.000 N 
ATOM      4  C   UNL     1       2.055   8.409  19.004  0.00  0.00    +0.000 C 
ENDROOT
BRANCH   1   5
ATOM      5  C   UNL     1       3.638   5.974  18.528  0.00  0.00    +0.000 C 
BRANCH   5   6
ATOM      6  O   UNL     1       5.012   5.762  18.845  0.00  0.00    +0.000 OA
BRANCH   6   7
ATOM      7  C   UNL     1       5.506   4.559  18.456  0.00  0.00    +0.000 C 
ATOM      8  O   UNL     1       5.565   3.556  19.152  0.00  0.00    +0.000 OA
BRANCH   7  13
ATOM      9  C   UNL     1       7.593   4.983  13.190  0.00  0.00    +0.000 C 
ATOM     10  C   UNL     1       7.030   4.865  14.570  0.00  0.00    +0.000 A 
ATOM     11  C   UNL     1       6.068   3.909  14.884  0.00  0.00    +0.000 A 
ATOM     12  N   UNL     1       5.542   3.768  16.126  0.00  0.00    +0.000 NA
ATOM     13  C   UNL     1       6.028   4.624  17.065  0.00  0.00    +0.000 A 
ATOM     14  C   UNL     1       6.981   5.583  16.757  0.00  0.00    +0.000 A 
ATOM     15  N   UNL     1       7.500   5.725  15.508  0.00  0.00    +0.000 NA
ENDBRANCH   7  13
ENDBRANCH   6   7
ENDBRANCH   5   6
ENDBRANCH   1   5
BRANCH   3  16
ATOM     16  C   UNL     1       1.225   7.467  21.143  0.00  0.00    +0.000 C 
BRANCH  16  17
ATOM     17  C   UNL     1       1.001   8.929  21.558  0.00  0.00    +0.000 C 
ATOM     18  O   UNL     1       1.805   9.481  22.314  0.00  0.00    +0.000 OA
ATOM     19  N   UNL     1      -0.206   9.471  21.170  0.00  0.00    +0.000 N 
ATOM     20  H   UNL     1      -0.958   8.802  21.008  0.00  0.00    +0.000 HD
BRANCH  19  21
ATOM     21  C   UNL     1      -0.592  10.794  21.511  0.00  0.00    +0.000 A 
ATOM     22  C   UNL     1      -1.057  11.100  22.798  0.00  0.00    +0.000 A 
ATOM     23  C   UNL     1      -1.422  12.406  23.131  0.00  0.00    +0.000 A 
ATOM     24  C   UNL     1      -1.347  13.420  22.181  0.00  0.00    +0.000 A 
ATOM     25  C   UNL     1      -0.892  13.126  20.893  0.00  0.00    +0.000 A 
ATOM     26  C   UNL     1      -0.498  11.824  20.568  0.00  0.00    +0.000 A 
ATOM     27 CL   UNL     1       0.002  11.504  18.943  0.00  0.00    +0.000 Cl
ENDBRANCH  19  21
ENDBRANCH  16  17
ENDBRANCH   3  16
TORSDOF 7
ENDMDL
MODEL 9
REMARK VINA RESULT:      -6.4      2.599      4.008
REMARK  Name = 
REMARK  9 active torsions:
REMARK  status: ('A' for Active; 'I' for Inactive)
REMARK    1  A    between atoms: C_1  and  C_2
REMARK    2  A    between atoms: C_5  and  C_6
REMARK    3  A    between atoms: C_6  and  O_8
REMARK    4  A    between atoms: O_8  and  C_9
REMARK    5  A    between atoms: C_9  and  C_10
REMARK    6  A    between atoms: N_12  and  C_13
REMARK    7  A    between atoms: N_12  and  C_14
REMARK    8  A    between atoms: C_14  and  C_15
REMARK    9  A    between atoms: N_17  and  C_18
REMARK                            x       y       z     vdW  Elec       q    Type
REMARK                         _______ _______ _______ _____ _____    ______ ____
ROOT
ATOM      1  C   UNL     1       2.196   5.972  19.920  0.00  0.00    +0.000 C 
ATOM      2  O   UNL     1       2.013   5.255  20.906  0.00  0.00    +0.000 OA
ATOM      3  N   UNL     1       2.047   7.352  20.008  0.00  0.00    +0.000 N 
ATOM      4  C   UNL     1       2.124   8.276  18.884  0.00  0.00    +0.000 C 
ENDROOT
BRANCH   1   5
ATOM      5  C   UNL     1       2.553   5.384  18.545  0.00  0.00    +0.000 C 
BRANCH   5   6
ATOM      6  O   UNL     1       3.590   4.405  18.573  0.00  0.00    +0.000 OA
BRANCH   6   7
ATOM      7  C   UNL     1       4.846   4.911  18.652  0.00  0.00    +0.000 C 
ATOM      8  O   UNL     1       5.363   5.378  19.657  0.00  0.00    +0.000 OA
BRANCH   7  13
ATOM      9  C   UNL     1       7.505   4.955  13.632  0.00  0.00    +0.000 C 
ATOM     10  C   UNL     1       6.792   4.937  14.946  0.00  0.00    +0.000 A 
ATOM     11  C   UNL     1       5.758   4.041  15.201  0.00  0.00    +0.000 A 
ATOM     12  N   UNL     1       5.095   3.990  16.383  0.00  0.00    +0.000 NA
ATOM     13  C   UNL     1       5.517   4.877  17.325  0.00  0.00    +0.000 A 
ATOM     14  C   UNL     1       6.541   5.777  17.075  0.00  0.00    +0.000 A 
ATOM     15  N   UNL     1       7.198   5.828  15.886  0.00  0.00    +0.000 NA
ENDBRANCH   7  13
ENDBRANCH   6   7
ENDBRANCH   5   6
ENDBRANCH   1   5
BRANCH   3  16
ATOM     16  C   UNL     1       1.818   7.958  21.325  0.00  0.00    +0.000 C 
BRANCH  16  17
ATOM     17  C   UNL     1       0.481   8.699  21.475  0.00  0.00    +0.000 C 
ATOM     18  O   UNL     1      -0.579   8.089  21.312  0.00  0.00    +0.000 OA
ATOM     19  N   UNL     1       0.581  10.066  21.623  0.00  0.00    +0.000 N 
ATOM     20  H   UNL     1       1.429  10.489  21.247  0.00  0.00    +0.000 HD
BRANCH  19  21
ATOM     21  C   UNL     1      -0.559  10.907  21.727  0.00  0.00    +0.000 A 
ATOM     22  C   UNL     1      -1.171  11.139  22.966  0.00  0.00    +0.000 A 
ATOM     23  C   UNL     1      -2.284  11.978  23.064  0.00  0.00    +0.000 A 
ATOM     24  C   UNL     1      -2.812  12.580  21.926  0.00  0.00    +0.000 A 
ATOM     25  C   UNL     1      -2.214  12.350  20.684  0.00  0.00    +0.000 A 
ATOM     26  C   UNL     1      -1.082  11.534  20.590  0.00  0.00    +0.000 A 
ATOM     27 CL   UNL     1      -0.417  11.237  19.020  0.00  0.00    +0.000 Cl
ENDBRANCH  19  21
ENDBRANCH  16  17
ENDBRANCH   3  16
TORSDOF 7
ENDMDL
