MODEL 1
REMARK VINA RESULT:      -7.1      0.000      0.000
REMARK  Name = 
REMARK  9 active torsions:
REMARK  status: ('A' for Active; 'I' for Inactive)
REMARK    1  A    between atoms: C_1  and  C_2
REMARK    2  A    between atoms: C_7  and  C_8
REMARK    3  A    between atoms: C_8  and  N_9
REMARK    4  A    between atoms: N_9  and  C_10
REMARK    5  A    between atoms: C_10  and  C_11
REMARK    6  A    between atoms: C_11  and  C_12
REMARK    7  A    between atoms: C_12  and  O_13
REMARK    8  A    between atoms: O_13  and  C_14
REMARK    9  A    between atoms: C_21  and  O_22
REMARK                            x       y       z     vdW  Elec       q    Type
REMARK                         _______ _______ _______ _____ _____    ______ ____
ROOT
ATOM      1  C   UNL     1       8.600   8.413  17.995  0.00  0.00    +0.000 C 
ATOM      2  C   UNL     1       7.745   7.201  18.214  0.00  0.00    +0.000 A 
ATOM      3  C   UNL     1       7.844   6.443  19.378  0.00  0.00    +0.000 A 
ATOM      4  C   UNL     1       7.024   5.324  19.563  0.00  0.00    +0.000 A 
ATOM      5  C   UNL     1       6.088   4.934  18.614  0.00  0.00    +0.000 A 
ATOM      6  N   UNL     1       5.327   3.845  18.847  0.00  0.00    +0.000 NA
ATOM      7  C   UNL     1       4.410   3.477  17.916  0.00  0.00    +0.000 A 
ATOM      8  C   UNL     1       4.236   4.168  16.723  0.00  0.00    +0.000 A 
ATOM      9  C   UNL     1       5.032   5.279  16.490  0.00  0.00    +0.000 A 
ATOM     10  C   UNL     1       5.979   5.697  17.437  0.00  0.00    +0.000 A 
ATOM     11  C   UNL     1       6.807   6.823  17.248  0.00  0.00    +0.000 A 
ENDROOT
BRANCH   9  12
ATOM     12  O   UNL     1       4.901   5.971  15.314  0.00  0.00    +0.000 OA
ATOM     13  H   UNL     1       4.023   6.386  15.287  0.00  0.00    +0.000 HD
ENDBRANCH   9  12
BRANCH   7  14
ATOM     14  C   UNL     1       3.599   2.218  18.179  0.00  0.00    +0.000 C 
BRANCH  14  15
ATOM     15  N   UNL     1       2.677   2.432  19.300  0.00  0.00    +0.000 NA
ATOM     16  H   UNL     1       3.206   2.943  20.006  0.00  0.00    +0.000 HD
BRANCH  15  17
ATOM     17  C   UNL     1       1.487   3.188  18.914  0.00  0.00    +0.000 C 
BRANCH  17  18
ATOM     18  C   UNL     1       0.970   4.032  20.089  0.00  0.00    +0.000 C 
BRANCH  18  19
ATOM     19  C   UNL     1       2.112   4.748  20.803  0.00  0.00    +0.000 C 
BRANCH  19  20
ATOM     20  O   UNL     1       2.889   5.526  19.893  0.00  0.00    +0.000 OA
BRANCH  20  21
ATOM     21  C   UNL     1       2.365   6.766  19.617  0.00  0.00    +0.000 A 
ATOM     22  C   UNL     1       1.740   7.612  20.543  0.00  0.00    +0.000 A 
ATOM     23  C   UNL     1       1.250   8.859  20.150  0.00  0.00    +0.000 A 
ATOM     24  C   UNL     1       1.382   9.271  18.827  0.00  0.00    +0.000 A 
ATOM     25  C   UNL     1       2.000   8.436  17.897  0.00  0.00    +0.000 A 
ATOM     26  C   UNL     1       2.488   7.187  18.292  0.00  0.00    +0.000 A 
ENDBRANCH  20  21
ENDBRANCH  19  20
ENDBRANCH  18  19
ENDBRANCH  17  18
ENDBRANCH  15  17
ENDBRANCH  14  15
ENDBRANCH   7  14
TORSDOF 8
ENDMDL
MODEL 2
REMARK VINA RESULT:      -6.9      0.527      1.125
REMARK  Name = 
REMARK  9 active torsions:
REMARK  status: ('A' for Active; 'I' for Inactive)
REMARK    1  A    between atoms: C_1  and  C_2
REMARK    2  A    between atoms: C_7  and  C_8
REMARK    3  A    between atoms: C_8  and  N_9
REMARK    4  A    between atoms: N_9  and  C_10
REMARK    5  A    between atoms: C_10  and  C_11
REMARK    6  A    between atoms: C_11  and  C_12
REMARK    7  A    between atoms: C_12  and  O_13
REMARK    8  A    between atoms: O_13  and  C_14
REMARK    9  A    between atoms: C_21  and  O_22
REMARK                            x       y       z     vdW  Elec       q    Type
REMARK                         _______ _______ _______ _____ _____    ______ ____
ROOT
ATOM      1  C   UNL     1       8.575   8.680  17.930  0.00  0.00    +0.000 C 
ATOM      2  C   UNL     1       7.768   7.434  18.143  0.00  0.00    +0.000 A 
ATOM      3  C   UNL     1       7.959   6.627  19.262  0.00  0.00    +0.000 A 
ATOM      4  C   UNL     1       7.183   5.477  19.443  0.00  0.00    +0.000 A 
ATOM      5  C   UNL     1       6.201   5.103  18.535  0.00  0.00    +0.000 A 
ATOM      6  N   UNL     1       5.486   3.983  18.762  0.00  0.00    +0.000 NA
ATOM      7  C   UNL     1       4.523   3.630  17.872  0.00  0.00    +0.000 A 
ATOM      8  C   UNL     1       4.257   4.369  16.726  0.00  0.00    +0.000 A 
ATOM      9  C   UNL     1       5.006   5.513  16.497  0.00  0.00    +0.000 A 
ATOM     10  C   UNL     1       5.999   5.916  17.404  0.00  0.00    +0.000 A 
ATOM     11  C   UNL     1       6.783   7.073  17.219  0.00  0.00    +0.000 A 
ENDROOT
BRANCH   9  12
ATOM     12  O   UNL     1       4.785   6.254  15.365  0.00  0.00    +0.000 OA
ATOM     13  H   UNL     1       5.464   6.945  15.303  0.00  0.00    +0.000 HD
ENDBRANCH   9  12
BRANCH   7  14
ATOM     14  C   UNL     1       3.764   2.336  18.123  0.00  0.00    +0.000 C 
BRANCH  14  15
ATOM     15  N   UNL     1       2.415   2.628  18.624  0.00  0.00    +0.000 NA
ATOM     16  H   UNL     1       1.773   2.126  18.011  0.00  0.00    +0.000 HD
BRANCH  15  17
ATOM     17  C   UNL     1       2.227   2.204  20.011  0.00  0.00    +0.000 C 
BRANCH  17  18
ATOM     18  C   UNL     1       2.041   3.420  20.932  0.00  0.00    +0.000 C 
BRANCH  18  19
ATOM     19  C   UNL     1       1.611   4.653  20.144  0.00  0.00    +0.000 C 
BRANCH  19  20
ATOM     20  O   UNL     1       2.665   5.610  20.056  0.00  0.00    +0.000 OA
BRANCH  20  21
ATOM     21  C   UNL     1       2.277   6.839  19.577  0.00  0.00    +0.000 A 
ATOM     22  C   UNL     1       2.409   7.276  18.253  0.00  0.00    +0.000 A 
ATOM     23  C   UNL     1       1.970   8.547  17.877  0.00  0.00    +0.000 A 
ATOM     24  C   UNL     1       1.395   9.391  18.822  0.00  0.00    +0.000 A 
ATOM     25  C   UNL     1       1.261   8.966  20.143  0.00  0.00    +0.000 A 
ATOM     26  C   UNL     1       1.703   7.694  20.519  0.00  0.00    +0.000 A 
ENDBRANCH  20  21
ENDBRANCH  19  20
ENDBRANCH  18  19
ENDBRANCH  17  18
ENDBRANCH  15  17
ENDBRANCH  14  15
ENDBRANCH   7  14
TORSDOF 8
ENDMDL
MODEL 3
REMARK VINA RESULT:      -6.8      2.752      6.722
REMARK  Name = 
REMARK  9 active torsions:
REMARK  status: ('A' for Active; 'I' for Inactive)
REMARK    1  A    between atoms: C_1  and  C_2
REMARK    2  A    between atoms: C_7  and  C_8
REMARK    3  A    between atoms: C_8  and  N_9
REMARK    4  A    between atoms: N_9  and  C_10
REMARK    5  A    between atoms: C_10  and  C_11
REMARK    6  A    between atoms: C_11  and  C_12
REMARK    7  A    between atoms: C_12  and  O_13
REMARK    8  A    between atoms: O_13  and  C_14
REMARK    9  A    between atoms: C_21  and  O_22
REMARK                            x       y       z     vdW  Elec       q    Type
REMARK                         _______ _______ _______ _____ _____    ______ ____
ROOT
ATOM      1  C   UNL     1      -1.598  11.198  23.152  0.00  0.00    +0.000 C 
ATOM      2  C   UNL     1      -0.665  10.448  22.250  0.00  0.00    +0.000 A 
ATOM      3  C   UNL     1       0.154   9.431  22.735  0.00  0.00    +0.000 A 
ATOM      4  C   UNL     1       1.006   8.738  21.868  0.00  0.00    +0.000 A 
ATOM      5  C   UNL     1       1.064   9.024  20.510  0.00  0.00    +0.000 A 
ATOM      6  N   UNL     1       1.906   8.323  19.724  0.00  0.00    +0.000 NA
ATOM      7  C   UNL     1       1.950   8.606  18.396  0.00  0.00    +0.000 A 
ATOM      8  C   UNL     1       1.171   9.602  17.818  0.00  0.00    +0.000 A 
ATOM      9  C   UNL     1       0.317  10.322  18.638  0.00  0.00    +0.000 A 
ATOM     10  C   UNL     1       0.236  10.047  20.011  0.00  0.00    +0.000 A 
ATOM     11  C   UNL     1      -0.621  10.748  20.885  0.00  0.00    +0.000 A 
ENDROOT
BRANCH   9  12
ATOM     12  O   UNL     1      -0.449  11.326  18.104  0.00  0.00    +0.000 OA
ATOM     13  H   UNL     1      -0.171  12.174  18.488  0.00  0.00    +0.000 HD
ENDBRANCH   9  12
BRANCH   7  14
ATOM     14  C   UNL     1       2.943   7.837  17.539  0.00  0.00    +0.000 C 
BRANCH  14  15
ATOM     15  N   UNL     1       3.468   6.684  18.280  0.00  0.00    +0.000 NA
ATOM     16  H   UNL     1       2.758   5.956  18.207  0.00  0.00    +0.000 HD
BRANCH  15  17
ATOM     17  C   UNL     1       4.742   6.205  17.746  0.00  0.00    +0.000 C 
BRANCH  17  18
ATOM     18  C   UNL     1       4.561   4.859  17.027  0.00  0.00    +0.000 C 
BRANCH  18  19
ATOM     19  C   UNL     1       4.801   3.687  17.973  0.00  0.00    +0.000 C 
BRANCH  19  20
ATOM     20  O   UNL     1       3.689   2.794  17.989  0.00  0.00    +0.000 OA
BRANCH  20  21
ATOM     21  C   UNL     1       2.937   2.846  19.139  0.00  0.00    +0.000 A 
ATOM     22  C   UNL     1       3.419   2.637  20.438  0.00  0.00    +0.000 A 
ATOM     23  C   UNL     1       2.561   2.724  21.537  0.00  0.00    +0.000 A 
ATOM     24  C   UNL     1       1.215   3.023  21.346  0.00  0.00    +0.000 A 
ATOM     25  C   UNL     1       0.726   3.230  20.057  0.00  0.00    +0.000 A 
ATOM     26  C   UNL     1       1.585   3.141  18.957  0.00  0.00    +0.000 A 
ENDBRANCH  20  21
ENDBRANCH  19  20
ENDBRANCH  18  19
ENDBRANCH  17  18
ENDBRANCH  15  17
ENDBRANCH  14  15
ENDBRANCH   7  14
TORSDOF 8
ENDMDL
MODEL 4
REMARK VINA RESULT:      -6.7      2.483      6.308
REMARK  Name = 
REMARK  9 active torsions:
REMARK  status: ('A' for Active; 'I' for Inactive)
REMARK    1  A    between atoms: C_1  and  C_2
REMARK    2  A    between atoms: C_7  and  C_8
REMARK    3  A    between atoms: C_8  and  N_9
REMARK    4  A    between atoms: N_9  and  C_10
REMARK    5  A    between atoms: C_10  and  C_11
REMARK    6  A    between atoms: C_11  and  C_12
REMARK    7  A    between atoms: C_12  and  O_13
REMARK    8  A    between atoms: O_13  and  C_14
REMARK    9  A    between atoms: C_21  and  O_22
REMARK                            x       y       z     vdW  Elec       q    Type
REMARK                         _______ _______ _______ _____ _____    ______ ____
ROOT
ATOM      1  C   UNL     1      -1.384  12.103  21.407  0.00  0.00    +0.000 C 
ATOM      2  C   UNL     1      -0.522  10.903  21.152  0.00  0.00    +0.000 A 
ATOM      3  C   UNL     1      -0.385   9.892  22.101  0.00  0.00    +0.000 A 
ATOM      4  C   UNL     1       0.416   8.777  21.831  0.00  0.00    +0.000 A 
ATOM      5  C   UNL     1       1.089   8.630  20.626  0.00  0.00    +0.000 A 
ATOM      6  N   UNL     1       1.848   7.533  20.424  0.00  0.00    +0.000 NA
ATOM      7  C   UNL     1       2.496   7.394  19.239  0.00  0.00    +0.000 A 
ATOM      8  C   UNL     1       2.422   8.348  18.231  0.00  0.00    +0.000 A 
ATOM      9  C   UNL     1       1.648   9.476  18.454  0.00  0.00    +0.000 A 
ATOM     10  C   UNL     1       0.952   9.644  19.661  0.00  0.00    +0.000 A 
ATOM     11  C   UNL     1       0.148  10.771  19.932  0.00  0.00    +0.000 A 
ENDROOT
BRANCH   9  12
ATOM     12  O   UNL     1       1.570  10.447  17.488  0.00  0.00    +0.000 OA
ATOM     13  H   UNL     1       0.938  10.164  16.807  0.00  0.00    +0.000 HD
ENDBRANCH   9  12
BRANCH   7  14
ATOM     14  C   UNL     1       3.385   6.175  19.054  0.00  0.00    +0.000 C 
BRANCH  14  15
ATOM     15  N   UNL     1       3.535   5.867  17.627  0.00  0.00    +0.000 NA
ATOM     16  H   UNL     1       3.461   6.759  17.138  0.00  0.00    +0.000 HD
BRANCH  15  17
ATOM     17  C   UNL     1       4.813   5.227  17.321  0.00  0.00    +0.000 C 
BRANCH  17  18
ATOM     18  C   UNL     1       4.605   3.988  16.436  0.00  0.00    +0.000 C 
BRANCH  18  19
ATOM     19  C   UNL     1       3.684   2.975  17.107  0.00  0.00    +0.000 C 
BRANCH  19  20
ATOM     20  O   UNL     1       4.152   2.627  18.409  0.00  0.00    +0.000 OA
BRANCH  20  21
ATOM     21  C   UNL     1       3.194   2.697  19.393  0.00  0.00    +0.000 A 
ATOM     22  C   UNL     1       3.427   2.566  20.768  0.00  0.00    +0.000 A 
ATOM     23  C   UNL     1       2.374   2.663  21.680  0.00  0.00    +0.000 A 
ATOM     24  C   UNL     1       1.079   2.893  21.224  0.00  0.00    +0.000 A 
ATOM     25  C   UNL     1       0.836   3.022  19.857  0.00  0.00    +0.000 A 
ATOM     26  C   UNL     1       1.891   2.922  18.945  0.00  0.00    +0.000 A 
ENDBRANCH  20  21
ENDBRANCH  19  20
ENDBRANCH  18  19
ENDBRANCH  17  18
ENDBRANCH  15  17
ENDBRANCH  14  15
ENDBRANCH   7  14
TORSDOF 8
ENDMDL
MODEL 5
REMARK VINA RESULT:      -6.6      2.493      6.388
REMARK  Name = 
REMARK  9 active torsions:
REMARK  status: ('A' for Active; 'I' for Inactive)
REMARK    1  A    between atoms: C_1  and  C_2
REMARK    2  A    between atoms: C_7  and  C_8
REMARK    3  A    between atoms: C_8  and  N_9
REMARK    4  A    between atoms: N_9  and  C_10
REMARK    5  A    between atoms: C_10  and  C_11
REMARK    6  A    between atoms: C_11  and  C_12
REMARK    7  A    between atoms: C_12  and  O_13
REMARK    8  A    between atoms: O_13  and  C_14
REMARK    9  A    between atoms: C_21  and  O_22
REMARK                            x       y       z     vdW  Elec       q    Type
REMARK                         _______ _______ _______ _____ _____    ______ ____
ROOT
ATOM      1  C   UNL     1      -1.121  11.381  22.808  0.00  0.00    +0.000 C 
ATOM      2  C   UNL     1      -0.273  10.404  22.051  0.00  0.00    +0.000 A 
ATOM      3  C   UNL     1       0.331   9.322  22.686  0.00  0.00    +0.000 A 
ATOM      4  C   UNL     1       1.106   8.417  21.953  0.00  0.00    +0.000 A 
ATOM      5  C   UNL     1       1.296   8.552  20.583  0.00  0.00    +0.000 A 
ATOM      6  N   UNL     1       2.056   7.649  19.931  0.00  0.00    +0.000 NA
ATOM      7  C   UNL     1       2.229   7.786  18.591  0.00  0.00    +0.000 A 
ATOM      8  C   UNL     1       1.667   8.832  17.868  0.00  0.00    +0.000 A 
ATOM      9  C   UNL     1       0.897   9.760  18.552  0.00  0.00    +0.000 A 
ATOM     10  C   UNL     1       0.685   9.640  19.933  0.00  0.00    +0.000 A 
ATOM     11  C   UNL     1      -0.094  10.555  20.672  0.00  0.00    +0.000 A 
ENDROOT
BRANCH   9  12
ATOM     12  O   UNL     1       0.346  10.816  17.873  0.00  0.00    +0.000 OA
ATOM     13  H   UNL     1       0.804  11.632  18.133  0.00  0.00    +0.000 HD
ENDBRANCH   9  12
BRANCH   7  14
ATOM     14  C   UNL     1       3.129   6.785  17.885  0.00  0.00    +0.000 C 
BRANCH  14  15
ATOM     15  N   UNL     1       4.378   7.433  17.465  0.00  0.00    +0.000 NA
ATOM     16  H   UNL     1       4.580   8.139  18.173  0.00  0.00    +0.000 HD
BRANCH  15  17
ATOM     17  C   UNL     1       5.491   6.492  17.355  0.00  0.00    +0.000 C 
BRANCH  17  18
ATOM     18  C   UNL     1       5.014   5.148  16.783  0.00  0.00    +0.000 C 
BRANCH  18  19
ATOM     19  C   UNL     1       4.951   4.075  17.865  0.00  0.00    +0.000 C 
BRANCH  19  20
ATOM     20  O   UNL     1       3.858   3.183  17.652  0.00  0.00    +0.000 OA
BRANCH  20  21
ATOM     21  C   UNL     1       2.898   3.218  18.636  0.00  0.00    +0.000 A 
ATOM     22  C   UNL     1       1.538   2.935  18.458  0.00  0.00    +0.000 A 
ATOM     23  C   UNL     1       0.652   2.995  19.536  0.00  0.00    +0.000 A 
ATOM     24  C   UNL     1       1.120   3.337  20.801  0.00  0.00    +0.000 A 
ATOM     25  C   UNL     1       2.472   3.624  20.988  0.00  0.00    +0.000 A 
ATOM     26  C   UNL     1       3.357   3.565  19.907  0.00  0.00    +0.000 A 
ENDBRANCH  20  21
ENDBRANCH  19  20
ENDBRANCH  18  19
ENDBRANCH  17  18
ENDBRANCH  15  17
ENDBRANCH  14  15
ENDBRANCH   7  14
TORSDOF 8
ENDMDL
MODEL 6
REMARK VINA RESULT:      -6.5      2.759      6.790
REMARK  Name = 
REMARK  9 active torsions:
REMARK  status: ('A' for Active; 'I' for Inactive)
REMARK    1  A    between atoms: C_1  and  C_2
REMARK    2  A    between atoms: C_7  and  C_8
REMARK    3  A    between atoms: C_8  and  N_9
REMARK    4  A    between atoms: N_9  and  C_10
REMARK    5  A    between atoms: C_10  and  C_11
REMARK    6  A    between atoms: C_11  and  C_12
REMARK    7  A    between atoms: C_12  and  O_13
REMARK    8  A    between atoms: O_13  and  C_14
REMARK    9  A    between atoms: C_21  and  O_22
REMARK                            x       y       z     vdW  Elec       q    Type
REMARK                         _______ _______ _______ _____ _____    ______ ____
ROOT
ATOM      1  C   UNL     1      -1.730  12.104  22.685  0.00  0.00    +0.000 C 
ATOM      2  C   UNL     1      -0.845  11.014  22.157  0.00  0.00    +0.000 A 
ATOM      3  C   UNL     1      -0.368  10.001  22.985  0.00  0.00    +0.000 A 
ATOM      4  C   UNL     1       0.445   8.989  22.464  0.00  0.00    +0.000 A 
ATOM      5  C   UNL     1       0.798   8.948  21.121  0.00  0.00    +0.000 A 
ATOM      6  N   UNL     1       1.587   7.948  20.677  0.00  0.00    +0.000 NA
ATOM      7  C   UNL     1       1.919   7.913  19.361  0.00  0.00    +0.000 A 
ATOM      8  C   UNL     1       1.493   8.879  18.456  0.00  0.00    +0.000 A 
ATOM      9  C   UNL     1       0.692   9.907  18.926  0.00  0.00    +0.000 A 
ATOM     10  C   UNL     1       0.316   9.966  20.277  0.00  0.00    +0.000 A 
ATOM     11  C   UNL     1      -0.501  10.989  20.802  0.00  0.00    +0.000 A 
ENDROOT
BRANCH   9  12
ATOM     12  O   UNL     1       0.272  10.888  18.065  0.00  0.00    +0.000 OA
ATOM     13  H   UNL     1       1.042  11.402  17.772  0.00  0.00    +0.000 HD
ENDBRANCH   9  12
BRANCH   7  14
ATOM     14  C   UNL     1       2.850   6.806  18.893  0.00  0.00    +0.000 C 
BRANCH  14  15
ATOM     15  N   UNL     1       2.150   5.915  17.959  0.00  0.00    +0.000 NA
ATOM     16  H   UNL     1       2.791   5.765  17.180  0.00  0.00    +0.000 HD
BRANCH  15  17
ATOM     17  C   UNL     1       1.783   4.637  18.567  0.00  0.00    +0.000 C 
BRANCH  17  18
ATOM     18  C   UNL     1       2.057   3.474  17.601  0.00  0.00    +0.000 C 
BRANCH  18  19
ATOM     19  C   UNL     1       3.343   2.739  17.968  0.00  0.00    +0.000 C 
BRANCH  19  20
ATOM     20  O   UNL     1       4.323   3.633  18.493  0.00  0.00    +0.000 OA
BRANCH  20  21
ATOM     21  C   UNL     1       5.222   4.098  17.563  0.00  0.00    +0.000 A 
ATOM     22  C   UNL     1       5.060   4.038  16.172  0.00  0.00    +0.000 A 
ATOM     23  C   UNL     1       6.040   4.552  15.320  0.00  0.00    +0.000 A 
ATOM     24  C   UNL     1       7.189   5.131  15.851  0.00  0.00    +0.000 A 
ATOM     25  C   UNL     1       7.360   5.193  17.233  0.00  0.00    +0.000 A 
ATOM     26  C   UNL     1       6.379   4.676  18.086  0.00  0.00    +0.000 A 
ENDBRANCH  20  21
ENDBRANCH  19  20
ENDBRANCH  18  19
ENDBRANCH  17  18
ENDBRANCH  15  17
ENDBRANCH  14  15
ENDBRANCH   7  14
TORSDOF 8
ENDMDL
MODEL 7
REMARK VINA RESULT:      -6.4      2.220      6.061
REMARK  Name = 
REMARK  9 active torsions:
REMARK  status: ('A' for Active; 'I' for Inactive)
REMARK    1  A    between atoms: C_1  and  C_2
REMARK    2  A    between atoms: C_7  and  C_8
REMARK    3  A    between atoms: C_8  and  N_9
REMARK    4  A    between atoms: N_9  and  C_10
REMARK    5  A    between atoms: C_10  and  C_11
REMARK    6  A    between atoms: C_11  and  C_12
REMARK    7  A    between atoms: C_12  and  O_13
REMARK    8  A    between atoms: O_13  and  C_14
REMARK    9  A    between atoms: C_21  and  O_22
REMARK                            x       y       z     vdW  Elec       q    Type
REMARK                         _______ _______ _______ _____ _____    ______ ____
ROOT
ATOM      1  C   UNL     1      -0.815  11.172  20.874  0.00  0.00    +0.000 C 
ATOM      2  C   UNL     1       0.148  10.467  19.967  0.00  0.00    +0.000 A 
ATOM      3  C   UNL     1       0.551  11.028  18.757  0.00  0.00    +0.000 A 
ATOM      4  C   UNL     1       1.462  10.354  17.937  0.00  0.00    +0.000 A 
ATOM      5  C   UNL     1       2.000   9.123  18.291  0.00  0.00    +0.000 A 
ATOM      6  N   UNL     1       2.872   8.521  17.457  0.00  0.00    +0.000 NA
ATOM      7  C   UNL     1       3.398   7.322  17.816  0.00  0.00    +0.000 A 
ATOM      8  C   UNL     1       3.059   6.681  19.003  0.00  0.00    +0.000 A 
ATOM      9  C   UNL     1       2.153   7.305  19.846  0.00  0.00    +0.000 A 
ATOM     10  C   UNL     1       1.602   8.552  19.513  0.00  0.00    +0.000 A 
ATOM     11  C   UNL     1       0.680   9.229  20.340  0.00  0.00    +0.000 A 
ENDROOT
BRANCH   9  12
ATOM     12  O   UNL     1       1.780   6.692  21.014  0.00  0.00    +0.000 OA
ATOM     13  H   UNL     1       1.348   7.344  21.590  0.00  0.00    +0.000 HD
ENDBRANCH   9  12
BRANCH   7  14
ATOM     14  C   UNL     1       4.340   6.638  16.838  0.00  0.00    +0.000 C 
BRANCH  14  15
ATOM     15  N   UNL     1       5.736   6.935  17.186  0.00  0.00    +0.000 NA
ATOM     16  H   UNL     1       5.707   7.396  18.094  0.00  0.00    +0.000 HD
BRANCH  15  17
ATOM     17  C   UNL     1       6.566   5.733  17.253  0.00  0.00    +0.000 C 
BRANCH  17  18
ATOM     18  C   UNL     1       6.328   4.979  18.570  0.00  0.00    +0.000 C 
BRANCH  18  19
ATOM     19  C   UNL     1       5.431   3.763  18.359  0.00  0.00    +0.000 C 
BRANCH  19  20
ATOM     20  O   UNL     1       4.852   3.323  19.587  0.00  0.00    +0.000 OA
BRANCH  20  21
ATOM     21  C   UNL     1       3.483   3.204  19.557  0.00  0.00    +0.000 A 
ATOM     22  C   UNL     1       2.706   3.018  18.406  0.00  0.00    +0.000 A 
ATOM     23  C   UNL     1       1.317   2.901  18.497  0.00  0.00    +0.000 A 
ATOM     24  C   UNL     1       0.695   2.968  19.739  0.00  0.00    +0.000 A 
ATOM     25  C   UNL     1       1.459   3.156  20.890  0.00  0.00    +0.000 A 
ATOM     26  C   UNL     1       2.849   3.275  20.798  0.00  0.00    +0.000 A 
ENDBRANCH  20  21
ENDBRANCH  19  20
ENDBRANCH  18  19
ENDBRANCH  17  18
ENDBRANCH  15  17
ENDBRANCH  14  15
ENDBRANCH   7  14
TORSDOF 8
ENDMDL
MODEL 8
REMARK VINA RESULT:      -6.4      1.441      2.016
REMARK  Name = 
REMARK  9 active torsions:
REMARK  status: ('A' for Active; 'I' for Inactive)
REMARK    1  A    between atoms: C_1  and  C_2
REMARK    2  A    between atoms: C_7  and  C_8
REMARK    3  A    between atoms: C_8  and  N_9
REMARK    4  A    between atoms: N_9  and  C_10
REMARK    5  A    between atoms: C_10  and  C_11
REMARK    6  A    between atoms: C_11  and  C_12
REMARK    7  A    between atoms: C_12  and  O_13
REMARK    8  A    between atoms: O_13  and  C_14
REMARK    9  A    between atoms: C_21  and  O_22
REMARK                            x       y       z     vdW  Elec       q    Type
REMARK                         _______ _______ _______ _____ _____    ______ ____
ROOT
ATOM      1  C   UNL     1       7.987   8.040  17.635  0.00  0.00    +0.000 C 
ATOM      2  C   UNL     1       6.873   7.051  17.465  0.00  0.00    +0.000 A 
ATOM      3  C   UNL     1       6.020   7.099  16.365  0.00  0.00    +0.000 A 
ATOM      4  C   UNL     1       4.997   6.155  16.225  0.00  0.00    +0.000 A 
ATOM      5  C   UNL     1       4.798   5.144  17.156  0.00  0.00    +0.000 A 
ATOM      6  N   UNL     1       3.793   4.263  16.967  0.00  0.00    +0.000 NA
ATOM      7  C   UNL     1       3.612   3.274  17.879  0.00  0.00    +0.000 A 
ATOM      8  C   UNL     1       4.410   3.142  19.009  0.00  0.00    +0.000 A 
ATOM      9  C   UNL     1       5.432   4.059  19.197  0.00  0.00    +0.000 A 
ATOM     10  C   UNL     1       5.658   5.085  18.267  0.00  0.00    +0.000 A 
ATOM     11  C   UNL     1       6.688   6.039  18.412  0.00  0.00    +0.000 A 
ENDROOT
BRANCH   9  12
ATOM     12  O   UNL     1       6.225   3.971  20.312  0.00  0.00    +0.000 OA
ATOM     13  H   UNL     1       6.711   4.806  20.421  0.00  0.00    +0.000 HD
ENDBRANCH   9  12
BRANCH   7  14
ATOM     14  C   UNL     1       2.443   2.324  17.672  0.00  0.00    +0.000 C 
BRANCH  14  15
ATOM     15  N   UNL     1       1.195   2.945  18.135  0.00  0.00    +0.000 NA
ATOM     16  H   UNL     1       0.440   2.388  17.736  0.00  0.00    +0.000 HD
BRANCH  15  17
ATOM     17  C   UNL     1       1.089   2.975  19.593  0.00  0.00    +0.000 C 
BRANCH  17  18
ATOM     18  C   UNL     1       0.767   4.394  20.087  0.00  0.00    +0.000 C 
BRANCH  18  19
ATOM     19  C   UNL     1       1.938   4.990  20.863  0.00  0.00    +0.000 C 
BRANCH  19  20
ATOM     20  O   UNL     1       2.762   5.798  20.024  0.00  0.00    +0.000 OA
BRANCH  20  21
ATOM     21  C   UNL     1       2.223   7.024  19.713  0.00  0.00    +0.000 A 
ATOM     22  C   UNL     1       1.591   7.890  20.616  0.00  0.00    +0.000 A 
ATOM     23  C   UNL     1       1.086   9.119  20.187  0.00  0.00    +0.000 A 
ATOM     24  C   UNL     1       1.210   9.494  18.853  0.00  0.00    +0.000 A 
ATOM     25  C   UNL     1       1.835   8.638  17.946  0.00  0.00    +0.000 A 
ATOM     26  C   UNL     1       2.338   7.407  18.376  0.00  0.00    +0.000 A 
ENDBRANCH  20  21
ENDBRANCH  19  20
ENDBRANCH  18  19
ENDBRANCH  17  18
ENDBRANCH  15  17
ENDBRANCH  14  15
ENDBRANCH   7  14
TORSDOF 8
ENDMDL
MODEL 9
REMARK VINA RESULT:      -6.3      1.910      2.916
REMARK  Name = 
REMARK  9 active torsions:
REMARK  status: ('A' for Active; 'I' for Inactive)
REMARK    1  A    between atoms: C_1  and  C_2
REMARK    2  A    between atoms: C_7  and  C_8
REMARK    3  A    between atoms: C_8  and  N_9
REMARK    4  A    between atoms: N_9  and  C_10
REMARK    5  A    between atoms: C_10  and  C_11
REMARK    6  A    between atoms: C_11  and  C_12
REMARK    7  A    between atoms: C_12  and  O_13
REMARK    8  A    between atoms: O_13  and  C_14
REMARK    9  A    between atoms: C_21  and  O_22
REMARK                            x       y       z     vdW  Elec       q    Type
REMARK                         _______ _______ _______ _____ _____    ______ ____
ROOT
ATOM      1  C   UNL     1       8.056   5.574  13.014  0.00  0.00    +0.000 C 
ATOM      2  C   UNL     1       7.226   5.047  14.146  0.00  0.00    +0.000 A 
ATOM      3  C   UNL     1       6.229   4.097  13.936  0.00  0.00    +0.000 A 
ATOM      4  C   UNL     1       5.478   3.613  15.013  0.00  0.00    +0.000 A 
ATOM      5  C   UNL     1       5.697   4.044  16.314  0.00  0.00    +0.000 A 
ATOM      6  N   UNL     1       4.940   3.542  17.311  0.00  0.00    +0.000 NA
ATOM      7  C   UNL     1       5.167   3.965  18.581  0.00  0.00    +0.000 A 
ATOM      8  C   UNL     1       6.139   4.909  18.893  0.00  0.00    +0.000 A 
ATOM      9  C   UNL     1       6.903   5.426  17.858  0.00  0.00    +0.000 A 
ATOM     10  C   UNL     1       6.706   5.000  16.536  0.00  0.00    +0.000 A 
ATOM     11  C   UNL     1       7.460   5.492  15.451  0.00  0.00    +0.000 A 
ENDROOT
BRANCH   9  12
ATOM     12  O   UNL     1       7.855   6.375  18.128  0.00  0.00    +0.000 OA
ATOM     13  H   UNL     1       8.528   6.354  17.427  0.00  0.00    +0.000 HD
ENDBRANCH   9  12
BRANCH   7  14
ATOM     14  C   UNL     1       4.268   3.422  19.681  0.00  0.00    +0.000 C 
BRANCH  14  15
ATOM     15  N   UNL     1       2.900   3.248  19.180  0.00  0.00    +0.000 NA
ATOM     16  H   UNL     1       2.922   2.423  18.582  0.00  0.00    +0.000 HD
BRANCH  15  17
ATOM     17  C   UNL     1       1.925   3.070  20.255  0.00  0.00    +0.000 C 
BRANCH  17  18
ATOM     18  C   UNL     1       2.027   4.211  21.278  0.00  0.00    +0.000 C 
BRANCH  18  19
ATOM     19  C   UNL     1       1.506   5.523  20.700  0.00  0.00    +0.000 C 
BRANCH  19  20
ATOM     20  O   UNL     1       2.491   6.166  19.893  0.00  0.00    +0.000 OA
BRANCH  20  21
ATOM     21  C   UNL     1       2.135   7.419  19.454  0.00  0.00    +0.000 A 
ATOM     22  C   UNL     1       2.423   7.953  18.192  0.00  0.00    +0.000 A 
ATOM     23  C   UNL     1       2.003   9.241  17.851  0.00  0.00    +0.000 A 
ATOM     24  C   UNL     1       1.289  10.004  18.770  0.00  0.00    +0.000 A 
ATOM     25  C   UNL     1       0.999   9.482  20.030  0.00  0.00    +0.000 A 
ATOM     26  C   UNL     1       1.423   8.194  20.371  0.00  0.00    +0.000 A 
ENDBRANCH  20  21
ENDBRANCH  19  20
ENDBRANCH  18  19
ENDBRANCH  17  18
ENDBRANCH  15  17
ENDBRANCH  14  15
ENDBRANCH   7  14
TORSDOF 8
ENDMDL
