MODEL 1
REMARK VINA RESULT:      -8.4      0.000      0.000
REMARK  Name = 
REMARK  8 active torsions:
REMARK  status: ('A' for Active; 'I' for Inactive)
REMARK    1  A    between atoms: C_1  and  O_2
REMARK    2  A    between atoms: O_2  and  C_3
REMARK    3  A    between atoms: C_6  and  N_7
REMARK    4  A    between atoms: C_8  and  C_10
REMARK    5  A    between atoms: C_10  and  C_11
REMARK    6  A    between atoms: C_11  and  N_12
REMARK    7  A    between atoms: C_18  and  S_19
REMARK    8  A    between atoms: S_19  and  N_22
REMARK                            x       y       z     vdW  Elec       q    Type
REMARK                         _______ _______ _______ _____ _____    ______ ____
ROOT
ATOM      1  N   UNL     1       3.605   2.251  19.637  0.00  0.00    +0.000 N 
ATOM      2  C   UNL     1       4.876   2.207  20.293  0.00  0.00    +0.000 A 
ATOM      3  O   UNL     1       5.195   1.444  21.192  0.00  0.00    +0.000 OA
ATOM      4  N   UNL     1       5.660   3.246  19.868  0.00  0.00    +0.000 N 
ATOM      5  C   UNL     1       5.044   3.808  18.776  0.00  0.00    +0.000 A 
ATOM      6  C   UNL     1       5.740   4.580  17.873  0.00  0.00    +0.000 A 
ATOM      7  C   UNL     1       5.154   4.788  16.641  0.00  0.00    +0.000 A 
ATOM      8  C   UNL     1       3.809   4.354  16.442  0.00  0.00    +0.000 A 
ATOM      9  C   UNL     1       3.097   3.594  17.451  0.00  0.00    +0.000 A 
ATOM     10  C   UNL     1       3.763   3.268  18.618  0.00  0.00    +0.000 A 
ATOM     11  H   UNL     1       5.921   3.877  20.618  0.00  0.00    +0.000 HD
ENDROOT
BRANCH   7  12
ATOM     12  S   UNL     1       6.130   5.765  15.481  0.00  0.00    +0.000 S 
ATOM     13  O   UNL     1       5.391   6.985  15.253  0.00  0.00    +0.000 OA
ATOM     14  O   UNL     1       7.472   5.808  16.032  0.00  0.00    +0.000 OA
BRANCH  12  15
ATOM     15  N   UNL     1       6.223   4.904  13.991  0.00  0.00    +0.000 NA
ATOM     16  C   UNL     1       7.499   4.941  13.231  0.00  0.00    +0.000 C 
ATOM     17  C   UNL     1       7.365   4.379  11.810  0.00  0.00    +0.000 C 
ATOM     18  C   UNL     1       6.695   3.014  11.804  0.00  0.00    +0.000 C 
ATOM     19  C   UNL     1       5.331   3.136  12.460  0.00  0.00    +0.000 C 
ATOM     20  C   UNL     1       5.440   3.651  13.897  0.00  0.00    +0.000 C 
ENDBRANCH  12  15
ENDBRANCH   7  12
BRANCH   1  21
ATOM     21  C   UNL     1       2.549   2.134  20.651  0.00  0.00    +0.000 C 
BRANCH  21  22
ATOM     22  C   UNL     1       1.833   3.305  21.316  0.00  0.00    +0.000 C 
BRANCH  22  24
ATOM     23  N   UNL     1       2.248   5.633  20.643  0.00  0.00    +0.000 N 
ATOM     24  C   UNL     1       1.390   4.568  20.619  0.00  0.00    +0.000 C 
ATOM     25  O   UNL     1       0.284   4.550  20.067  0.00  0.00    +0.000 OA
ATOM     26  H   UNL     1       3.166   5.478  21.052  0.00  0.00    +0.000 HD
BRANCH  23  30
ATOM     27  C   UNL     1       1.155   9.545  19.448  0.00  0.00    +0.000 A 
ATOM     28  C   UNL     1       1.901   8.743  18.591  0.00  0.00    +0.000 A 
ATOM     29  C   UNL     1       2.278   7.462  18.949  0.00  0.00    +0.000 A 
ATOM     30  C   UNL     1       1.954   6.957  20.207  0.00  0.00    +0.000 A 
ATOM     31  C   UNL     1       1.261   7.782  21.116  0.00  0.00    +0.000 A 
ATOM     32  C   UNL     1       0.843   9.057  20.716  0.00  0.00    +0.000 A 
BRANCH  27  34
ATOM     33  C   UNL     1      -0.242  11.448  19.598  0.00  0.00    +0.000 C 
ATOM     34  O   UNL     1       0.828  10.774  18.952  0.00  0.00    +0.000 OA
ENDBRANCH  27  34
ENDBRANCH  23  30
ENDBRANCH  22  24
ENDBRANCH  21  22
ENDBRANCH   1  21
TORSDOF 7
ENDMDL
MODEL 2
REMARK VINA RESULT:      -8.3      2.496      3.601
REMARK  Name = 
REMARK  8 active torsions:
REMARK  status: ('A' for Active; 'I' for Inactive)
REMARK    1  A    between atoms: C_1  and  O_2
REMARK    2  A    between atoms: O_2  and  C_3
REMARK    3  A    between atoms: C_6  and  N_7
REMARK    4  A    between atoms: C_8  and  C_10
REMARK    5  A    between atoms: C_10  and  C_11
REMARK    6  A    between atoms: C_11  and  N_12
REMARK    7  A    between atoms: C_18  and  S_19
REMARK    8  A    between atoms: S_19  and  N_22
REMARK                            x       y       z     vdW  Elec       q    Type
REMARK                         _______ _______ _______ _____ _____    ______ ____
ROOT
ATOM      1  N   UNL     1       2.190   5.463  19.695  0.00  0.00    +0.000 N 
ATOM      2  C   UNL     1       2.645   4.239  20.281  0.00  0.00    +0.000 A 
ATOM      3  O   UNL     1       1.976   3.476  20.962  0.00  0.00    +0.000 OA
ATOM      4  N   UNL     1       3.994   4.100  20.092  0.00  0.00    +0.000 N 
ATOM      5  C   UNL     1       4.384   5.057  19.185  0.00  0.00    +0.000 A 
ATOM      6  C   UNL     1       5.555   4.938  18.472  0.00  0.00    +0.000 A 
ATOM      7  C   UNL     1       5.686   5.723  17.344  0.00  0.00    +0.000 A 
ATOM      8  C   UNL     1       4.700   6.723  17.089  0.00  0.00    +0.000 A 
ATOM      9  C   UNL     1       3.510   6.845  17.910  0.00  0.00    +0.000 A 
ATOM     10  C   UNL     1       3.331   5.945  18.944  0.00  0.00    +0.000 A 
ATOM     11  H   UNL     1       4.513   4.060  20.962  0.00  0.00    +0.000 HD
ENDROOT
BRANCH   7  12
ATOM     12  S   UNL     1       7.218   5.493  16.421  0.00  0.00    +0.000 S 
ATOM     13  O   UNL     1       7.851   6.789  16.353  0.00  0.00    +0.000 OA
ATOM     14  O   UNL     1       7.895   4.374  17.052  0.00  0.00    +0.000 OA
BRANCH  12  15
ATOM     15  N   UNL     1       6.818   5.002  14.818  0.00  0.00    +0.000 NA
ATOM     16  C   UNL     1       7.853   5.127  13.760  0.00  0.00    +0.000 C 
ATOM     17  C   UNL     1       7.290   4.927  12.347  0.00  0.00    +0.000 C 
ATOM     18  C   UNL     1       6.469   3.651  12.243  0.00  0.00    +0.000 C 
ATOM     19  C   UNL     1       5.344   3.710  13.262  0.00  0.00    +0.000 C 
ATOM     20  C   UNL     1       5.880   3.864  14.687  0.00  0.00    +0.000 C 
ENDBRANCH  12  15
ENDBRANCH   7  12
BRANCH   1  21
ATOM     21  C   UNL     1       1.380   6.185  20.684  0.00  0.00    +0.000 C 
BRANCH  21  22
ATOM     22  C   UNL     1       1.436   7.687  20.941  0.00  0.00    +0.000 C 
BRANCH  22  24
ATOM     23  N   UNL     1       0.351   9.894  20.936  0.00  0.00    +0.000 N 
ATOM     24  C   UNL     1       0.247   8.565  21.247  0.00  0.00    +0.000 C 
ATOM     25  O   UNL     1      -0.741   8.022  21.753  0.00  0.00    +0.000 OA
ATOM     26  H   UNL     1       1.186  10.188  20.437  0.00  0.00    +0.000 HD
BRANCH  23  30
ATOM     27  C   UNL     1      -2.479  12.781  22.194  0.00  0.00    +0.000 A 
ATOM     28  C   UNL     1      -2.211  12.619  20.838  0.00  0.00    +0.000 A 
ATOM     29  C   UNL     1      -1.291  11.689  20.392  0.00  0.00    +0.000 A 
ATOM     30  C   UNL     1      -0.572  10.915  21.302  0.00  0.00    +0.000 A 
ATOM     31  C   UNL     1      -0.778  11.116  22.682  0.00  0.00    +0.000 A 
ATOM     32  C   UNL     1      -1.752  12.027  23.112  0.00  0.00    +0.000 A 
BRANCH  27  34
ATOM     33  C   UNL     1      -3.073  14.695  23.448  0.00  0.00    +0.000 C 
ATOM     34  O   UNL     1      -3.432  13.714  22.488  0.00  0.00    +0.000 OA
ENDBRANCH  27  34
ENDBRANCH  23  30
ENDBRANCH  22  24
ENDBRANCH  21  22
ENDBRANCH   1  21
TORSDOF 7
ENDMDL
MODEL 3
REMARK VINA RESULT:      -8.1      1.862      3.064
REMARK  Name = 
REMARK  8 active torsions:
REMARK  status: ('A' for Active; 'I' for Inactive)
REMARK    1  A    between atoms: C_1  and  O_2
REMARK    2  A    between atoms: O_2  and  C_3
REMARK    3  A    between atoms: C_6  and  N_7
REMARK    4  A    between atoms: C_8  and  C_10
REMARK    5  A    between atoms: C_10  and  C_11
REMARK    6  A    between atoms: C_11  and  N_12
REMARK    7  A    between atoms: C_18  and  S_19
REMARK    8  A    between atoms: S_19  and  N_22
REMARK                            x       y       z     vdW  Elec       q    Type
REMARK                         _______ _______ _______ _____ _____    ______ ____
ROOT
ATOM      1  N   UNL     1       2.065   5.218  19.450  0.00  0.00    +0.000 N 
ATOM      2  C   UNL     1       2.463   3.920  19.902  0.00  0.00    +0.000 A 
ATOM      3  O   UNL     1       1.746   3.102  20.459  0.00  0.00    +0.000 OA
ATOM      4  N   UNL     1       3.815   3.763  19.749  0.00  0.00    +0.000 N 
ATOM      5  C   UNL     1       4.266   4.808  18.980  0.00  0.00    +0.000 A 
ATOM      6  C   UNL     1       5.463   4.740  18.302  0.00  0.00    +0.000 A 
ATOM      7  C   UNL     1       5.661   5.650  17.284  0.00  0.00    +0.000 A 
ATOM      8  C   UNL     1       4.713   6.702  17.114  0.00  0.00    +0.000 A 
ATOM      9  C   UNL     1       3.494   6.763  17.897  0.00  0.00    +0.000 A 
ATOM     10  C   UNL     1       3.248   5.751  18.807  0.00  0.00    +0.000 A 
ATOM     11  H   UNL     1       4.295   3.603  20.627  0.00  0.00    +0.000 HD
ENDROOT
BRANCH   7  12
ATOM     12  S   UNL     1       7.224   5.485  16.399  0.00  0.00    +0.000 S 
ATOM     13  O   UNL     1       7.816   6.801  16.369  0.00  0.00    +0.000 OA
ATOM     14  O   UNL     1       7.920   4.377  17.029  0.00  0.00    +0.000 OA
BRANCH  12  15
ATOM     15  N   UNL     1       6.882   5.009  14.778  0.00  0.00    +0.000 NA
ATOM     16  C   UNL     1       7.919   5.238  13.739  0.00  0.00    +0.000 C 
ATOM     17  C   UNL     1       7.392   5.035  12.313  0.00  0.00    +0.000 C 
ATOM     18  C   UNL     1       6.669   3.705  12.164  0.00  0.00    +0.000 C 
ATOM     19  C   UNL     1       5.529   3.654  13.166  0.00  0.00    +0.000 C 
ATOM     20  C   UNL     1       6.033   3.808  14.603  0.00  0.00    +0.000 C 
ENDBRANCH  12  15
ENDBRANCH   7  12
BRANCH   1  21
ATOM     21  C   UNL     1       1.233   5.841  20.487  0.00  0.00    +0.000 C 
BRANCH  21  22
ATOM     22  C   UNL     1       1.530   7.170  21.175  0.00  0.00    +0.000 C 
BRANCH  22  24
ATOM     23  N   UNL     1       1.166   9.279  19.963  0.00  0.00    +0.000 N 
ATOM     24  C   UNL     1       0.757   8.450  20.972  0.00  0.00    +0.000 C 
ATOM     25  O   UNL     1      -0.198   8.659  21.729  0.00  0.00    +0.000 OA
ATOM     26  H   UNL     1       1.908   8.938  19.357  0.00  0.00    +0.000 HD
BRANCH  23  30
ATOM     27  C   UNL     1      -0.258  13.149  19.003  0.00  0.00    +0.000 A 
ATOM     28  C   UNL     1       0.768  12.999  19.932  0.00  0.00    +0.000 A 
ATOM     29  C   UNL     1       1.255  11.751  20.272  0.00  0.00    +0.000 A 
ATOM     30  C   UNL     1       0.694  10.601  19.719  0.00  0.00    +0.000 A 
ATOM     31  C   UNL     1      -0.393  10.729  18.832  0.00  0.00    +0.000 A 
ATOM     32  C   UNL     1      -0.839  12.004  18.461  0.00  0.00    +0.000 A 
BRANCH  27  34
ATOM     33  C   UNL     1      -0.935  15.243  19.868  0.00  0.00    +0.000 C 
ATOM     34  O   UNL     1      -0.618  14.439  18.742  0.00  0.00    +0.000 OA
ENDBRANCH  27  34
ENDBRANCH  23  30
ENDBRANCH  22  24
ENDBRANCH  21  22
ENDBRANCH   1  21
TORSDOF 7
ENDMDL
MODEL 4
REMARK VINA RESULT:      -8.0      2.084      3.006
REMARK  Name = 
REMARK  8 active torsions:
REMARK  status: ('A' for Active; 'I' for Inactive)
REMARK    1  A    between atoms: C_1  and  O_2
REMARK    2  A    between atoms: O_2  and  C_3
REMARK    3  A    between atoms: C_6  and  N_7
REMARK    4  A    between atoms: C_8  and  C_10
REMARK    5  A    between atoms: C_10  and  C_11
REMARK    6  A    between atoms: C_11  and  N_12
REMARK    7  A    between atoms: C_18  and  S_19
REMARK    8  A    between atoms: S_19  and  N_22
REMARK                            x       y       z     vdW  Elec       q    Type
REMARK                         _______ _______ _______ _____ _____    ______ ____
ROOT
ATOM      1  N   UNL     1       2.114   4.877  19.309  0.00  0.00    +0.000 N 
ATOM      2  C   UNL     1       2.583   3.607  19.775  0.00  0.00    +0.000 A 
ATOM      3  O   UNL     1       1.912   2.759  20.343  0.00  0.00    +0.000 OA
ATOM      4  N   UNL     1       3.941   3.523  19.622  0.00  0.00    +0.000 N 
ATOM      5  C   UNL     1       4.335   4.582  18.840  0.00  0.00    +0.000 A 
ATOM      6  C   UNL     1       5.533   4.571  18.162  0.00  0.00    +0.000 A 
ATOM      7  C   UNL     1       5.681   5.477  17.132  0.00  0.00    +0.000 A 
ATOM      8  C   UNL     1       4.676   6.474  16.951  0.00  0.00    +0.000 A 
ATOM      9  C   UNL     1       3.456   6.478  17.735  0.00  0.00    +0.000 A 
ATOM     10  C   UNL     1       3.267   5.466  18.657  0.00  0.00    +0.000 A 
ATOM     11  H   UNL     1       4.430   3.400  20.502  0.00  0.00    +0.000 HD
ENDROOT
BRANCH   7  12
ATOM     12  S   UNL     1       7.249   5.387  16.247  0.00  0.00    +0.000 S 
ATOM     13  O   UNL     1       7.799   6.721  16.256  0.00  0.00    +0.000 OA
ATOM     14  O   UNL     1       7.979   4.285  16.849  0.00  0.00    +0.000 OA
BRANCH  12  15
ATOM     15  N   UNL     1       6.926   4.946  14.613  0.00  0.00    +0.000 NA
ATOM     16  C   UNL     1       7.957   5.237  13.584  0.00  0.00    +0.000 C 
ATOM     17  C   UNL     1       7.439   5.057  12.151  0.00  0.00    +0.000 C 
ATOM     18  C   UNL     1       6.759   3.709  11.963  0.00  0.00    +0.000 C 
ATOM     19  C   UNL     1       5.620   3.593  12.961  0.00  0.00    +0.000 C 
ATOM     20  C   UNL     1       6.116   3.723  14.402  0.00  0.00    +0.000 C 
ENDBRANCH  12  15
ENDBRANCH   7  12
BRANCH   1  21
ATOM     21  C   UNL     1       1.251   5.466  20.339  0.00  0.00    +0.000 C 
BRANCH  21  22
ATOM     22  C   UNL     1       1.633   6.629  21.250  0.00  0.00    +0.000 C 
BRANCH  22  24
ATOM     23  N   UNL     1       0.818   8.777  22.126  0.00  0.00    +0.000 N 
ATOM     24  C   UNL     1       1.246   8.071  21.034  0.00  0.00    +0.000 C 
ATOM     25  O   UNL     1       1.348   8.518  19.886  0.00  0.00    +0.000 OA
ATOM     26  H   UNL     1       0.873   8.312  23.028  0.00  0.00    +0.000 HD
BRANCH  23  30
ATOM     27  C   UNL     1      -1.111  12.546  22.090  0.00  0.00    +0.000 A 
ATOM     28  C   UNL     1      -0.001  12.329  21.279  0.00  0.00    +0.000 A 
ATOM     29  C   UNL     1       0.656  11.112  21.267  0.00  0.00    +0.000 A 
ATOM     30  C   UNL     1       0.243  10.080  22.109  0.00  0.00    +0.000 A 
ATOM     31  C   UNL     1      -0.835  10.306  22.989  0.00  0.00    +0.000 A 
ATOM     32  C   UNL     1      -1.519  11.528  22.949  0.00  0.00    +0.000 A 
BRANCH  27  34
ATOM     33  C   UNL     1      -2.602  13.956  20.915  0.00  0.00    +0.000 C 
ATOM     34  O   UNL     1      -1.676  13.783  21.977  0.00  0.00    +0.000 OA
ENDBRANCH  27  34
ENDBRANCH  23  30
ENDBRANCH  22  24
ENDBRANCH  21  22
ENDBRANCH   1  21
TORSDOF 7
ENDMDL
MODEL 5
REMARK VINA RESULT:      -7.9      3.755      7.063
REMARK  Name = 
REMARK  8 active torsions:
REMARK  status: ('A' for Active; 'I' for Inactive)
REMARK    1  A    between atoms: C_1  and  O_2
REMARK    2  A    between atoms: O_2  and  C_3
REMARK    3  A    between atoms: C_6  and  N_7
REMARK    4  A    between atoms: C_8  and  C_10
REMARK    5  A    between atoms: C_10  and  C_11
REMARK    6  A    between atoms: C_11  and  N_12
REMARK    7  A    between atoms: C_18  and  S_19
REMARK    8  A    between atoms: S_19  and  N_22
REMARK                            x       y       z     vdW  Elec       q    Type
REMARK                         _______ _______ _______ _____ _____    ______ ____
ROOT
ATOM      1  N   UNL     1       0.090  10.262  21.016  0.00  0.00    +0.000 N 
ATOM      2  C   UNL     1      -0.009   9.561  22.260  0.00  0.00    +0.000 A 
ATOM      3  O   UNL     1      -0.734   9.859  23.197  0.00  0.00    +0.000 OA
ATOM      4  N   UNL     1       0.937   8.571  22.318  0.00  0.00    +0.000 N 
ATOM      5  C   UNL     1       1.471   8.438  21.059  0.00  0.00    +0.000 A 
ATOM      6  C   UNL     1       2.126   7.291  20.672  0.00  0.00    +0.000 A 
ATOM      7  C   UNL     1       2.298   7.092  19.317  0.00  0.00    +0.000 A 
ATOM      8  C   UNL     1       1.956   8.150  18.423  0.00  0.00    +0.000 A 
ATOM      9  C   UNL     1       1.322   9.367  18.890  0.00  0.00    +0.000 A 
ATOM     10  C   UNL     1       1.023   9.476  20.236  0.00  0.00    +0.000 A 
ATOM     11  H   UNL     1       1.593   8.697  23.080  0.00  0.00    +0.000 HD
ENDROOT
BRANCH   7  12
ATOM     12  S   UNL     1       3.118   5.550  18.865  0.00  0.00    +0.000 S 
ATOM     13  O   UNL     1       3.108   4.721  20.047  0.00  0.00    +0.000 OA
ATOM     14  O   UNL     1       2.472   5.103  17.644  0.00  0.00    +0.000 OA
BRANCH  12  15
ATOM     15  N   UNL     1       4.758   5.904  18.467  0.00  0.00    +0.000 NA
ATOM     16  C   UNL     1       5.802   4.907  18.815  0.00  0.00    +0.000 C 
ATOM     17  C   UNL     1       7.226   5.456  18.667  0.00  0.00    +0.000 C 
ATOM     18  C   UNL     1       7.440   6.109  17.310  0.00  0.00    +0.000 C 
ATOM     19  C   UNL     1       6.420   7.220  17.137  0.00  0.00    +0.000 C 
ATOM     20  C   UNL     1       4.987   6.691  17.233  0.00  0.00    +0.000 C 
ENDBRANCH  12  15
ENDBRANCH   7  12
BRANCH   1  21
ATOM     21  C   UNL     1       0.122  11.704  21.292  0.00  0.00    +0.000 C 
BRANCH  21  22
ATOM     22  C   UNL     1      -0.707  12.758  20.565  0.00  0.00    +0.000 C 
BRANCH  22  24
ATOM     23  N   UNL     1      -2.193  11.681  18.928  0.00  0.00    +0.000 N 
ATOM     24  C   UNL     1      -1.238  12.635  19.158  0.00  0.00    +0.000 C 
ATOM     25  O   UNL     1      -0.779  13.408  18.311  0.00  0.00    +0.000 OA
ATOM     26  H   UNL     1      -2.548  11.178  19.737  0.00  0.00    +0.000 HD
BRANCH  23  30
ATOM     27  C   UNL     1      -3.888  10.451  15.249  0.00  0.00    +0.000 A 
ATOM     28  C   UNL     1      -2.578  10.097  15.561  0.00  0.00    +0.000 A 
ATOM     29  C   UNL     1      -1.992  10.483  16.751  0.00  0.00    +0.000 A 
ATOM     30  C   UNL     1      -2.691  11.282  17.655  0.00  0.00    +0.000 A 
ATOM     31  C   UNL     1      -3.992  11.711  17.323  0.00  0.00    +0.000 A 
ATOM     32  C   UNL     1      -4.587  11.266  16.136  0.00  0.00    +0.000 A 
BRANCH  27  34
ATOM     33  C   UNL     1      -3.367   9.729  13.058  0.00  0.00    +0.000 C 
ATOM     34  O   UNL     1      -4.347   9.975  14.055  0.00  0.00    +0.000 OA
ENDBRANCH  27  34
ENDBRANCH  23  30
ENDBRANCH  22  24
ENDBRANCH  21  22
ENDBRANCH   1  21
TORSDOF 7
ENDMDL
MODEL 6
REMARK VINA RESULT:      -7.9      0.351      1.251
REMARK  Name = 
REMARK  8 active torsions:
REMARK  status: ('A' for Active; 'I' for Inactive)
REMARK    1  A    between atoms: C_1  and  O_2
REMARK    2  A    between atoms: O_2  and  C_3
REMARK    3  A    between atoms: C_6  and  N_7
REMARK    4  A    between atoms: C_8  and  C_10
REMARK    5  A    between atoms: C_10  and  C_11
REMARK    6  A    between atoms: C_11  and  N_12
REMARK    7  A    between atoms: C_18  and  S_19
REMARK    8  A    between atoms: S_19  and  N_22
REMARK                            x       y       z     vdW  Elec       q    Type
REMARK                         _______ _______ _______ _____ _____    ______ ____
ROOT
ATOM      1  N   UNL     1       3.685   2.277  19.874  0.00  0.00    +0.000 N 
ATOM      2  C   UNL     1       5.008   2.157  20.405  0.00  0.00    +0.000 A 
ATOM      3  O   UNL     1       5.365   1.376  21.275  0.00  0.00    +0.000 OA
ATOM      4  N   UNL     1       5.810   3.145  19.898  0.00  0.00    +0.000 N 
ATOM      5  C   UNL     1       5.126   3.741  18.866  0.00  0.00    +0.000 A 
ATOM      6  C   UNL     1       5.777   4.467  17.895  0.00  0.00    +0.000 A 
ATOM      7  C   UNL     1       5.089   4.710  16.723  0.00  0.00    +0.000 A 
ATOM      8  C   UNL     1       3.707   4.358  16.658  0.00  0.00    +0.000 A 
ATOM      9  C   UNL     1       3.051   3.645  17.737  0.00  0.00    +0.000 A 
ATOM     10  C   UNL     1       3.806   3.281  18.837  0.00  0.00    +0.000 A 
ATOM     11  H   UNL     1       6.179   3.759  20.615  0.00  0.00    +0.000 HD
ENDROOT
BRANCH   7  12
ATOM     12  S   UNL     1       6.006   5.623  15.467  0.00  0.00    +0.000 S 
ATOM     13  O   UNL     1       5.191   6.761  15.115  0.00  0.00    +0.000 OA
ATOM     14  O   UNL     1       7.339   5.811  16.010  0.00  0.00    +0.000 OA
BRANCH  12  15
ATOM     15  N   UNL     1       6.165   4.620  14.075  0.00  0.00    +0.000 NA
ATOM     16  C   UNL     1       4.931   4.183  13.373  0.00  0.00    +0.000 C 
ATOM     17  C   UNL     1       5.190   3.082  12.336  0.00  0.00    +0.000 C 
ATOM     18  C   UNL     1       6.325   3.453  11.393  0.00  0.00    +0.000 C 
ATOM     19  C   UNL     1       7.575   3.718  12.214  0.00  0.00    +0.000 C 
ATOM     20  C   UNL     1       7.357   4.845  13.226  0.00  0.00    +0.000 C 
ENDBRANCH  12  15
ENDBRANCH   7  12
BRANCH   1  21
ATOM     21  C   UNL     1       2.727   2.227  20.985  0.00  0.00    +0.000 C 
BRANCH  21  22
ATOM     22  C   UNL     1       1.992   3.429  21.571  0.00  0.00    +0.000 C 
BRANCH  22  24
ATOM     23  N   UNL     1       2.270   5.736  20.767  0.00  0.00    +0.000 N 
ATOM     24  C   UNL     1       1.488   4.613  20.783  0.00  0.00    +0.000 C 
ATOM     25  O   UNL     1       0.406   4.484  20.200  0.00  0.00    +0.000 OA
ATOM     26  H   UNL     1       3.182   5.671  21.212  0.00  0.00    +0.000 HD
BRANCH  23  30
ATOM     27  C   UNL     1       1.392   9.524  19.091  0.00  0.00    +0.000 A 
ATOM     28  C   UNL     1       0.998   9.235  20.394  0.00  0.00    +0.000 A 
ATOM     29  C   UNL     1       1.265   8.008  20.972  0.00  0.00    +0.000 A 
ATOM     30  C   UNL     1       1.902   7.007  20.240  0.00  0.00    +0.000 A 
ATOM     31  C   UNL     1       2.244   7.257  18.896  0.00  0.00    +0.000 A 
ATOM     32  C   UNL     1       2.011   8.523  18.345  0.00  0.00    +0.000 A 
BRANCH  27  34
ATOM     33  C   UNL     1      -0.023  11.408  19.282  0.00  0.00    +0.000 C 
ATOM     34  O   UNL     1       1.090  10.783  18.661  0.00  0.00    +0.000 OA
ENDBRANCH  27  34
ENDBRANCH  23  30
ENDBRANCH  22  24
ENDBRANCH  21  22
ENDBRANCH   1  21
TORSDOF 7
ENDMDL
MODEL 7
REMARK VINA RESULT:      -7.9      3.578      6.682
REMARK  Name = 
REMARK  8 active torsions:
REMARK  status: ('A' for Active; 'I' for Inactive)
REMARK    1  A    between atoms: C_1  and  O_2
REMARK    2  A    between atoms: O_2  and  C_3
REMARK    3  A    between atoms: C_6  and  N_7
REMARK    4  A    between atoms: C_8  and  C_10
REMARK    5  A    between atoms: C_10  and  C_11
REMARK    6  A    between atoms: C_11  and  N_12
REMARK    7  A    between atoms: C_18  and  S_19
REMARK    8  A    between atoms: S_19  and  N_22
REMARK                            x       y       z     vdW  Elec       q    Type
REMARK                         _______ _______ _______ _____ _____    ______ ____
ROOT
ATOM      1  N   UNL     1       0.454   9.965  20.734  0.00  0.00    +0.000 N 
ATOM      2  C   UNL     1       0.292   9.233  21.954  0.00  0.00    +0.000 A 
ATOM      3  O   UNL     1      -0.401   9.566  22.903  0.00  0.00    +0.000 OA
ATOM      4  N   UNL     1       1.142   8.159  21.974  0.00  0.00    +0.000 N 
ATOM      5  C   UNL     1       1.660   8.020  20.709  0.00  0.00    +0.000 A 
ATOM      6  C   UNL     1       2.205   6.830  20.280  0.00  0.00    +0.000 A 
ATOM      7  C   UNL     1       2.356   6.662  18.919  0.00  0.00    +0.000 A 
ATOM      8  C   UNL     1       2.113   7.777  18.062  0.00  0.00    +0.000 A 
ATOM      9  C   UNL     1       1.595   9.032  18.573  0.00  0.00    +0.000 A 
ATOM     10  C   UNL     1       1.309   9.122  19.923  0.00  0.00    +0.000 A 
ATOM     11  H   UNL     1       1.807   8.197  22.737  0.00  0.00    +0.000 HD
ENDROOT
BRANCH   7  12
ATOM     12  S   UNL     1       3.028   5.068  18.411  0.00  0.00    +0.000 S 
ATOM     13  O   UNL     1       3.079   4.250  19.600  0.00  0.00    +0.000 OA
ATOM     14  O   UNL     1       2.240   4.653  17.265  0.00  0.00    +0.000 OA
BRANCH  12  15
ATOM     15  N   UNL     1       4.641   5.311  17.853  0.00  0.00    +0.000 NA
ATOM     16  C   UNL     1       5.321   4.197  17.145  0.00  0.00    +0.000 C 
ATOM     17  C   UNL     1       6.823   4.439  16.953  0.00  0.00    +0.000 C 
ATOM     18  C   UNL     1       7.101   5.804  16.343  0.00  0.00    +0.000 C 
ATOM     19  C   UNL     1       6.499   6.872  17.240  0.00  0.00    +0.000 C 
ATOM     20  C   UNL     1       4.990   6.681  17.410  0.00  0.00    +0.000 C 
ENDBRANCH  12  15
ENDBRANCH   7  12
BRANCH   1  21
ATOM     21  C   UNL     1       0.620  11.387  21.057  0.00  0.00    +0.000 C 
BRANCH  21  22
ATOM     22  C   UNL     1       0.140  12.549  20.194  0.00  0.00    +0.000 C 
BRANCH  22  24
ATOM     23  N   UNL     1      -1.607  11.399  18.901  0.00  0.00    +0.000 N 
ATOM     24  C   UNL     1      -0.699  12.422  18.946  0.00  0.00    +0.000 C 
ATOM     25  O   UNL     1      -0.512  13.255  18.052  0.00  0.00    +0.000 OA
ATOM     26  H   UNL     1      -1.721  10.845  19.746  0.00  0.00    +0.000 HD
BRANCH  23  30
ATOM     27  C   UNL     1      -3.644  10.201  15.388  0.00  0.00    +0.000 A 
ATOM     28  C   UNL     1      -4.227  11.131  16.244  0.00  0.00    +0.000 A 
ATOM     29  C   UNL     1      -3.593  11.543  17.401  0.00  0.00    +0.000 A 
ATOM     30  C   UNL     1      -2.362  10.997  17.762  0.00  0.00    +0.000 A 
ATOM     31  C   UNL     1      -1.790  10.001  16.945  0.00  0.00    +0.000 A 
ATOM     32  C   UNL     1      -2.424   9.635  15.751  0.00  0.00    +0.000 A 
BRANCH  27  34
ATOM     33  C   UNL     1      -3.637   9.800  13.058  0.00  0.00    +0.000 C 
ATOM     34  O   UNL     1      -4.369   9.910  14.269  0.00  0.00    +0.000 OA
ENDBRANCH  27  34
ENDBRANCH  23  30
ENDBRANCH  22  24
ENDBRANCH  21  22
ENDBRANCH   1  21
TORSDOF 7
ENDMDL
MODEL 8
REMARK VINA RESULT:      -7.8      4.453     10.762
REMARK  Name = 
REMARK  8 active torsions:
REMARK  status: ('A' for Active; 'I' for Inactive)
REMARK    1  A    between atoms: C_1  and  O_2
REMARK    2  A    between atoms: O_2  and  C_3
REMARK    3  A    between atoms: C_6  and  N_7
REMARK    4  A    between atoms: C_8  and  C_10
REMARK    5  A    between atoms: C_10  and  C_11
REMARK    6  A    between atoms: C_11  and  N_12
REMARK    7  A    between atoms: C_18  and  S_19
REMARK    8  A    between atoms: S_19  and  N_22
REMARK                            x       y       z     vdW  Elec       q    Type
REMARK                         _______ _______ _______ _____ _____    ______ ____
ROOT
ATOM      1  N   UNL     1       0.951   8.276  20.744  0.00  0.00    +0.000 N 
ATOM      2  C   UNL     1       1.340   8.991  19.566  0.00  0.00    +0.000 A 
ATOM      3  O   UNL     1       1.770   8.496  18.535  0.00  0.00    +0.000 OA
ATOM      4  N   UNL     1       1.296  10.340  19.799  0.00  0.00    +0.000 N 
ATOM      5  C   UNL     1       0.649  10.531  20.996  0.00  0.00    +0.000 A 
ATOM      6  C   UNL     1       0.076  11.740  21.321  0.00  0.00    +0.000 A 
ATOM      7  C   UNL     1      -0.851  11.742  22.343  0.00  0.00    +0.000 A 
ATOM      8  C   UNL     1      -1.027  10.550  23.108  0.00  0.00    +0.000 A 
ATOM      9  C   UNL     1      -0.352   9.315  22.759  0.00  0.00    +0.000 A 
ATOM     10  C   UNL     1       0.456   9.303  21.638  0.00  0.00    +0.000 A 
ATOM     11  H   UNL     1       2.199  10.788  19.693  0.00  0.00    +0.000 HD
ENDROOT
BRANCH   7  12
ATOM     12  S   UNL     1      -1.605  13.342  22.694  0.00  0.00    +0.000 S 
ATOM     13  O   UNL     1      -0.977  13.832  23.899  0.00  0.00    +0.000 OA
ATOM     14  O   UNL     1      -1.519  14.099  21.459  0.00  0.00    +0.000 OA
BRANCH  12  15
ATOM     15  N   UNL     1      -3.279  13.094  23.020  0.00  0.00    +0.000 NA
ATOM     16  C   UNL     1      -3.727  13.058  24.436  0.00  0.00    +0.000 C 
ATOM     17  C   UNL     1      -5.168  12.557  24.594  0.00  0.00    +0.000 C 
ATOM     18  C   UNL     1      -6.126  13.298  23.675  0.00  0.00    +0.000 C 
ATOM     19  C   UNL     1      -5.657  13.127  22.241  0.00  0.00    +0.000 C 
ATOM     20  C   UNL     1      -4.237  13.662  22.044  0.00  0.00    +0.000 C 
ENDBRANCH  12  15
ENDBRANCH   7  12
BRANCH   1  21
ATOM     21  C   UNL     1       1.954   7.239  21.015  0.00  0.00    +0.000 C 
BRANCH  21  22
ATOM     22  C   UNL     1       1.920   5.816  20.467  0.00  0.00    +0.000 C 
BRANCH  22  24
ATOM     23  N   UNL     1       3.992   5.966  19.152  0.00  0.00    +0.000 N 
ATOM     24  C   UNL     1       2.845   5.265  19.410  0.00  0.00    +0.000 C 
ATOM     25  O   UNL     1       2.506   4.214  18.854  0.00  0.00    +0.000 OA
ATOM     26  H   UNL     1       4.191   6.763  19.750  0.00  0.00    +0.000 HD
BRANCH  23  30
ATOM     27  C   UNL     1       6.504   5.217  15.826  0.00  0.00    +0.000 A 
ATOM     28  C   UNL     1       6.819   4.674  17.068  0.00  0.00    +0.000 A 
ATOM     29  C   UNL     1       6.024   4.900  18.176  0.00  0.00    +0.000 A 
ATOM     30  C   UNL     1       4.902   5.721  18.083  0.00  0.00    +0.000 A 
ATOM     31  C   UNL     1       4.607   6.339  16.850  0.00  0.00    +0.000 A 
ATOM     32  C   UNL     1       5.396   6.056  15.727  0.00  0.00    +0.000 A 
BRANCH  27  34
ATOM     33  C   UNL     1       6.784   4.244  13.690  0.00  0.00    +0.000 C 
ATOM     34  O   UNL     1       7.360   4.886  14.816  0.00  0.00    +0.000 OA
ENDBRANCH  27  34
ENDBRANCH  23  30
ENDBRANCH  22  24
ENDBRANCH  21  22
ENDBRANCH   1  21
TORSDOF 7
ENDMDL
MODEL 9
REMARK VINA RESULT:      -7.8      3.754      6.393
REMARK  Name = 
REMARK  8 active torsions:
REMARK  status: ('A' for Active; 'I' for Inactive)
REMARK    1  A    between atoms: C_1  and  O_2
REMARK    2  A    between atoms: O_2  and  C_3
REMARK    3  A    between atoms: C_6  and  N_7
REMARK    4  A    between atoms: C_8  and  C_10
REMARK    5  A    between atoms: C_10  and  C_11
REMARK    6  A    between atoms: C_11  and  N_12
REMARK    7  A    between atoms: C_18  and  S_19
REMARK    8  A    between atoms: S_19  and  N_22
REMARK                            x       y       z     vdW  Elec       q    Type
REMARK                         _______ _______ _______ _____ _____    ______ ____
ROOT
ATOM      1  N   UNL     1       1.629   8.972  19.615  0.00  0.00    +0.000 N 
ATOM      2  C   UNL     1       2.085   9.341  18.309  0.00  0.00    +0.000 A 
ATOM      3  O   UNL     1       2.189  10.480  17.880  0.00  0.00    +0.000 OA
ATOM      4  N   UNL     1       2.261   8.221  17.540  0.00  0.00    +0.000 N 
ATOM      5  C   UNL     1       2.186   7.132  18.374  0.00  0.00    +0.000 A 
ATOM      6  C   UNL     1       2.719   5.913  18.018  0.00  0.00    +0.000 A 
ATOM      7  C   UNL     1       2.930   4.999  19.030  0.00  0.00    +0.000 A 
ATOM      8  C   UNL     1       2.428   5.295  20.332  0.00  0.00    +0.000 A 
ATOM      9  C   UNL     1       1.819   6.574  20.642  0.00  0.00    +0.000 A 
ATOM     10  C   UNL     1       1.757   7.529  19.644  0.00  0.00    +0.000 A 
ATOM     11  H   UNL     1       1.666   8.209  16.720  0.00  0.00    +0.000 HD
ENDROOT
BRANCH   7  12
ATOM     12  S   UNL     1       3.674   3.440  18.514  0.00  0.00    +0.000 S 
ATOM     13  O   UNL     1       4.125   2.785  19.720  0.00  0.00    +0.000 OA
ATOM     14  O   UNL     1       2.697   2.802  17.651  0.00  0.00    +0.000 OA
BRANCH  12  15
ATOM     15  N   UNL     1       5.053   3.791  17.542  0.00  0.00    +0.000 NA
ATOM     16  C   UNL     1       4.866   3.945  16.077  0.00  0.00    +0.000 C 
ATOM     17  C   UNL     1       6.191   3.974  15.304  0.00  0.00    +0.000 C 
ATOM     18  C   UNL     1       7.167   4.978  15.898  0.00  0.00    +0.000 C 
ATOM     19  C   UNL     1       7.407   4.622  17.355  0.00  0.00    +0.000 C 
ATOM     20  C   UNL     1       6.105   4.630  18.160  0.00  0.00    +0.000 C 
ENDBRANCH  12  15
ENDBRANCH   7  12
BRANCH   1  21
ATOM     21  C   UNL     1       0.457   9.789  19.951  0.00  0.00    +0.000 C 
BRANCH  21  22
ATOM     22  C   UNL     1       0.394  10.821  21.074  0.00  0.00    +0.000 C 
BRANCH  22  24
ATOM     23  N   UNL     1       1.702  12.569  19.943  0.00  0.00    +0.000 N 
ATOM     24  C   UNL     1       0.851  12.255  20.968  0.00  0.00    +0.000 C 
ATOM     25  O   UNL     1       0.421  13.049  21.812  0.00  0.00    +0.000 OA
ATOM     26  H   UNL     1       1.900  11.837  19.266  0.00  0.00    +0.000 HD
BRANCH  23  30
ATOM     27  C   UNL     1       3.717  16.216  19.188  0.00  0.00    +0.000 A 
ATOM     28  C   UNL     1       4.138  15.395  20.231  0.00  0.00    +0.000 A 
ATOM     29  C   UNL     1       3.502  14.199  20.508  0.00  0.00    +0.000 A 
ATOM     30  C   UNL     1       2.386  13.807  19.770  0.00  0.00    +0.000 A 
ATOM     31  C   UNL     1       1.901  14.660  18.758  0.00  0.00    +0.000 A 
ATOM     32  C   UNL     1       2.590  15.842  18.459  0.00  0.00    +0.000 A 
BRANCH  27  34
ATOM     33  C   UNL     1       5.554  17.528  19.892  0.00  0.00    +0.000 C 
ATOM     34  O   UNL     1       4.456  17.349  19.011  0.00  0.00    +0.000 OA
ENDBRANCH  27  34
ENDBRANCH  23  30
ENDBRANCH  22  24
ENDBRANCH  21  22
ENDBRANCH   1  21
TORSDOF 7
ENDMDL
