MODEL 1
REMARK VINA RESULT:      -7.9      0.000      0.000
REMARK  Name = 
REMARK  4 active torsions:
REMARK  status: ('A' for Active; 'I' for Inactive)
REMARK    1  A    between atoms: C_1  and  C_2
REMARK    2  A    between atoms: C_3  and  C_4
REMARK    3  A    between atoms: N_8  and  C_9
REMARK    4  A    between atoms: N_15  and  C_16
REMARK                            x       y       z     vdW  Elec       q    Type
REMARK                         _______ _______ _______ _____ _____    ______ ____
ROOT
ATOM      1  C   UNL     1       5.873   7.490  17.406  0.00  0.00    +0.000 C 
ATOM      2  C   UNL     1       5.372   6.199  17.972  0.00  0.00    +0.000 A 
ATOM      3  C   UNL     1       6.100   5.099  18.235  0.00  0.00    +0.000 A 
ATOM      4  C   UNL     1       5.198   4.187  18.985  0.00  0.00    +0.000 A 
ATOM      5  O   UNL     1       5.500   3.044  19.293  0.00  0.00    +0.000 OA
ATOM      6  N   UNL     1       4.015   4.894  19.232  0.00  0.00    +0.000 N 
ATOM      7  N   UNL     1       4.053   6.028  18.396  0.00  0.00    +0.000 N 
ENDROOT
BRANCH   6   8
ATOM      8  C   UNL     1       2.805   4.209  19.485  0.00  0.00    +0.000 A 
ATOM      9  C   UNL     1       2.119   3.695  18.379  0.00  0.00    +0.000 A 
ATOM     10  C   UNL     1       1.039   2.831  18.559  0.00  0.00    +0.000 A 
ATOM     11  C   UNL     1       0.610   2.517  19.846  0.00  0.00    +0.000 A 
ATOM     12  C   UNL     1       1.261   3.065  20.953  0.00  0.00    +0.000 A 
ATOM     13  C   UNL     1       2.367   3.900  20.777  0.00  0.00    +0.000 A 
ENDBRANCH   6   8
BRANCH   7  14
ATOM     14  C   UNL     1       3.055   7.031  18.537  0.00  0.00    +0.000 A 
ATOM     15  C   UNL     1       2.721   7.918  17.500  0.00  0.00    +0.000 A 
ATOM     16  C   UNL     1       1.874   9.007  17.720  0.00  0.00    +0.000 A 
ATOM     17  C   UNL     1       1.310   9.206  18.977  0.00  0.00    +0.000 A 
ATOM     18  C   UNL     1       1.581   8.309  20.005  0.00  0.00    +0.000 A 
ATOM     19  C   UNL     1       2.448   7.235  19.787  0.00  0.00    +0.000 A 
ENDBRANCH   7  14
BRANCH   3  20
ATOM     20  C   UNL     1       7.501   4.772  17.940  0.00  0.00    +0.000 C 
ATOM     21  O   UNL     1       7.883   4.312  16.871  0.00  0.00    +0.000 OA
ENDBRANCH   3  20
TORSDOF 3
ENDMDL
MODEL 2
REMARK VINA RESULT:      -7.7      0.167      1.062
REMARK  Name = 
REMARK  4 active torsions:
REMARK  status: ('A' for Active; 'I' for Inactive)
REMARK    1  A    between atoms: C_1  and  C_2
REMARK    2  A    between atoms: C_3  and  C_4
REMARK    3  A    between atoms: N_8  and  C_9
REMARK    4  A    between atoms: N_15  and  C_16
REMARK                            x       y       z     vdW  Elec       q    Type
REMARK                         _______ _______ _______ _____ _____    ______ ____
ROOT
ATOM      1  C   UNL     1       6.041   7.444  17.400  0.00  0.00    +0.000 C 
ATOM      2  C   UNL     1       5.479   6.177  17.960  0.00  0.00    +0.000 A 
ATOM      3  C   UNL     1       6.146   5.032  18.189  0.00  0.00    +0.000 A 
ATOM      4  C   UNL     1       5.210   4.164  18.950  0.00  0.00    +0.000 A 
ATOM      5  O   UNL     1       5.450   3.000  19.234  0.00  0.00    +0.000 OA
ATOM      6  N   UNL     1       4.078   4.936  19.238  0.00  0.00    +0.000 N 
ATOM      7  N   UNL     1       4.163   6.078  18.417  0.00  0.00    +0.000 N 
ENDROOT
BRANCH   6   8
ATOM      8  C   UNL     1       2.836   4.322  19.513  0.00  0.00    +0.000 A 
ATOM      9  C   UNL     1       2.116   3.820  18.422  0.00  0.00    +0.000 A 
ATOM     10  C   UNL     1       0.993   3.018  18.628  0.00  0.00    +0.000 A 
ATOM     11  C   UNL     1       0.558   2.755  19.924  0.00  0.00    +0.000 A 
ATOM     12  C   UNL     1       1.245   3.291  21.015  0.00  0.00    +0.000 A 
ATOM     13  C   UNL     1       2.392   4.063  20.815  0.00  0.00    +0.000 A 
ENDBRANCH   6   8
BRANCH   7  14
ATOM     14  C   UNL     1       3.231   7.138  18.597  0.00  0.00    +0.000 A 
ATOM     15  C   UNL     1       2.560   7.358  19.811  0.00  0.00    +0.000 A 
ATOM     16  C   UNL     1       1.520   8.285  19.909  0.00  0.00    +0.000 A 
ATOM     17  C   UNL     1       1.156   9.041  18.799  0.00  0.00    +0.000 A 
ATOM     18  C   UNL     1       1.843   8.880  17.599  0.00  0.00    +0.000 A 
ATOM     19  C   UNL     1       2.867   7.936  17.500  0.00  0.00    +0.000 A 
ENDBRANCH   7  14
BRANCH   3  20
ATOM     20  C   UNL     1       7.516   4.625  17.853  0.00  0.00    +0.000 C 
ATOM     21  O   UNL     1       7.896   4.385  16.714  0.00  0.00    +0.000 OA
ENDBRANCH   3  20
TORSDOF 3
ENDMDL
MODEL 3
REMARK VINA RESULT:      -7.6      0.223      1.076
REMARK  Name = 
REMARK  4 active torsions:
REMARK  status: ('A' for Active; 'I' for Inactive)
REMARK    1  A    between atoms: C_1  and  C_2
REMARK    2  A    between atoms: C_3  and  C_4
REMARK    3  A    between atoms: N_8  and  C_9
REMARK    4  A    between atoms: N_15  and  C_16
REMARK                            x       y       z     vdW  Elec       q    Type
REMARK                         _______ _______ _______ _____ _____    ______ ____
ROOT
ATOM      1  C   UNL     1       5.871   7.493  17.369  0.00  0.00    +0.000 C 
ATOM      2  C   UNL     1       5.398   6.177  17.899  0.00  0.00    +0.000 A 
ATOM      3  C   UNL     1       6.148   5.083  18.123  0.00  0.00    +0.000 A 
ATOM      4  C   UNL     1       5.268   4.133  18.851  0.00  0.00    +0.000 A 
ATOM      5  O   UNL     1       5.593   2.986  19.122  0.00  0.00    +0.000 OA
ATOM      6  N   UNL     1       4.074   4.809  19.129  0.00  0.00    +0.000 N 
ATOM      7  N   UNL     1       4.086   5.969  18.327  0.00  0.00    +0.000 N 
ENDROOT
BRANCH   6   8
ATOM      8  C   UNL     1       2.880   4.096  19.370  0.00  0.00    +0.000 A 
ATOM      9  C   UNL     1       2.503   3.913  20.706  0.00  0.00    +0.000 A 
ATOM     10  C   UNL     1       1.241   3.410  21.020  0.00  0.00    +0.000 A 
ATOM     11  C   UNL     1       0.368   3.041  19.999  0.00  0.00    +0.000 A 
ATOM     12  C   UNL     1       0.757   3.177  18.664  0.00  0.00    +0.000 A 
ATOM     13  C   UNL     1       2.005   3.716  18.346  0.00  0.00    +0.000 A 
ENDBRANCH   6   8
BRANCH   7  14
ATOM     14  C   UNL     1       3.071   6.949  18.506  0.00  0.00    +0.000 A 
ATOM     15  C   UNL     1       2.638   7.790  17.467  0.00  0.00    +0.000 A 
ATOM     16  C   UNL     1       1.777   8.862  17.711  0.00  0.00    +0.000 A 
ATOM     17  C   UNL     1       1.297   9.090  18.998  0.00  0.00    +0.000 A 
ATOM     18  C   UNL     1       1.668   8.237  20.033  0.00  0.00    +0.000 A 
ATOM     19  C   UNL     1       2.548   7.180  19.789  0.00  0.00    +0.000 A 
ENDBRANCH   7  14
BRANCH   3  20
ATOM     20  C   UNL     1       7.552   4.790  17.807  0.00  0.00    +0.000 C 
ATOM     21  O   UNL     1       7.938   4.402  16.712  0.00  0.00    +0.000 OA
ENDBRANCH   3  20
TORSDOF 3
ENDMDL
MODEL 4
REMARK VINA RESULT:      -7.1      0.333      1.522
REMARK  Name = 
REMARK  4 active torsions:
REMARK  status: ('A' for Active; 'I' for Inactive)
REMARK    1  A    between atoms: C_1  and  C_2
REMARK    2  A    between atoms: C_3  and  C_4
REMARK    3  A    between atoms: N_8  and  C_9
REMARK    4  A    between atoms: N_15  and  C_16
REMARK                            x       y       z     vdW  Elec       q    Type
REMARK                         _______ _______ _______ _____ _____    ______ ____
ROOT
ATOM      1  C   UNL     1       6.060   7.432  17.376  0.00  0.00    +0.000 C 
ATOM      2  C   UNL     1       5.530   6.132  17.891  0.00  0.00    +0.000 A 
ATOM      3  C   UNL     1       6.223   4.993  18.066  0.00  0.00    +0.000 A 
ATOM      4  C   UNL     1       5.314   4.076  18.801  0.00  0.00    +0.000 A 
ATOM      5  O   UNL     1       5.581   2.907  19.035  0.00  0.00    +0.000 OA
ATOM      6  N   UNL     1       4.170   4.812  19.134  0.00  0.00    +0.000 N 
ATOM      7  N   UNL     1       4.222   5.988  18.358  0.00  0.00    +0.000 N 
ENDROOT
BRANCH   6   8
ATOM      8  C   UNL     1       2.945   4.161  19.398  0.00  0.00    +0.000 A 
ATOM      9  C   UNL     1       2.586   3.996  20.742  0.00  0.00    +0.000 A 
ATOM     10  C   UNL     1       1.306   3.559  21.081  0.00  0.00    +0.000 A 
ATOM     11  C   UNL     1       0.395   3.238  20.077  0.00  0.00    +0.000 A 
ATOM     12  C   UNL     1       0.763   3.356  18.735  0.00  0.00    +0.000 A 
ATOM     13  C   UNL     1       2.031   3.830  18.392  0.00  0.00    +0.000 A 
ENDBRANCH   6   8
BRANCH   7  14
ATOM     14  C   UNL     1       3.272   7.020  18.592  0.00  0.00    +0.000 A 
ATOM     15  C   UNL     1       2.648   7.208  19.837  0.00  0.00    +0.000 A 
ATOM     16  C   UNL     1       1.589   8.105  19.991  0.00  0.00    +0.000 A 
ATOM     17  C   UNL     1       1.158   8.864  18.908  0.00  0.00    +0.000 A 
ATOM     18  C   UNL     1       1.796   8.736  17.678  0.00  0.00    +0.000 A 
ATOM     19  C   UNL     1       2.840   7.821  17.522  0.00  0.00    +0.000 A 
ENDBRANCH   7  14
BRANCH   3  20
ATOM     20  C   UNL     1       7.597   4.628  17.697  0.00  0.00    +0.000 C 
ATOM     21  O   UNL     1       7.963   4.424  16.547  0.00  0.00    +0.000 OA
ENDBRANCH   3  20
TORSDOF 3
ENDMDL
MODEL 5
REMARK VINA RESULT:      -7.1      1.396      4.574
REMARK  Name = 
REMARK  4 active torsions:
REMARK  status: ('A' for Active; 'I' for Inactive)
REMARK    1  A    between atoms: C_1  and  C_2
REMARK    2  A    between atoms: C_3  and  C_4
REMARK    3  A    between atoms: N_8  and  C_9
REMARK    4  A    between atoms: N_15  and  C_16
REMARK                            x       y       z     vdW  Elec       q    Type
REMARK                         _______ _______ _______ _____ _____    ______ ____
ROOT
ATOM      1  C   UNL     1       1.210   4.007  18.957  0.00  0.00    +0.000 C 
ATOM      2  C   UNL     1       2.643   4.122  18.546  0.00  0.00    +0.000 A 
ATOM      3  C   UNL     1       3.402   3.159  17.993  0.00  0.00    +0.000 A 
ATOM      4  C   UNL     1       4.658   3.828  17.569  0.00  0.00    +0.000 A 
ATOM      5  O   UNL     1       5.624   3.228  17.122  0.00  0.00    +0.000 OA
ATOM      6  N   UNL     1       4.486   5.201  17.787  0.00  0.00    +0.000 N 
ATOM      7  N   UNL     1       3.346   5.326  18.607  0.00  0.00    +0.000 N 
ENDROOT
BRANCH   6   8
ATOM      8  C   UNL     1       5.601   6.052  17.946  0.00  0.00    +0.000 A 
ATOM      9  C   UNL     1       6.528   5.712  18.938  0.00  0.00    +0.000 A 
ATOM     10  C   UNL     1       7.753   6.375  19.015  0.00  0.00    +0.000 A 
ATOM     11  C   UNL     1       8.036   7.414  18.132  0.00  0.00    +0.000 A 
ATOM     12  C   UNL     1       7.095   7.788  17.170  0.00  0.00    +0.000 A 
ATOM     13  C   UNL     1       5.883   7.102  17.065  0.00  0.00    +0.000 A 
ENDBRANCH   6   8
BRANCH   7  14
ATOM     14  C   UNL     1       2.819   6.620  18.873  0.00  0.00    +0.000 A 
ATOM     15  C   UNL     1       2.379   7.012  20.148  0.00  0.00    +0.000 A 
ATOM     16  C   UNL     1       1.699   8.216  20.344  0.00  0.00    +0.000 A 
ATOM     17  C   UNL     1       1.481   9.074  19.271  0.00  0.00    +0.000 A 
ATOM     18  C   UNL     1       1.956   8.734  18.008  0.00  0.00    +0.000 A 
ATOM     19  C   UNL     1       2.615   7.518  17.812  0.00  0.00    +0.000 A 
ENDBRANCH   7  14
BRANCH   3  20
ATOM     20  C   UNL     1       3.139   1.733  17.760  0.00  0.00    +0.000 C 
ATOM     21  O   UNL     1       3.656   0.830  18.406  0.00  0.00    +0.000 OA
ENDBRANCH   3  20
TORSDOF 3
ENDMDL
MODEL 6
REMARK VINA RESULT:      -7.0      2.348      4.908
REMARK  Name = 
REMARK  4 active torsions:
REMARK  status: ('A' for Active; 'I' for Inactive)
REMARK    1  A    between atoms: C_1  and  C_2
REMARK    2  A    between atoms: C_3  and  C_4
REMARK    3  A    between atoms: N_8  and  C_9
REMARK    4  A    between atoms: N_15  and  C_16
REMARK                            x       y       z     vdW  Elec       q    Type
REMARK                         _______ _______ _______ _____ _____    ______ ____
ROOT
ATOM      1  C   UNL     1       4.305   2.582  17.809  0.00  0.00    +0.000 C 
ATOM      2  C   UNL     1       3.315   3.540  18.390  0.00  0.00    +0.000 A 
ATOM      3  C   UNL     1       2.145   3.232  18.977  0.00  0.00    +0.000 A 
ATOM      4  C   UNL     1       1.649   4.497  19.578  0.00  0.00    +0.000 A 
ATOM      5  O   UNL     1       0.551   4.608  20.102  0.00  0.00    +0.000 OA
ATOM      6  N   UNL     1       2.658   5.453  19.412  0.00  0.00    +0.000 N 
ATOM      7  N   UNL     1       3.559   4.912  18.473  0.00  0.00    +0.000 N 
ENDROOT
BRANCH   6   8
ATOM      8  C   UNL     1       2.355   6.832  19.428  0.00  0.00    +0.000 A 
ATOM      9  C   UNL     1       2.317   7.492  18.194  0.00  0.00    +0.000 A 
ATOM     10  C   UNL     1       1.821   8.793  18.105  0.00  0.00    +0.000 A 
ATOM     11  C   UNL     1       1.408   9.457  19.257  0.00  0.00    +0.000 A 
ATOM     12  C   UNL     1       1.488   8.820  20.497  0.00  0.00    +0.000 A 
ATOM     13  C   UNL     1       1.947   7.504  20.585  0.00  0.00    +0.000 A 
ENDBRANCH   6   8
BRANCH   7  14
ATOM     14  C   UNL     1       4.784   5.587  18.213  0.00  0.00    +0.000 A 
ATOM     15  C   UNL     1       5.033   6.271  17.012  0.00  0.00    +0.000 A 
ATOM     16  C   UNL     1       6.303   6.767  16.708  0.00  0.00    +0.000 A 
ATOM     17  C   UNL     1       7.343   6.623  17.621  0.00  0.00    +0.000 A 
ATOM     18  C   UNL     1       7.107   5.998  18.842  0.00  0.00    +0.000 A 
ATOM     19  C   UNL     1       5.841   5.483  19.133  0.00  0.00    +0.000 A 
ENDBRANCH   7  14
BRANCH   3  20
ATOM     20  C   UNL     1       1.432   1.954  19.104  0.00  0.00    +0.000 C 
ATOM     21  O   UNL     1       0.286   1.770  18.713  0.00  0.00    +0.000 OA
ENDBRANCH   3  20
TORSDOF 3
ENDMDL
MODEL 7
REMARK VINA RESULT:      -6.9      1.297      4.478
REMARK  Name = 
REMARK  4 active torsions:
REMARK  status: ('A' for Active; 'I' for Inactive)
REMARK    1  A    between atoms: C_1  and  C_2
REMARK    2  A    between atoms: C_3  and  C_4
REMARK    3  A    between atoms: N_8  and  C_9
REMARK    4  A    between atoms: N_15  and  C_16
REMARK                            x       y       z     vdW  Elec       q    Type
REMARK                         _______ _______ _______ _____ _____    ______ ____
ROOT
ATOM      1  C   UNL     1       5.357   3.365  18.669  0.00  0.00    +0.000 C 
ATOM      2  C   UNL     1       4.952   4.782  18.417  0.00  0.00    +0.000 A 
ATOM      3  C   UNL     1       5.664   5.719  17.766  0.00  0.00    +0.000 A 
ATOM      4  C   UNL     1       4.746   6.873  17.587  0.00  0.00    +0.000 A 
ATOM      5  O   UNL     1       5.097   7.949  17.125  0.00  0.00    +0.000 OA
ATOM      6  N   UNL     1       3.484   6.467  18.038  0.00  0.00    +0.000 N 
ATOM      7  N   UNL     1       3.693   5.275  18.762  0.00  0.00    +0.000 N 
ENDROOT
BRANCH   6   8
ATOM      8  C   UNL     1       2.525   7.418  18.451  0.00  0.00    +0.000 A 
ATOM      9  C   UNL     1       2.246   7.490  19.821  0.00  0.00    +0.000 A 
ATOM     10  C   UNL     1       1.476   8.537  20.328  0.00  0.00    +0.000 A 
ATOM     11  C   UNL     1       0.941   9.487  19.462  0.00  0.00    +0.000 A 
ATOM     12  C   UNL     1       1.177   9.392  18.089  0.00  0.00    +0.000 A 
ATOM     13  C   UNL     1       1.979   8.368  17.581  0.00  0.00    +0.000 A 
ENDBRANCH   6   8
BRANCH   7  14
ATOM     14  C   UNL     1       2.569   4.529  19.214  0.00  0.00    +0.000 A 
ATOM     15  C   UNL     1       2.305   4.307  20.576  0.00  0.00    +0.000 A 
ATOM     16  C   UNL     1       1.305   3.423  20.987  0.00  0.00    +0.000 A 
ATOM     17  C   UNL     1       0.520   2.772  20.041  0.00  0.00    +0.000 A 
ATOM     18  C   UNL     1       0.726   3.018  18.687  0.00  0.00    +0.000 A 
ATOM     19  C   UNL     1       1.742   3.886  18.279  0.00  0.00    +0.000 A 
ENDBRANCH   7  14
BRANCH   3  20
ATOM     20  C   UNL     1       7.040   5.706  17.251  0.00  0.00    +0.000 C 
ATOM     21  O   UNL     1       7.335   5.951  16.088  0.00  0.00    +0.000 OA
ENDBRANCH   3  20
TORSDOF 3
ENDMDL
MODEL 8
REMARK VINA RESULT:      -6.8      2.396      5.149
REMARK  Name = 
REMARK  4 active torsions:
REMARK  status: ('A' for Active; 'I' for Inactive)
REMARK    1  A    between atoms: C_1  and  C_2
REMARK    2  A    between atoms: C_3  and  C_4
REMARK    3  A    between atoms: N_8  and  C_9
REMARK    4  A    between atoms: N_15  and  C_16
REMARK                            x       y       z     vdW  Elec       q    Type
REMARK                         _______ _______ _______ _____ _____    ______ ____
ROOT
ATOM      1  C   UNL     1       4.272   2.365  19.355  0.00  0.00    +0.000 C 
ATOM      2  C   UNL     1       3.353   3.519  19.599  0.00  0.00    +0.000 A 
ATOM      3  C   UNL     1       2.248   3.520  20.365  0.00  0.00    +0.000 A 
ATOM      4  C   UNL     1       1.825   4.941  20.463  0.00  0.00    +0.000 A 
ATOM      5  O   UNL     1       0.787   5.300  21.000  0.00  0.00    +0.000 OA
ATOM      6  N   UNL     1       2.818   5.708  19.841  0.00  0.00    +0.000 N 
ATOM      7  N   UNL     1       3.614   4.802  19.112  0.00  0.00    +0.000 N 
ENDROOT
BRANCH   6   8
ATOM      8  C   UNL     1       2.527   6.997  19.341  0.00  0.00    +0.000 A 
ATOM      9  C   UNL     1       2.716   7.206  17.970  0.00  0.00    +0.000 A 
ATOM     10  C   UNL     1       2.254   8.376  17.366  0.00  0.00    +0.000 A 
ATOM     11  C   UNL     1       1.645   9.361  18.139  0.00  0.00    +0.000 A 
ATOM     12  C   UNL     1       1.497   9.177  19.515  0.00  0.00    +0.000 A 
ATOM     13  C   UNL     1       1.923   7.991  20.117  0.00  0.00    +0.000 A 
ENDBRANCH   6   8
BRANCH   7  14
ATOM     14  C   UNL     1       4.810   5.264  18.497  0.00  0.00    +0.000 A 
ATOM     15  C   UNL     1       4.995   5.262  17.104  0.00  0.00    +0.000 A 
ATOM     16  C   UNL     1       6.239   5.547  16.537  0.00  0.00    +0.000 A 
ATOM     17  C   UNL     1       7.316   5.879  17.352  0.00  0.00    +0.000 A 
ATOM     18  C   UNL     1       7.143   5.941  18.732  0.00  0.00    +0.000 A 
ATOM     19  C   UNL     1       5.903   5.633  19.297  0.00  0.00    +0.000 A 
ENDBRANCH   7  14
BRANCH   3  20
ATOM     20  C   UNL     1       1.543   2.429  21.051  0.00  0.00    +0.000 C 
ATOM     21  O   UNL     1       1.583   2.246  22.261  0.00  0.00    +0.000 OA
ENDBRANCH   3  20
TORSDOF 3
ENDMDL
MODEL 9
REMARK VINA RESULT:      -6.7      1.436      4.374
REMARK  Name = 
REMARK  4 active torsions:
REMARK  status: ('A' for Active; 'I' for Inactive)
REMARK    1  A    between atoms: C_1  and  C_2
REMARK    2  A    between atoms: C_3  and  C_4
REMARK    3  A    between atoms: N_8  and  C_9
REMARK    4  A    between atoms: N_15  and  C_16
REMARK                            x       y       z     vdW  Elec       q    Type
REMARK                         _______ _______ _______ _____ _____    ______ ____
ROOT
ATOM      1  C   UNL     1       4.834   2.654  17.540  0.00  0.00    +0.000 C 
ATOM      2  C   UNL     1       4.634   4.134  17.458  0.00  0.00    +0.000 A 
ATOM      3  C   UNL     1       5.272   4.989  16.640  0.00  0.00    +0.000 A 
ATOM      4  C   UNL     1       4.566   6.288  16.782  0.00  0.00    +0.000 A 
ATOM      5  O   UNL     1       4.948   7.324  16.259  0.00  0.00    +0.000 OA
ATOM      6  N   UNL     1       3.448   6.060  17.594  0.00  0.00    +0.000 N 
ATOM      7  N   UNL     1       3.647   4.798  18.189  0.00  0.00    +0.000 N 
ENDROOT
BRANCH   6   8
ATOM      8  C   UNL     1       2.845   7.121  18.306  0.00  0.00    +0.000 A 
ATOM      9  C   UNL     1       2.373   8.205  17.557  0.00  0.00    +0.000 A 
ATOM     10  C   UNL     1       1.582   9.185  18.158  0.00  0.00    +0.000 A 
ATOM     11  C   UNL     1       1.302   9.110  19.520  0.00  0.00    +0.000 A 
ATOM     12  C   UNL     1       1.811   8.056  20.281  0.00  0.00    +0.000 A 
ATOM     13  C   UNL     1       2.570   7.052  19.676  0.00  0.00    +0.000 A 
ENDBRANCH   6   8
BRANCH   7  14
ATOM     14  C   UNL     1       2.598   4.214  18.952  0.00  0.00    +0.000 A 
ATOM     15  C   UNL     1       2.695   4.004  20.337  0.00  0.00    +0.000 A 
ATOM     16  C   UNL     1       1.732   3.265  21.029  0.00  0.00    +0.000 A 
ATOM     17  C   UNL     1       0.628   2.756  20.352  0.00  0.00    +0.000 A 
ATOM     18  C   UNL     1       0.481   2.999  18.989  0.00  0.00    +0.000 A 
ATOM     19  C   UNL     1       1.459   3.718  18.297  0.00  0.00    +0.000 A 
ENDBRANCH   7  14
BRANCH   3  20
ATOM     20  C   UNL     1       6.402   4.790  15.722  0.00  0.00    +0.000 C 
ATOM     21  O   UNL     1       7.575   4.785  16.075  0.00  0.00    +0.000 OA
ENDBRANCH   3  20
TORSDOF 3
ENDMDL
