MODEL 1
REMARK VINA RESULT:      -8.5      0.000      0.000
REMARK  Name = 
REMARK  5 active torsions:
REMARK  status: ('A' for Active; 'I' for Inactive)
REMARK    1  A    between atoms: C_2  and  C_3
REMARK    2  A    between atoms: C_4  and  N_5
REMARK    3  A    between atoms: N_5  and  C_6
REMARK    4  A    between atoms: C_6  and  N_8
REMARK    5  A    between atoms: C_9  and  C_11
REMARK                            x       y       z     vdW  Elec       q    Type
REMARK                         _______ _______ _______ _____ _____    ______ ____
ROOT
ATOM      1  N   UNL     1       4.769   7.095  17.548  0.00  0.00    +0.000 N 
ATOM      2  H   UNL     1       4.304   7.973  17.313  0.00  0.00    +0.000 HD
ENDROOT
BRANCH   1   4
ATOM      3  C   UNL     1       2.908   6.367  19.124  0.00  0.00    +0.000 A 
ATOM      4  C   UNL     1       4.054   6.255  18.374  0.00  0.00    +0.000 A 
ATOM      5  S   UNL     1       4.834   4.764  18.630  0.00  0.00    +0.000 S 
ATOM      6  C   UNL     1       3.565   4.182  19.626  0.00  0.00    +0.000 A 
ATOM      7  C   UNL     1       2.563   5.131  19.784  0.00  0.00    +0.000 A 
ATOM      8  C   UNL     1       1.298   4.938  20.582  0.00  0.00    +0.000 C 
ATOM      9  C   UNL     1       0.711   3.538  20.422  0.00  0.00    +0.000 C 
ATOM     10  C   UNL     1       1.366   2.493  21.326  0.00  0.00    +0.000 C 
ATOM     11  C   UNL     1       2.884   2.612  21.503  0.00  0.00    +0.000 C 
ATOM     12  C   UNL     1       3.660   2.789  20.197  0.00  0.00    +0.000 C 
BRANCH   3  14
ATOM     13  N   UNL     1       1.620   8.564  19.592  0.00  0.00    +0.000 NA
ATOM     14  C   UNL     1       2.190   7.584  19.342  0.00  0.00    +0.000 C 
ENDBRANCH   3  14
ENDBRANCH   1   4
BRANCH   1  15
ATOM     15  C   UNL     1       6.026   6.923  17.020  0.00  0.00    +0.000 C 
ATOM     16  S   UNL     1       7.478   7.496  17.620  0.00  0.00    +0.000 S 
BRANCH  15  17
ATOM     17  N   UNL     1       6.068   6.234  15.819  0.00  0.00    +0.000 N 
ATOM     18  C   UNL     1       6.875   5.151  15.512  0.00  0.00    +0.000 C 
ATOM     19  O   UNL     1       7.566   4.565  16.342  0.00  0.00    +0.000 OA
ATOM     20  H   UNL     1       5.522   6.668  15.087  0.00  0.00    +0.000 HD
BRANCH  18  21
ATOM     21  C   UNL     1       6.888   4.682  14.103  0.00  0.00    +0.000 A 
ATOM     22  C   UNL     1       5.936   3.720  13.743  0.00  0.00    +0.000 A 
ATOM     23  C   UNL     1       5.859   3.260  12.429  0.00  0.00    +0.000 A 
ATOM     24  C   UNL     1       6.729   3.767  11.468  0.00  0.00    +0.000 A 
ATOM     25  C   UNL     1       7.675   4.732  11.818  0.00  0.00    +0.000 A 
ATOM     26  C   UNL     1       7.761   5.194  13.136  0.00  0.00    +0.000 A 
ENDBRANCH  18  21
ENDBRANCH  15  17
ENDBRANCH   1  15
TORSDOF 5
ENDMDL
MODEL 2
REMARK VINA RESULT:      -8.4      2.089      3.825
REMARK  Name = 
REMARK  5 active torsions:
REMARK  status: ('A' for Active; 'I' for Inactive)
REMARK    1  A    between atoms: C_2  and  C_3
REMARK    2  A    between atoms: C_4  and  N_5
REMARK    3  A    between atoms: N_5  and  C_6
REMARK    4  A    between atoms: C_6  and  N_8
REMARK    5  A    between atoms: C_9  and  C_11
REMARK                            x       y       z     vdW  Elec       q    Type
REMARK                         _______ _______ _______ _____ _____    ______ ____
ROOT
ATOM      1  N   UNL     1       4.593   4.650  18.477  0.00  0.00    +0.000 N 
ATOM      2  H   UNL     1       5.525   4.733  18.885  0.00  0.00    +0.000 HD
ENDROOT
BRANCH   1   4
ATOM      3  C   UNL     1       2.782   5.845  19.809  0.00  0.00    +0.000 A 
ATOM      4  C   UNL     1       3.713   5.656  18.816  0.00  0.00    +0.000 A 
ATOM      5  S   UNL     1       3.676   6.912  17.668  0.00  0.00    +0.000 S 
ATOM      6  C   UNL     1       2.524   7.808  18.568  0.00  0.00    +0.000 A 
ATOM      7  C   UNL     1       2.150   7.141  19.728  0.00  0.00    +0.000 A 
ATOM      8  C   UNL     1       1.171   7.656  20.752  0.00  0.00    +0.000 C 
ATOM      9  C   UNL     1       1.317   9.154  21.003  0.00  0.00    +0.000 C 
ATOM     10  C   UNL     1       0.596  10.020  19.970  0.00  0.00    +0.000 C 
ATOM     11  C   UNL     1       0.659   9.531  18.519  0.00  0.00    +0.000 C 
ATOM     12  C   UNL     1       2.061   9.144  18.043  0.00  0.00    +0.000 C 
BRANCH   3  14
ATOM     13  N   UNL     1       2.104   3.997  21.491  0.00  0.00    +0.000 NA
ATOM     14  C   UNL     1       2.378   4.849  20.751  0.00  0.00    +0.000 C 
ENDBRANCH   3  14
ENDBRANCH   1   4
BRANCH   1  15
ATOM     15  C   UNL     1       4.379   3.545  17.690  0.00  0.00    +0.000 C 
ATOM     16  S   UNL     1       3.545   2.151  18.084  0.00  0.00    +0.000 S 
BRANCH  15  17
ATOM     17  N   UNL     1       4.980   3.590  16.442  0.00  0.00    +0.000 N 
ATOM     18  C   UNL     1       6.208   4.151  16.134  0.00  0.00    +0.000 C 
ATOM     19  O   UNL     1       6.999   4.559  16.982  0.00  0.00    +0.000 OA
ATOM     20  H   UNL     1       4.379   3.272  15.694  0.00  0.00    +0.000 HD
BRANCH  18  21
ATOM     21  C   UNL     1       6.576   4.251  14.699  0.00  0.00    +0.000 A 
ATOM     22  C   UNL     1       5.854   3.457  13.799  0.00  0.00    +0.000 A 
ATOM     23  C   UNL     1       6.113   3.525  12.431  0.00  0.00    +0.000 A 
ATOM     24  C   UNL     1       7.091   4.395  11.956  0.00  0.00    +0.000 A 
ATOM     25  C   UNL     1       7.809   5.195  12.847  0.00  0.00    +0.000 A 
ATOM     26  C   UNL     1       7.557   5.128  14.221  0.00  0.00    +0.000 A 
ENDBRANCH  18  21
ENDBRANCH  15  17
ENDBRANCH   1  15
TORSDOF 5
ENDMDL
MODEL 3
REMARK VINA RESULT:      -8.3      1.252      1.417
REMARK  Name = 
REMARK  5 active torsions:
REMARK  status: ('A' for Active; 'I' for Inactive)
REMARK    1  A    between atoms: C_2  and  C_3
REMARK    2  A    between atoms: C_4  and  N_5
REMARK    3  A    between atoms: N_5  and  C_6
REMARK    4  A    between atoms: C_6  and  N_8
REMARK    5  A    between atoms: C_9  and  C_11
REMARK                            x       y       z     vdW  Elec       q    Type
REMARK                         _______ _______ _______ _____ _____    ______ ____
ROOT
ATOM      1  N   UNL     1       6.381   6.306  18.598  0.00  0.00    +0.000 N 
ATOM      2  H   UNL     1       6.909   6.353  19.471  0.00  0.00    +0.000 HD
ENDROOT
BRANCH   1   4
ATOM      3  C   UNL     1       3.881   5.884  18.372  0.00  0.00    +0.000 A 
ATOM      4  C   UNL     1       5.194   5.608  18.668  0.00  0.00    +0.000 A 
ATOM      5  S   UNL     1       5.368   4.087  19.411  0.00  0.00    +0.000 S 
ATOM      6  C   UNL     1       3.709   3.707  19.203  0.00  0.00    +0.000 A 
ATOM      7  C   UNL     1       3.019   4.747  18.592  0.00  0.00    +0.000 A 
ATOM      8  C   UNL     1       1.552   4.734  18.246  0.00  0.00    +0.000 C 
ATOM      9  C   UNL     1       1.084   3.380  17.721  0.00  0.00    +0.000 C 
ATOM     10  C   UNL     1       0.768   2.372  18.826  0.00  0.00    +0.000 C 
ATOM     11  C   UNL     1       1.710   2.379  20.034  0.00  0.00    +0.000 C 
ATOM     12  C   UNL     1       3.197   2.369  19.676  0.00  0.00    +0.000 C 
BRANCH   3  14
ATOM     13  N   UNL     1       2.915   8.206  17.755  0.00  0.00    +0.000 NA
ATOM     14  C   UNL     1       3.379   7.172  18.006  0.00  0.00    +0.000 C 
ENDBRANCH   3  14
ENDBRANCH   1   4
BRANCH   1  15
ATOM     15  C   UNL     1       6.959   6.921  17.514  0.00  0.00    +0.000 C 
ATOM     16  S   UNL     1       7.833   8.346  17.488  0.00  0.00    +0.000 S 
BRANCH  15  17
ATOM     17  N   UNL     1       6.735   6.295  16.298  0.00  0.00    +0.000 N 
ATOM     18  C   UNL     1       7.258   5.083  15.881  0.00  0.00    +0.000 C 
ATOM     19  O   UNL     1       7.886   4.326  16.619  0.00  0.00    +0.000 OA
ATOM     20  H   UNL     1       6.226   6.868  15.639  0.00  0.00    +0.000 HD
BRANCH  18  21
ATOM     21  C   UNL     1       7.034   4.688  14.467  0.00  0.00    +0.000 A 
ATOM     22  C   UNL     1       5.955   3.834  14.208  0.00  0.00    +0.000 A 
ATOM     23  C   UNL     1       5.656   3.451  12.901  0.00  0.00    +0.000 A 
ATOM     24  C   UNL     1       6.429   3.928  11.847  0.00  0.00    +0.000 A 
ATOM     25  C   UNL     1       7.501   4.787  12.098  0.00  0.00    +0.000 A 
ATOM     26  C   UNL     1       7.810   5.171  13.407  0.00  0.00    +0.000 A 
ENDBRANCH  18  21
ENDBRANCH  15  17
ENDBRANCH   1  15
TORSDOF 5
ENDMDL
MODEL 4
REMARK VINA RESULT:      -8.2      1.939      3.486
REMARK  Name = 
REMARK  5 active torsions:
REMARK  status: ('A' for Active; 'I' for Inactive)
REMARK    1  A    between atoms: C_2  and  C_3
REMARK    2  A    between atoms: C_4  and  N_5
REMARK    3  A    between atoms: N_5  and  C_6
REMARK    4  A    between atoms: C_6  and  N_8
REMARK    5  A    between atoms: C_9  and  C_11
REMARK                            x       y       z     vdW  Elec       q    Type
REMARK                         _______ _______ _______ _____ _____    ______ ____
ROOT
ATOM      1  N   UNL     1       4.766   4.612  18.531  0.00  0.00    +0.000 N 
ATOM      2  H   UNL     1       4.408   3.657  18.574  0.00  0.00    +0.000 HD
ENDROOT
BRANCH   1   4
ATOM      3  C   UNL     1       2.877   5.762  19.791  0.00  0.00    +0.000 A 
ATOM      4  C   UNL     1       3.850   5.596  18.835  0.00  0.00    +0.000 A 
ATOM      5  S   UNL     1       3.828   6.852  17.686  0.00  0.00    +0.000 S 
ATOM      6  C   UNL     1       2.621   7.719  18.541  0.00  0.00    +0.000 A 
ATOM      7  C   UNL     1       2.218   7.042  19.685  0.00  0.00    +0.000 A 
ATOM      8  C   UNL     1       1.188   7.532  20.670  0.00  0.00    +0.000 C 
ATOM      9  C   UNL     1       1.288   9.034  20.927  0.00  0.00    +0.000 C 
ATOM     10  C   UNL     1       0.587   9.883  19.867  0.00  0.00    +0.000 C 
ATOM     11  C   UNL     1       0.719   9.398  18.419  0.00  0.00    +0.000 C 
ATOM     12  C   UNL     1       2.147   9.045  17.999  0.00  0.00    +0.000 C 
BRANCH   3  14
ATOM     13  N   UNL     1       2.158   3.974  21.521  0.00  0.00    +0.000 NA
ATOM     14  C   UNL     1       2.460   4.755  20.717  0.00  0.00    +0.000 C 
ENDBRANCH   3  14
ENDBRANCH   1   4
BRANCH   1  15
ATOM     15  C   UNL     1       6.081   4.742  18.154  0.00  0.00    +0.000 C 
ATOM     16  S   UNL     1       7.365   5.279  19.080  0.00  0.00    +0.000 S 
BRANCH  15  17
ATOM     17  N   UNL     1       6.343   4.435  16.829  0.00  0.00    +0.000 N 
ATOM     18  C   UNL     1       6.883   5.280  15.874  0.00  0.00    +0.000 C 
ATOM     19  O   UNL     1       7.341   6.391  16.133  0.00  0.00    +0.000 OA
ATOM     20  H   UNL     1       5.985   3.533  16.546  0.00  0.00    +0.000 HD
BRANCH  18  21
ATOM     21  C   UNL     1       6.907   4.801  14.468  0.00  0.00    +0.000 A 
ATOM     22  C   UNL     1       5.965   3.827  14.111  0.00  0.00    +0.000 A 
ATOM     23  C   UNL     1       5.899   3.356  12.800  0.00  0.00    +0.000 A 
ATOM     24  C   UNL     1       6.768   3.864  11.839  0.00  0.00    +0.000 A 
ATOM     25  C   UNL     1       7.703   4.842  12.186  0.00  0.00    +0.000 A 
ATOM     26  C   UNL     1       7.779   5.314  13.500  0.00  0.00    +0.000 A 
ENDBRANCH  18  21
ENDBRANCH  15  17
ENDBRANCH   1  15
TORSDOF 5
ENDMDL
MODEL 5
REMARK VINA RESULT:      -8.1      2.521      3.905
REMARK  Name = 
REMARK  5 active torsions:
REMARK  status: ('A' for Active; 'I' for Inactive)
REMARK    1  A    between atoms: C_2  and  C_3
REMARK    2  A    between atoms: C_4  and  N_5
REMARK    3  A    between atoms: N_5  and  C_6
REMARK    4  A    between atoms: C_6  and  N_8
REMARK    5  A    between atoms: C_9  and  C_11
REMARK                            x       y       z     vdW  Elec       q    Type
REMARK                         _______ _______ _______ _____ _____    ______ ____
ROOT
ATOM      1  N   UNL     1       4.433   4.390  18.566  0.00  0.00    +0.000 N 
ATOM      2  H   UNL     1       5.217   4.304  19.215  0.00  0.00    +0.000 HD
ENDROOT
BRANCH   1   4
ATOM      3  C   UNL     1       3.608   6.709  17.916  0.00  0.00    +0.000 A 
ATOM      4  C   UNL     1       3.715   5.562  18.667  0.00  0.00    +0.000 A 
ATOM      5  S   UNL     1       2.847   5.678  20.126  0.00  0.00    +0.000 S 
ATOM      6  C   UNL     1       2.185   7.202  19.702  0.00  0.00    +0.000 A 
ATOM      7  C   UNL     1       2.644   7.633  18.464  0.00  0.00    +0.000 A 
ATOM      8  C   UNL     1       2.246   8.920  17.787  0.00  0.00    +0.000 C 
ATOM      9  C   UNL     1       0.766   9.246  17.969  0.00  0.00    +0.000 C 
ATOM     10  C   UNL     1       0.449   9.923  19.302  0.00  0.00    +0.000 C 
ATOM     11  C   UNL     1       1.218   9.404  20.521  0.00  0.00    +0.000 C 
ATOM     12  C   UNL     1       1.233   7.880  20.657  0.00  0.00    +0.000 C 
BRANCH   3  14
ATOM     13  N   UNL     1       5.153   7.256  15.912  0.00  0.00    +0.000 NA
ATOM     14  C   UNL     1       4.430   7.029  16.791  0.00  0.00    +0.000 C 
ENDBRANCH   3  14
ENDBRANCH   1   4
BRANCH   1  15
ATOM     15  C   UNL     1       4.224   3.317  17.734  0.00  0.00    +0.000 C 
ATOM     16  S   UNL     1       3.370   1.918  18.059  0.00  0.00    +0.000 S 
BRANCH  15  17
ATOM     17  N   UNL     1       4.848   3.403  16.500  0.00  0.00    +0.000 N 
ATOM     18  C   UNL     1       6.074   3.989  16.231  0.00  0.00    +0.000 C 
ATOM     19  O   UNL     1       6.843   4.384  17.105  0.00  0.00    +0.000 OA
ATOM     20  H   UNL     1       4.266   3.098  15.732  0.00  0.00    +0.000 HD
BRANCH  18  21
ATOM     21  C   UNL     1       6.469   4.132  14.806  0.00  0.00    +0.000 A 
ATOM     22  C   UNL     1       5.741   3.390  13.867  0.00  0.00    +0.000 A 
ATOM     23  C   UNL     1       6.025   3.502  12.506  0.00  0.00    +0.000 A 
ATOM     24  C   UNL     1       7.032   4.363  12.079  0.00  0.00    +0.000 A 
ATOM     25  C   UNL     1       7.755   5.112  13.010  0.00  0.00    +0.000 A 
ATOM     26  C   UNL     1       7.479   5.000  14.376  0.00  0.00    +0.000 A 
ENDBRANCH  18  21
ENDBRANCH  15  17
ENDBRANCH   1  15
TORSDOF 5
ENDMDL
MODEL 6
REMARK VINA RESULT:      -7.9      2.072      3.748
REMARK  Name = 
REMARK  5 active torsions:
REMARK  status: ('A' for Active; 'I' for Inactive)
REMARK    1  A    between atoms: C_2  and  C_3
REMARK    2  A    between atoms: C_4  and  N_5
REMARK    3  A    between atoms: N_5  and  C_6
REMARK    4  A    between atoms: C_6  and  N_8
REMARK    5  A    between atoms: C_9  and  C_11
REMARK                            x       y       z     vdW  Elec       q    Type
REMARK                         _______ _______ _______ _____ _____    ______ ____
ROOT
ATOM      1  N   UNL     1       4.027   4.926  18.212  0.00  0.00    +0.000 N 
ATOM      2  H   UNL     1       3.530   4.113  17.845  0.00  0.00    +0.000 HD
ENDROOT
BRANCH   1   4
ATOM      3  C   UNL     1       2.451   5.948  19.929  0.00  0.00    +0.000 A 
ATOM      4  C   UNL     1       3.230   5.885  18.799  0.00  0.00    +0.000 A 
ATOM      5  S   UNL     1       3.066   7.282  17.840  0.00  0.00    +0.000 S 
ATOM      6  C   UNL     1       2.074   8.059  19.002  0.00  0.00    +0.000 A 
ATOM      7  C   UNL     1       1.848   7.248  20.106  0.00  0.00    +0.000 A 
ATOM      8  C   UNL     1       1.034   7.631  21.317  0.00  0.00    +0.000 C 
ATOM      9  C   UNL     1       1.253   9.082  21.736  0.00  0.00    +0.000 C 
ATOM     10  C   UNL     1       0.418  10.082  20.936  0.00  0.00    +0.000 C 
ATOM     11  C   UNL     1       0.266   9.788  19.440  0.00  0.00    +0.000 C 
ATOM     12  C   UNL     1       1.578   9.457  18.725  0.00  0.00    +0.000 C 
BRANCH   3  14
ATOM     13  N   UNL     1       1.898   3.987  21.527  0.00  0.00    +0.000 NA
ATOM     14  C   UNL     1       2.156   4.839  20.782  0.00  0.00    +0.000 C 
ENDBRANCH   3  14
ENDBRANCH   1   4
BRANCH   1  15
ATOM     15  C   UNL     1       5.389   4.927  18.031  0.00  0.00    +0.000 C 
ATOM     16  S   UNL     1       6.571   5.334  19.141  0.00  0.00    +0.000 S 
BRANCH  15  17
ATOM     17  N   UNL     1       5.810   4.599  16.752  0.00  0.00    +0.000 N 
ATOM     18  C   UNL     1       6.052   5.478  15.709  0.00  0.00    +0.000 C 
ATOM     19  O   UNL     1       6.062   6.700  15.841  0.00  0.00    +0.000 OA
ATOM     20  H   UNL     1       5.818   3.604  16.574  0.00  0.00    +0.000 HD
BRANCH  18  21
ATOM     21  C   UNL     1       6.318   4.895  14.369  0.00  0.00    +0.000 A 
ATOM     22  C   UNL     1       7.450   5.359  13.686  0.00  0.00    +0.000 A 
ATOM     23  C   UNL     1       7.788   4.831  12.441  0.00  0.00    +0.000 A 
ATOM     24  C   UNL     1       7.001   3.831  11.877  0.00  0.00    +0.000 A 
ATOM     25  C   UNL     1       5.876   3.358  12.556  0.00  0.00    +0.000 A 
ATOM     26  C   UNL     1       5.528   3.887  13.803  0.00  0.00    +0.000 A 
ENDBRANCH  18  21
ENDBRANCH  15  17
ENDBRANCH   1  15
TORSDOF 5
ENDMDL
MODEL 7
REMARK VINA RESULT:      -7.9      2.197      4.052
REMARK  Name = 
REMARK  5 active torsions:
REMARK  status: ('A' for Active; 'I' for Inactive)
REMARK    1  A    between atoms: C_2  and  C_3
REMARK    2  A    between atoms: C_4  and  N_5
REMARK    3  A    between atoms: N_5  and  C_6
REMARK    4  A    between atoms: C_6  and  N_8
REMARK    5  A    between atoms: C_9  and  C_11
REMARK                            x       y       z     vdW  Elec       q    Type
REMARK                         _______ _______ _______ _____ _____    ______ ____
ROOT
ATOM      1  N   UNL     1       4.152   5.125  18.225  0.00  0.00    +0.000 N 
ATOM      2  H   UNL     1       5.142   5.237  18.450  0.00  0.00    +0.000 HD
ENDROOT
BRANCH   1   4
ATOM      3  C   UNL     1       2.517   6.123  19.901  0.00  0.00    +0.000 A 
ATOM      4  C   UNL     1       3.313   6.066  18.783  0.00  0.00    +0.000 A 
ATOM      5  S   UNL     1       3.115   7.438  17.795  0.00  0.00    +0.000 S 
ATOM      6  C   UNL     1       2.081   8.202  18.929  0.00  0.00    +0.000 A 
ATOM      7  C   UNL     1       1.866   7.403  20.045  0.00  0.00    +0.000 A 
ATOM      8  C   UNL     1       1.023   7.780  21.237  0.00  0.00    +0.000 C 
ATOM      9  C   UNL     1       1.185   9.245  21.632  0.00  0.00    +0.000 C 
ATOM     10  C   UNL     1       0.327  10.200  20.802  0.00  0.00    +0.000 C 
ATOM     11  C   UNL     1       0.207   9.874  19.310  0.00  0.00    +0.000 C 
ATOM     12  C   UNL     1       1.540   9.576  18.619  0.00  0.00    +0.000 C 
BRANCH   3  14
ATOM     13  N   UNL     1       2.103   4.114  21.481  0.00  0.00    +0.000 NA
ATOM     14  C   UNL     1       2.248   5.020  20.770  0.00  0.00    +0.000 C 
ENDBRANCH   3  14
ENDBRANCH   1   4
BRANCH   1  15
ATOM     15  C   UNL     1       3.836   4.048  17.432  0.00  0.00    +0.000 C 
ATOM     16  S   UNL     1       2.690   2.865  17.717  0.00  0.00    +0.000 S 
BRANCH  15  17
ATOM     17  N   UNL     1       4.609   3.916  16.289  0.00  0.00    +0.000 N 
ATOM     18  C   UNL     1       5.354   4.909  15.674  0.00  0.00    +0.000 C 
ATOM     19  O   UNL     1       5.540   6.020  16.166  0.00  0.00    +0.000 OA
ATOM     20  H   UNL     1       4.498   3.023  15.829  0.00  0.00    +0.000 HD
BRANCH  18  21
ATOM     21  C   UNL     1       5.959   4.595  14.355  0.00  0.00    +0.000 A 
ATOM     22  C   UNL     1       7.165   5.233  14.039  0.00  0.00    +0.000 A 
ATOM     23  C   UNL     1       7.815   4.960  12.836  0.00  0.00    +0.000 A 
ATOM     24  C   UNL     1       7.266   4.039  11.948  0.00  0.00    +0.000 A 
ATOM     25  C   UNL     1       6.068   3.393  12.260  0.00  0.00    +0.000 A 
ATOM     26  C   UNL     1       5.408   3.667  13.463  0.00  0.00    +0.000 A 
ENDBRANCH  18  21
ENDBRANCH  15  17
ENDBRANCH   1  15
TORSDOF 5
ENDMDL
MODEL 8
REMARK VINA RESULT:      -7.8      1.965      3.703
REMARK  Name = 
REMARK  5 active torsions:
REMARK  status: ('A' for Active; 'I' for Inactive)
REMARK    1  A    between atoms: C_2  and  C_3
REMARK    2  A    between atoms: C_4  and  N_5
REMARK    3  A    between atoms: N_5  and  C_6
REMARK    4  A    between atoms: C_6  and  N_8
REMARK    5  A    between atoms: C_9  and  C_11
REMARK                            x       y       z     vdW  Elec       q    Type
REMARK                         _______ _______ _______ _____ _____    ______ ____
ROOT
ATOM      1  N   UNL     1       4.811   5.115  18.452  0.00  0.00    +0.000 N 
ATOM      2  H   UNL     1       4.535   4.136  18.542  0.00  0.00    +0.000 HD
ENDROOT
BRANCH   1   4
ATOM      3  C   UNL     1       2.841   6.117  19.714  0.00  0.00    +0.000 A 
ATOM      4  C   UNL     1       3.830   6.032  18.765  0.00  0.00    +0.000 A 
ATOM      5  S   UNL     1       3.735   7.303  17.637  0.00  0.00    +0.000 S 
ATOM      6  C   UNL     1       2.467   8.075  18.496  0.00  0.00    +0.000 A 
ATOM      7  C   UNL     1       2.100   7.353  19.624  0.00  0.00    +0.000 A 
ATOM      8  C   UNL     1       1.032   7.757  20.609  0.00  0.00    +0.000 C 
ATOM      9  C   UNL     1       1.032   9.257  20.891  0.00  0.00    +0.000 C 
ATOM     10  C   UNL     1       0.285  10.077  19.839  0.00  0.00    +0.000 C 
ATOM     11  C   UNL     1       0.460   9.627  18.385  0.00  0.00    +0.000 C 
ATOM     12  C   UNL     1       1.911   9.375  17.972  0.00  0.00    +0.000 C 
BRANCH   3  14
ATOM     13  N   UNL     1       2.178   4.269  21.403  0.00  0.00    +0.000 NA
ATOM     14  C   UNL     1       2.484   5.069  20.619  0.00  0.00    +0.000 C 
ENDBRANCH   3  14
ENDBRANCH   1   4
BRANCH   1  15
ATOM     15  C   UNL     1       6.094   5.338  18.013  0.00  0.00    +0.000 C 
ATOM     16  S   UNL     1       7.433   5.750  18.925  0.00  0.00    +0.000 S 
BRANCH  15  17
ATOM     17  N   UNL     1       6.265   5.257  16.640  0.00  0.00    +0.000 N 
ATOM     18  C   UNL     1       5.798   4.257  15.805  0.00  0.00    +0.000 C 
ATOM     19  O   UNL     1       5.028   3.372  16.172  0.00  0.00    +0.000 OA
ATOM     20  H   UNL     1       6.895   5.957  16.272  0.00  0.00    +0.000 HD
BRANCH  18  21
ATOM     21  C   UNL     1       6.254   4.274  14.392  0.00  0.00    +0.000 A 
ATOM     22  C   UNL     1       7.326   5.121  14.079  0.00  0.00    +0.000 A 
ATOM     23  C   UNL     1       7.837   5.163  12.782  0.00  0.00    +0.000 A 
ATOM     24  C   UNL     1       7.285   4.351  11.795  0.00  0.00    +0.000 A 
ATOM     25  C   UNL     1       6.223   3.498  12.102  0.00  0.00    +0.000 A 
ATOM     26  C   UNL     1       5.702   3.456  13.399  0.00  0.00    +0.000 A 
ENDBRANCH  18  21
ENDBRANCH  15  17
ENDBRANCH   1  15
TORSDOF 5
ENDMDL
MODEL 9
REMARK VINA RESULT:      -7.8      2.061      3.639
REMARK  Name = 
REMARK  5 active torsions:
REMARK  status: ('A' for Active; 'I' for Inactive)
REMARK    1  A    between atoms: C_2  and  C_3
REMARK    2  A    between atoms: C_4  and  N_5
REMARK    3  A    between atoms: N_5  and  C_6
REMARK    4  A    between atoms: C_6  and  N_8
REMARK    5  A    between atoms: C_9  and  C_11
REMARK                            x       y       z     vdW  Elec       q    Type
REMARK                         _______ _______ _______ _____ _____    ______ ____
ROOT
ATOM      1  N   UNL     1       4.450   5.130  18.316  0.00  0.00    +0.000 N 
ATOM      2  H   UNL     1       4.067   4.199  18.147  0.00  0.00    +0.000 HD
ENDROOT
BRANCH   1   4
ATOM      3  C   UNL     1       2.661   6.134  19.823  0.00  0.00    +0.000 A 
ATOM      4  C   UNL     1       3.543   6.063  18.772  0.00  0.00    +0.000 A 
ATOM      5  S   UNL     1       3.381   7.391  17.720  0.00  0.00    +0.000 S 
ATOM      6  C   UNL     1       2.239   8.161  18.741  0.00  0.00    +0.000 A 
ATOM      7  C   UNL     1       1.963   7.397  19.868  0.00  0.00    +0.000 A 
ATOM      8  C   UNL     1       1.019   7.788  20.976  0.00  0.00    +0.000 C 
ATOM      9  C   UNL     1       1.106   9.272  21.325  0.00  0.00    +0.000 C 
ATOM     10  C   UNL     1       0.287  10.167  20.397  0.00  0.00    +0.000 C 
ATOM     11  C   UNL     1       0.293   9.784  18.913  0.00  0.00    +0.000 C 
ATOM     12  C   UNL     1       1.683   9.505  18.338  0.00  0.00    +0.000 C 
BRANCH   3  14
ATOM     13  N   UNL     1       2.066   4.223  21.466  0.00  0.00    +0.000 NA
ATOM     14  C   UNL     1       2.359   5.055  20.711  0.00  0.00    +0.000 C 
ENDBRANCH   3  14
ENDBRANCH   1   4
BRANCH   1  15
ATOM     15  C   UNL     1       5.786   5.289  18.036  0.00  0.00    +0.000 C 
ATOM     16  S   UNL     1       7.029   5.598  19.109  0.00  0.00    +0.000 S 
BRANCH  15  17
ATOM     17  N   UNL     1       6.112   5.234  16.690  0.00  0.00    +0.000 N 
ATOM     18  C   UNL     1       5.618   4.342  15.754  0.00  0.00    +0.000 C 
ATOM     19  O   UNL     1       4.696   3.562  15.981  0.00  0.00    +0.000 OA
ATOM     20  H   UNL     1       6.872   5.850  16.435  0.00  0.00    +0.000 HD
BRANCH  18  21
ATOM     21  C   UNL     1       6.243   4.345  14.406  0.00  0.00    +0.000 A 
ATOM     22  C   UNL     1       5.665   3.518  13.434  0.00  0.00    +0.000 A 
ATOM     23  C   UNL     1       6.170   3.496  12.135  0.00  0.00    +0.000 A 
ATOM     24  C   UNL     1       7.249   4.308  11.800  0.00  0.00    +0.000 A 
ATOM     25  C   UNL     1       7.825   5.141  12.762  0.00  0.00    +0.000 A 
ATOM     26  C   UNL     1       7.327   5.164  14.068  0.00  0.00    +0.000 A 
ENDBRANCH  18  21
ENDBRANCH  15  17
ENDBRANCH   1  15
TORSDOF 5
ENDMDL
