MODEL 1
REMARK VINA RESULT:      -8.0      0.000      0.000
REMARK  Name = 
REMARK  9 active torsions:
REMARK  status: ('A' for Active; 'I' for Inactive)
REMARK    1  A    between atoms: C_1  and  C_2
REMARK    2  A    between atoms: C_2  and  N_3
REMARK    3  A    between atoms: N_3  and  C_4
REMARK    4  A    between atoms: N_3  and  S_6
REMARK    5  A    between atoms: C_4  and  C_5
REMARK    6  A    between atoms: S_6  and  C_9
REMARK    7  A    between atoms: C_14  and  C_15
REMARK    8  A    between atoms: N_17  and  C_18
REMARK    9  A    between atoms: C_28  and  C_29
REMARK                            x       y       z     vdW  Elec       q    Type
REMARK                         _______ _______ _______ _____ _____    ______ ____
ROOT
ATOM      1  C   UNL     1       2.351   7.043  19.388  0.00  0.00    +0.000 A 
ATOM      2  C   UNL     1       2.480   7.591  18.106  0.00  0.00    +0.000 A 
ATOM      3  C   UNL     1       1.950   8.859  17.809  0.00  0.00    +0.000 A 
ATOM      4  C   UNL     1       1.293   9.523  18.846  0.00  0.00    +0.000 A 
ATOM      5  O   UNL     1       0.718  10.754  18.779  0.00  0.00    +0.000 OA
ATOM      6  C   UNL     1       0.183  11.048  20.020  0.00  0.00    +0.000 A 
ATOM      7  C   UNL     1       0.422   9.969  20.877  0.00  0.00    +0.000 A 
ATOM      8  C   UNL     1       0.096   9.742  22.309  0.00  0.00    +0.000 C 
ATOM      9  C   UNL     1       1.138   8.997  20.115  0.00  0.00    +0.000 A 
ATOM     10  C   UNL     1       1.672   7.727  20.403  0.00  0.00    +0.000 A 
ENDROOT
BRANCH   6  11
ATOM     11  C   UNL     1      -0.463  12.355  20.182  0.00  0.00    +0.000 C 
ATOM     12  O   UNL     1       0.058  13.425  19.888  0.00  0.00    +0.000 OA
ATOM     13  N   UNL     1      -1.752  12.281  20.682  0.00  0.00    +0.000 N 
ATOM     14  H   UNL     1      -2.094  11.366  20.942  0.00  0.00    +0.000 HD
BRANCH  13  15
ATOM     15  C   UNL     1      -2.608  13.422  20.995  0.00  0.00    +0.000 C 
ATOM     16  C   UNL     1      -2.294  13.925  22.410  0.00  0.00    +0.000 C 
ATOM     17  C   UNL     1      -2.800  12.935  23.462  0.00  0.00    +0.000 C 
ATOM     18  C   UNL     1      -4.318  12.826  23.409  0.00  0.00    +0.000 C 
ATOM     19  C   UNL     1      -4.852  12.690  22.004  0.00  0.00    +0.000 A 
ATOM     20  C   UNL     1      -6.193  12.306  21.842  0.00  0.00    +0.000 A 
ATOM     21  C   UNL     1      -6.762  12.230  20.574  0.00  0.00    +0.000 A 
ATOM     22  C   UNL     1      -5.999  12.542  19.452  0.00  0.00    +0.000 A 
ATOM     23  C   UNL     1      -4.662  12.922  19.597  0.00  0.00    +0.000 A 
ATOM     24  C   UNL     1      -4.071  13.009  20.871  0.00  0.00    +0.000 A 
ENDBRANCH  13  15
ENDBRANCH   6  11
BRANCH   1  25
ATOM     25  S   UNL     1       3.001   5.422  19.752  0.00  0.00    +0.000 S 
ATOM     26  O   UNL     1       2.330   4.938  20.919  0.00  0.00    +0.000 OA
ATOM     27  O   UNL     1       4.457   5.541  19.707  0.00  0.00    +0.000 OA
BRANCH  25  28
ATOM     28  N   UNL     1       2.547   4.432  18.398  0.00  0.00    +0.000 NA
BRANCH  28  30
ATOM     29  C   UNL     1       4.396   3.979  16.683  0.00  0.00    +0.000 C 
ATOM     30  C   UNL     1       3.701   3.575  17.967  0.00  0.00    +0.000 C 
ENDBRANCH  28  30
BRANCH  28  31
ATOM     31  C   UNL     1       1.267   3.669  18.663  0.00  0.00    +0.000 C 
ATOM     32  C   UNL     1       1.478   2.176  18.855  0.00  0.00    +0.000 C 
ENDBRANCH  28  31
ENDBRANCH  25  28
ENDBRANCH   1  25
TORSDOF 6
ENDMDL
MODEL 2
REMARK VINA RESULT:      -7.9      2.885      9.904
REMARK  Name = 
REMARK  9 active torsions:
REMARK  status: ('A' for Active; 'I' for Inactive)
REMARK    1  A    between atoms: C_1  and  C_2
REMARK    2  A    between atoms: C_2  and  N_3
REMARK    3  A    between atoms: N_3  and  C_4
REMARK    4  A    between atoms: N_3  and  S_6
REMARK    5  A    between atoms: C_4  and  C_5
REMARK    6  A    between atoms: S_6  and  C_9
REMARK    7  A    between atoms: C_14  and  C_15
REMARK    8  A    between atoms: N_17  and  C_18
REMARK    9  A    between atoms: C_28  and  C_29
REMARK                            x       y       z     vdW  Elec       q    Type
REMARK                         _______ _______ _______ _____ _____    ______ ____
ROOT
ATOM      1  C   UNL     1      -0.891  11.116  22.276  0.00  0.00    +0.000 A 
ATOM      2  C   UNL     1      -0.343  10.097  23.064  0.00  0.00    +0.000 A 
ATOM      3  C   UNL     1       0.483   9.113  22.494  0.00  0.00    +0.000 A 
ATOM      4  C   UNL     1       0.712   9.205  21.121  0.00  0.00    +0.000 A 
ATOM      5  O   UNL     1       1.482   8.368  20.373  0.00  0.00    +0.000 OA
ATOM      6  C   UNL     1       1.453   8.810  19.063  0.00  0.00    +0.000 A 
ATOM      7  C   UNL     1       0.637   9.944  18.992  0.00  0.00    +0.000 A 
ATOM      8  C   UNL     1       0.264  10.834  17.862  0.00  0.00    +0.000 C 
ATOM      9  C   UNL     1       0.170  10.190  20.318  0.00  0.00    +0.000 A 
ATOM     10  C   UNL     1      -0.656  11.172  20.898  0.00  0.00    +0.000 A 
ENDROOT
BRANCH   6  11
ATOM     11  C   UNL     1       2.250   8.064  18.083  0.00  0.00    +0.000 C 
ATOM     12  O   UNL     1       2.611   8.512  17.001  0.00  0.00    +0.000 OA
ATOM     13  N   UNL     1       2.591   6.789  18.499  0.00  0.00    +0.000 N 
ATOM     14  H   UNL     1       2.219   6.476  19.385  0.00  0.00    +0.000 HD
BRANCH  13  15
ATOM     15  C   UNL     1       3.331   5.807  17.709  0.00  0.00    +0.000 C 
ATOM     16  C   UNL     1       2.867   4.394  18.084  0.00  0.00    +0.000 C 
ATOM     17  C   UNL     1       3.360   4.014  19.482  0.00  0.00    +0.000 C 
ATOM     18  C   UNL     1       4.881   3.953  19.514  0.00  0.00    +0.000 C 
ATOM     19  C   UNL     1       5.536   5.132  18.836  0.00  0.00    +0.000 A 
ATOM     20  C   UNL     1       6.910   5.332  19.040  0.00  0.00    +0.000 A 
ATOM     21  C   UNL     1       7.584   6.360  18.388  0.00  0.00    +0.000 A 
ATOM     22  C   UNL     1       6.891   7.199  17.519  0.00  0.00    +0.000 A 
ATOM     23  C   UNL     1       5.522   7.016  17.309  0.00  0.00    +0.000 A 
ATOM     24  C   UNL     1       4.826   5.978  17.956  0.00  0.00    +0.000 A 
ENDBRANCH  13  15
ENDBRANCH   6  11
BRANCH   1  25
ATOM     25  S   UNL     1      -1.962  12.347  22.999  0.00  0.00    +0.000 S 
ATOM     26  O   UNL     1      -1.145  13.233  23.771  0.00  0.00    +0.000 OA
ATOM     27  O   UNL     1      -3.076  11.620  23.606  0.00  0.00    +0.000 OA
BRANCH  25  28
ATOM     28  N   UNL     1      -2.623  13.226  21.655  0.00  0.00    +0.000 NA
BRANCH  28  30
ATOM     29  C   UNL     1      -4.392  12.481  19.959  0.00  0.00    +0.000 C 
ATOM     30  C   UNL     1      -4.038  12.801  21.397  0.00  0.00    +0.000 C 
ENDBRANCH  28  30
BRANCH  28  31
ATOM     31  C   UNL     1      -2.440  14.721  21.816  0.00  0.00    +0.000 C 
ATOM     32  C   UNL     1      -3.723  15.455  22.169  0.00  0.00    +0.000 C 
ENDBRANCH  28  31
ENDBRANCH  25  28
ENDBRANCH   1  25
TORSDOF 6
ENDMDL
MODEL 3
REMARK VINA RESULT:      -7.6      2.972      5.044
REMARK  Name = 
REMARK  9 active torsions:
REMARK  status: ('A' for Active; 'I' for Inactive)
REMARK    1  A    between atoms: C_1  and  C_2
REMARK    2  A    between atoms: C_2  and  N_3
REMARK    3  A    between atoms: N_3  and  C_4
REMARK    4  A    between atoms: N_3  and  S_6
REMARK    5  A    between atoms: C_4  and  C_5
REMARK    6  A    between atoms: S_6  and  C_9
REMARK    7  A    between atoms: C_14  and  C_15
REMARK    8  A    between atoms: N_17  and  C_18
REMARK    9  A    between atoms: C_28  and  C_29
REMARK                            x       y       z     vdW  Elec       q    Type
REMARK                         _______ _______ _______ _____ _____    ______ ____
ROOT
ATOM      1  C   UNL     1       2.822   4.326  18.729  0.00  0.00    +0.000 A 
ATOM      2  C   UNL     1       2.505   3.900  20.024  0.00  0.00    +0.000 A 
ATOM      3  C   UNL     1       2.037   4.812  20.986  0.00  0.00    +0.000 A 
ATOM      4  C   UNL     1       1.919   6.144  20.584  0.00  0.00    +0.000 A 
ATOM      5  O   UNL     1       1.482   7.181  21.347  0.00  0.00    +0.000 OA
ATOM      6  C   UNL     1       1.509   8.327  20.573  0.00  0.00    +0.000 A 
ATOM      7  C   UNL     1       1.984   7.996  19.300  0.00  0.00    +0.000 A 
ATOM      8  C   UNL     1       2.201   8.807  18.074  0.00  0.00    +0.000 C 
ATOM      9  C   UNL     1       2.241   6.592  19.317  0.00  0.00    +0.000 A 
ATOM     10  C   UNL     1       2.708   5.671  18.360  0.00  0.00    +0.000 A 
ENDROOT
BRANCH   6  11
ATOM     11  C   UNL     1       1.042   9.572  21.195  0.00  0.00    +0.000 C 
ATOM     12  O   UNL     1       1.033   9.779  22.403  0.00  0.00    +0.000 OA
ATOM     13  N   UNL     1       0.625  10.526  20.284  0.00  0.00    +0.000 N 
ATOM     14  H   UNL     1       0.621  10.264  19.308  0.00  0.00    +0.000 HD
BRANCH  13  15
ATOM     15  C   UNL     1       0.062  11.832  20.621  0.00  0.00    +0.000 C 
ATOM     16  C   UNL     1      -1.327  11.970  19.984  0.00  0.00    +0.000 C 
ATOM     17  C   UNL     1      -1.215  12.129  18.466  0.00  0.00    +0.000 C 
ATOM     18  C   UNL     1      -0.488  13.420  18.115  0.00  0.00    +0.000 C 
ATOM     19  C   UNL     1       0.759  13.640  18.936  0.00  0.00    +0.000 A 
ATOM     20  C   UNL     1       1.655  14.638  18.522  0.00  0.00    +0.000 A 
ATOM     21  C   UNL     1       2.787  14.934  19.276  0.00  0.00    +0.000 A 
ATOM     22  C   UNL     1       3.033  14.240  20.457  0.00  0.00    +0.000 A 
ATOM     23  C   UNL     1       2.153  13.241  20.881  0.00  0.00    +0.000 A 
ATOM     24  C   UNL     1       1.001  12.931  20.133  0.00  0.00    +0.000 A 
ENDBRANCH  13  15
ENDBRANCH   6  11
BRANCH   1  25
ATOM     25  S   UNL     1       3.441   3.169  17.519  0.00  0.00    +0.000 S 
ATOM     26  O   UNL     1       2.608   3.265  16.360  0.00  0.00    +0.000 OA
ATOM     27  O   UNL     1       3.623   1.898  18.220  0.00  0.00    +0.000 OA
BRANCH  25  28
ATOM     28  N   UNL     1       5.031   3.738  17.113  0.00  0.00    +0.000 NA
BRANCH  28  30
ATOM     29  C   UNL     1       5.893   4.100  14.728  0.00  0.00    +0.000 C 
ATOM     30  C   UNL     1       4.989   4.555  15.856  0.00  0.00    +0.000 C 
ENDBRANCH  28  30
BRANCH  28  31
ATOM     31  C   UNL     1       5.698   4.428  18.285  0.00  0.00    +0.000 C 
ATOM     32  C   UNL     1       7.164   4.749  18.047  0.00  0.00    +0.000 C 
ENDBRANCH  28  31
ENDBRANCH  25  28
ENDBRANCH   1  25
TORSDOF 6
ENDMDL
MODEL 4
REMARK VINA RESULT:      -7.6      2.385     10.230
REMARK  Name = 
REMARK  9 active torsions:
REMARK  status: ('A' for Active; 'I' for Inactive)
REMARK    1  A    between atoms: C_1  and  C_2
REMARK    2  A    between atoms: C_2  and  N_3
REMARK    3  A    between atoms: N_3  and  C_4
REMARK    4  A    between atoms: N_3  and  S_6
REMARK    5  A    between atoms: C_4  and  C_5
REMARK    6  A    between atoms: S_6  and  C_9
REMARK    7  A    between atoms: C_14  and  C_15
REMARK    8  A    between atoms: N_17  and  C_18
REMARK    9  A    between atoms: C_28  and  C_29
REMARK                            x       y       z     vdW  Elec       q    Type
REMARK                         _______ _______ _______ _____ _____    ______ ____
ROOT
ATOM      1  C   UNL     1       0.256  10.851  20.665  0.00  0.00    +0.000 A 
ATOM      2  C   UNL     1       0.019  10.190  21.876  0.00  0.00    +0.000 A 
ATOM      3  C   UNL     1       0.455   8.868  22.071  0.00  0.00    +0.000 A 
ATOM      4  C   UNL     1       1.117   8.261  21.002  0.00  0.00    +0.000 A 
ATOM      5  O   UNL     1       1.627   7.000  20.980  0.00  0.00    +0.000 OA
ATOM      6  C   UNL     1       2.207   6.792  19.742  0.00  0.00    +0.000 A 
ATOM      7  C   UNL     1       2.046   7.948  18.972  0.00  0.00    +0.000 A 
ATOM      8  C   UNL     1       2.480   8.296  17.594  0.00  0.00    +0.000 C 
ATOM      9  C   UNL     1       1.349   8.886  19.791  0.00  0.00    +0.000 A 
ATOM     10  C   UNL     1       0.909  10.210  19.605  0.00  0.00    +0.000 A 
ENDROOT
BRANCH   6  11
ATOM     11  C   UNL     1       2.852   5.494  19.511  0.00  0.00    +0.000 C 
ATOM     12  O   UNL     1       2.353   4.413  19.800  0.00  0.00    +0.000 OA
ATOM     13  N   UNL     1       4.091   5.590  18.901  0.00  0.00    +0.000 N 
ATOM     14  H   UNL     1       4.454   6.518  18.734  0.00  0.00    +0.000 HD
BRANCH  13  15
ATOM     15  C   UNL     1       4.979   4.468  18.602  0.00  0.00    +0.000 C 
ATOM     16  C   UNL     1       6.129   4.441  19.618  0.00  0.00    +0.000 C 
ATOM     17  C   UNL     1       7.097   5.600  19.372  0.00  0.00    +0.000 C 
ATOM     18  C   UNL     1       7.767   5.460  18.012  0.00  0.00    +0.000 C 
ATOM     19  C   UNL     1       6.798   5.110  16.908  0.00  0.00    +0.000 A 
ATOM     20  C   UNL     1       7.240   5.226  15.581  0.00  0.00    +0.000 A 
ATOM     21  C   UNL     1       6.416   4.853  14.522  0.00  0.00    +0.000 A 
ATOM     22  C   UNL     1       5.142   4.354  14.779  0.00  0.00    +0.000 A 
ATOM     23  C   UNL     1       4.687   4.236  16.095  0.00  0.00    +0.000 A 
ATOM     24  C   UNL     1       5.507   4.605  17.177  0.00  0.00    +0.000 A 
ENDBRANCH  13  15
ENDBRANCH   6  11
BRANCH   1  25
ATOM     25  S   UNL     1      -0.324  12.519  20.412  0.00  0.00    +0.000 S 
ATOM     26  O   UNL     1       0.351  13.045  19.266  0.00  0.00    +0.000 OA
ATOM     27  O   UNL     1      -0.246  13.184  21.712  0.00  0.00    +0.000 OA
BRANCH  25  28
ATOM     28  N   UNL     1      -2.015  12.365  20.041  0.00  0.00    +0.000 NA
BRANCH  28  30
ATOM     29  C   UNL     1      -3.822  13.179  21.665  0.00  0.00    +0.000 C 
ATOM     30  C   UNL     1      -2.783  13.519  20.615  0.00  0.00    +0.000 C 
ENDBRANCH  28  30
BRANCH  28  31
ATOM     31  C   UNL     1      -2.247  12.133  18.563  0.00  0.00    +0.000 C 
ATOM     32  C   UNL     1      -3.550  11.413  18.259  0.00  0.00    +0.000 C 
ENDBRANCH  28  31
ENDBRANCH  25  28
ENDBRANCH   1  25
TORSDOF 6
ENDMDL
MODEL 5
REMARK VINA RESULT:      -7.5      2.831      9.871
REMARK  Name = 
REMARK  9 active torsions:
REMARK  status: ('A' for Active; 'I' for Inactive)
REMARK    1  A    between atoms: C_1  and  C_2
REMARK    2  A    between atoms: C_2  and  N_3
REMARK    3  A    between atoms: N_3  and  C_4
REMARK    4  A    between atoms: N_3  and  S_6
REMARK    5  A    between atoms: C_4  and  C_5
REMARK    6  A    between atoms: S_6  and  C_9
REMARK    7  A    between atoms: C_14  and  C_15
REMARK    8  A    between atoms: N_17  and  C_18
REMARK    9  A    between atoms: C_28  and  C_29
REMARK                            x       y       z     vdW  Elec       q    Type
REMARK                         _______ _______ _______ _____ _____    ______ ____
ROOT
ATOM      1  C   UNL     1      -0.885  12.103  21.456  0.00  0.00    +0.000 A 
ATOM      2  C   UNL     1      -0.791  12.862  20.283  0.00  0.00    +0.000 A 
ATOM      3  C   UNL     1      -0.114  12.363  19.157  0.00  0.00    +0.000 A 
ATOM      4  C   UNL     1       0.455  11.094  19.277  0.00  0.00    +0.000 A 
ATOM      5  O   UNL     1       1.142  10.423  18.314  0.00  0.00    +0.000 OA
ATOM      6  C   UNL     1       1.530   9.201  18.833  0.00  0.00    +0.000 A 
ATOM      7  C   UNL     1       1.082   9.114  20.155  0.00  0.00    +0.000 A 
ATOM      8  C   UNL     1       1.191   8.039  21.176  0.00  0.00    +0.000 C 
ATOM      9  C   UNL     1       0.391  10.332  20.429  0.00  0.00    +0.000 A 
ATOM     10  C   UNL     1      -0.290  10.840  21.552  0.00  0.00    +0.000 A 
ENDROOT
BRANCH   6  11
ATOM     11  C   UNL     1       2.264   8.294  17.943  0.00  0.00    +0.000 C 
ATOM     12  O   UNL     1       2.666   8.597  16.826  0.00  0.00    +0.000 OA
ATOM     13  N   UNL     1       2.493   7.043  18.490  0.00  0.00    +0.000 N 
ATOM     14  H   UNL     1       2.092   6.855  19.398  0.00  0.00    +0.000 HD
BRANCH  13  15
ATOM     15  C   UNL     1       3.149   5.927  17.812  0.00  0.00    +0.000 C 
ATOM     16  C   UNL     1       2.587   4.603  18.345  0.00  0.00    +0.000 C 
ATOM     17  C   UNL     1       3.070   4.346  19.775  0.00  0.00    +0.000 C 
ATOM     18  C   UNL     1       4.583   4.177  19.808  0.00  0.00    +0.000 C 
ATOM     19  C   UNL     1       5.313   5.221  18.998  0.00  0.00    +0.000 A 
ATOM     20  C   UNL     1       6.701   5.340  19.172  0.00  0.00    +0.000 A 
ATOM     21  C   UNL     1       7.439   6.236  18.405  0.00  0.00    +0.000 A 
ATOM     22  C   UNL     1       6.799   7.022  17.451  0.00  0.00    +0.000 A 
ATOM     23  C   UNL     1       5.418   6.918  17.268  0.00  0.00    +0.000 A 
ATOM     24  C   UNL     1       4.656   6.014  18.032  0.00  0.00    +0.000 A 
ENDBRANCH  13  15
ENDBRANCH   6  11
BRANCH   1  25
ATOM     25  S   UNL     1      -1.721  12.753  22.893  0.00  0.00    +0.000 S 
ATOM     26  O   UNL     1      -0.770  13.517  23.639  0.00  0.00    +0.000 OA
ATOM     27  O   UNL     1      -2.435  11.629  23.498  0.00  0.00    +0.000 OA
BRANCH  25  28
ATOM     28  N   UNL     1      -2.935  13.828  22.270  0.00  0.00    +0.000 NA
BRANCH  28  30
ATOM     29  C   UNL     1      -4.563  12.715  20.634  0.00  0.00    +0.000 C 
ATOM     30  C   UNL     1      -4.227  13.094  22.063  0.00  0.00    +0.000 C 
ENDBRANCH  28  30
BRANCH  28  31
ATOM     31  C   UNL     1      -3.057  15.084  23.107  0.00  0.00    +0.000 C 
ATOM     32  C   UNL     1      -4.041  14.953  24.258  0.00  0.00    +0.000 C 
ENDBRANCH  28  31
ENDBRANCH  25  28
ENDBRANCH   1  25
TORSDOF 6
ENDMDL
MODEL 6
REMARK VINA RESULT:      -7.5      3.026      5.137
REMARK  Name = 
REMARK  9 active torsions:
REMARK  status: ('A' for Active; 'I' for Inactive)
REMARK    1  A    between atoms: C_1  and  C_2
REMARK    2  A    between atoms: C_2  and  N_3
REMARK    3  A    between atoms: N_3  and  C_4
REMARK    4  A    between atoms: N_3  and  S_6
REMARK    5  A    between atoms: C_4  and  C_5
REMARK    6  A    between atoms: S_6  and  C_9
REMARK    7  A    between atoms: C_14  and  C_15
REMARK    8  A    between atoms: N_17  and  C_18
REMARK    9  A    between atoms: C_28  and  C_29
REMARK                            x       y       z     vdW  Elec       q    Type
REMARK                         _______ _______ _______ _____ _____    ______ ____
ROOT
ATOM      1  C   UNL     1       2.876   4.809  18.735  0.00  0.00    +0.000 A 
ATOM      2  C   UNL     1       2.526   4.358  20.014  0.00  0.00    +0.000 A 
ATOM      3  C   UNL     1       1.955   5.234  20.954  0.00  0.00    +0.000 A 
ATOM      4  C   UNL     1       1.770   6.556  20.548  0.00  0.00    +0.000 A 
ATOM      5  O   UNL     1       1.231   7.560  21.291  0.00  0.00    +0.000 OA
ATOM      6  C   UNL     1       1.221   8.709  20.520  0.00  0.00    +0.000 A 
ATOM      7  C   UNL     1       1.776   8.415  19.271  0.00  0.00    +0.000 A 
ATOM      8  C   UNL     1       1.998   9.244  18.058  0.00  0.00    +0.000 C 
ATOM      9  C   UNL     1       2.123   7.030  19.298  0.00  0.00    +0.000 A 
ATOM     10  C   UNL     1       2.693   6.145  18.363  0.00  0.00    +0.000 A 
ENDROOT
BRANCH   6  11
ATOM     11  C   UNL     1       0.645   9.918  21.121  0.00  0.00    +0.000 C 
ATOM     12  O   UNL     1      -0.077   9.920  22.112  0.00  0.00    +0.000 OA
ATOM     13  N   UNL     1       1.012  11.087  20.479  0.00  0.00    +0.000 N 
ATOM     14  H   UNL     1       1.573  10.999  19.643  0.00  0.00    +0.000 HD
BRANCH  13  15
ATOM     15  C   UNL     1       0.546  12.428  20.825  0.00  0.00    +0.000 C 
ATOM     16  C   UNL     1      -0.879  12.628  20.292  0.00  0.00    +0.000 C 
ATOM     17  C   UNL     1      -0.875  12.749  18.766  0.00  0.00    +0.000 C 
ATOM     18  C   UNL     1      -0.111  13.992  18.329  0.00  0.00    +0.000 C 
ATOM     19  C   UNL     1       1.205  14.161  19.049  0.00  0.00    +0.000 A 
ATOM     20  C   UNL     1       2.118  15.100  18.544  0.00  0.00    +0.000 A 
ATOM     21  C   UNL     1       3.319  15.350  19.203  0.00  0.00    +0.000 A 
ATOM     22  C   UNL     1       3.618  14.667  20.379  0.00  0.00    +0.000 A 
ATOM     23  C   UNL     1       2.721  13.727  20.892  0.00  0.00    +0.000 A 
ATOM     24  C   UNL     1       1.501  13.464  20.241  0.00  0.00    +0.000 A 
ENDBRANCH  13  15
ENDBRANCH   6  11
BRANCH   1  25
ATOM     25  S   UNL     1       3.626   3.700  17.555  0.00  0.00    +0.000 S 
ATOM     26  O   UNL     1       2.659   3.434  16.535  0.00  0.00    +0.000 OA
ATOM     27  O   UNL     1       4.228   2.617  18.332  0.00  0.00    +0.000 OA
BRANCH  25  28
ATOM     28  N   UNL     1       4.942   4.594  16.859  0.00  0.00    +0.000 NA
BRANCH  28  30
ATOM     29  C   UNL     1       6.489   5.730  18.556  0.00  0.00    +0.000 C 
ATOM     30  C   UNL     1       6.158   4.502  17.732  0.00  0.00    +0.000 C 
ENDBRANCH  28  30
BRANCH  28  31
ATOM     31  C   UNL     1       5.180   4.209  15.413  0.00  0.00    +0.000 C 
ATOM     32  C   UNL     1       6.632   4.338  14.982  0.00  0.00    +0.000 C 
ENDBRANCH  28  31
ENDBRANCH  25  28
ENDBRANCH   1  25
TORSDOF 6
ENDMDL
MODEL 7
REMARK VINA RESULT:      -7.5      3.630     10.218
REMARK  Name = 
REMARK  9 active torsions:
REMARK  status: ('A' for Active; 'I' for Inactive)
REMARK    1  A    between atoms: C_1  and  C_2
REMARK    2  A    between atoms: C_2  and  N_3
REMARK    3  A    between atoms: N_3  and  C_4
REMARK    4  A    between atoms: N_3  and  S_6
REMARK    5  A    between atoms: C_4  and  C_5
REMARK    6  A    between atoms: S_6  and  C_9
REMARK    7  A    between atoms: C_14  and  C_15
REMARK    8  A    between atoms: N_17  and  C_18
REMARK    9  A    between atoms: C_28  and  C_29
REMARK                            x       y       z     vdW  Elec       q    Type
REMARK                         _______ _______ _______ _____ _____    ______ ____
ROOT
ATOM      1  C   UNL     1       0.190  10.817  20.596  0.00  0.00    +0.000 A 
ATOM      2  C   UNL     1      -0.141  10.130  21.770  0.00  0.00    +0.000 A 
ATOM      3  C   UNL     1       0.275   8.801  21.967  0.00  0.00    +0.000 A 
ATOM      4  C   UNL     1       1.014   8.216  20.938  0.00  0.00    +0.000 A 
ATOM      5  O   UNL     1       1.519   6.953  20.925  0.00  0.00    +0.000 OA
ATOM      6  C   UNL     1       2.190   6.769  19.730  0.00  0.00    +0.000 A 
ATOM      7  C   UNL     1       2.092   7.943  18.977  0.00  0.00    +0.000 A 
ATOM      8  C   UNL     1       2.630   8.320  17.644  0.00  0.00    +0.000 C 
ATOM      9  C   UNL     1       1.338   8.866  19.763  0.00  0.00    +0.000 A 
ATOM     10  C   UNL     1       0.918  10.197  19.575  0.00  0.00    +0.000 A 
ENDROOT
BRANCH   6  11
ATOM     11  C   UNL     1       2.846   5.473  19.519  0.00  0.00    +0.000 C 
ATOM     12  O   UNL     1       2.357   4.393  19.826  0.00  0.00    +0.000 OA
ATOM     13  N   UNL     1       4.083   5.570  18.905  0.00  0.00    +0.000 N 
ATOM     14  H   UNL     1       4.437   6.498  18.722  0.00  0.00    +0.000 HD
BRANCH  13  15
ATOM     15  C   UNL     1       4.980   4.452  18.622  0.00  0.00    +0.000 C 
ATOM     16  C   UNL     1       6.136   4.455  19.631  0.00  0.00    +0.000 C 
ATOM     17  C   UNL     1       7.091   5.619  19.357  0.00  0.00    +0.000 C 
ATOM     18  C   UNL     1       7.754   5.459  17.996  0.00  0.00    +0.000 C 
ATOM     19  C   UNL     1       6.783   5.078  16.905  0.00  0.00    +0.000 A 
ATOM     20  C   UNL     1       7.215   5.173  15.573  0.00  0.00    +0.000 A 
ATOM     21  C   UNL     1       6.389   4.771  14.527  0.00  0.00    +0.000 A 
ATOM     22  C   UNL     1       5.121   4.265  14.802  0.00  0.00    +0.000 A 
ATOM     23  C   UNL     1       4.675   4.168  16.122  0.00  0.00    +0.000 A 
ATOM     24  C   UNL     1       5.498   4.566  17.192  0.00  0.00    +0.000 A 
ENDBRANCH  13  15
ENDBRANCH   6  11
BRANCH   1  25
ATOM     25  S   UNL     1      -0.364  12.494  20.339  0.00  0.00    +0.000 S 
ATOM     26  O   UNL     1      -1.192  12.852  21.449  0.00  0.00    +0.000 OA
ATOM     27  O   UNL     1      -0.864  12.557  18.966  0.00  0.00    +0.000 OA
BRANCH  25  28
ATOM     28  N   UNL     1       1.077  13.464  20.382  0.00  0.00    +0.000 NA
BRANCH  28  30
ATOM     29  C   UNL     1       2.593  13.398  18.318  0.00  0.00    +0.000 C 
ATOM     30  C   UNL     1       1.389  13.998  19.016  0.00  0.00    +0.000 C 
ENDBRANCH  28  30
BRANCH  28  31
ATOM     31  C   UNL     1       1.012  14.519  21.466  0.00  0.00    +0.000 C 
ATOM     32  C   UNL     1       2.366  15.116  21.814  0.00  0.00    +0.000 C 
ENDBRANCH  28  31
ENDBRANCH  25  28
ENDBRANCH   1  25
TORSDOF 6
ENDMDL
MODEL 8
REMARK VINA RESULT:      -7.5      1.487      1.884
REMARK  Name = 
REMARK  9 active torsions:
REMARK  status: ('A' for Active; 'I' for Inactive)
REMARK    1  A    between atoms: C_1  and  C_2
REMARK    2  A    between atoms: C_2  and  N_3
REMARK    3  A    between atoms: N_3  and  C_4
REMARK    4  A    between atoms: N_3  and  S_6
REMARK    5  A    between atoms: C_4  and  C_5
REMARK    6  A    between atoms: S_6  and  C_9
REMARK    7  A    between atoms: C_14  and  C_15
REMARK    8  A    between atoms: N_17  and  C_18
REMARK    9  A    between atoms: C_28  and  C_29
REMARK                            x       y       z     vdW  Elec       q    Type
REMARK                         _______ _______ _______ _____ _____    ______ ____
ROOT
ATOM      1  C   UNL     1       2.268   7.297  19.070  0.00  0.00    +0.000 A 
ATOM      2  C   UNL     1       2.256   8.115  17.933  0.00  0.00    +0.000 A 
ATOM      3  C   UNL     1       1.746   9.423  17.994  0.00  0.00    +0.000 A 
ATOM      4  C   UNL     1       1.252   9.848  19.228  0.00  0.00    +0.000 A 
ATOM      5  O   UNL     1       0.725  11.070  19.509  0.00  0.00    +0.000 OA
ATOM      6  C   UNL     1       0.363  11.086  20.844  0.00  0.00    +0.000 A 
ATOM      7  C   UNL     1       0.664   9.841  21.405  0.00  0.00    +0.000 A 
ATOM      8  C   UNL     1       0.513   9.305  22.783  0.00  0.00    +0.000 C 
ATOM      9  C   UNL     1       1.237   9.055  20.360  0.00  0.00    +0.000 A 
ATOM     10  C   UNL     1       1.751   7.746  20.290  0.00  0.00    +0.000 A 
ENDROOT
BRANCH   6  11
ATOM     11  C   UNL     1      -0.203  12.333  21.373  0.00  0.00    +0.000 C 
ATOM     12  O   UNL     1       0.454  13.217  21.909  0.00  0.00    +0.000 OA
ATOM     13  N   UNL     1      -1.571  12.444  21.189  0.00  0.00    +0.000 N 
ATOM     14  H   UNL     1      -2.048  11.653  20.779  0.00  0.00    +0.000 HD
BRANCH  13  15
ATOM     15  C   UNL     1      -2.404  13.547  21.662  0.00  0.00    +0.000 C 
ATOM     16  C   UNL     1      -2.238  13.700  23.179  0.00  0.00    +0.000 C 
ATOM     17  C   UNL     1      -2.914  12.541  23.917  0.00  0.00    +0.000 C 
ATOM     18  C   UNL     1      -4.418  12.558  23.679  0.00  0.00    +0.000 C 
ATOM     19  C   UNL     1      -4.785  12.776  22.232  0.00  0.00    +0.000 A 
ATOM     20  C   UNL     1      -6.113  12.537  21.844  0.00  0.00    +0.000 A 
ATOM     21  C   UNL     1      -6.529  12.786  20.539  0.00  0.00    +0.000 A 
ATOM     22  C   UNL     1      -5.622  13.282  19.606  0.00  0.00    +0.000 A 
ATOM     23  C   UNL     1      -4.296  13.521  19.976  0.00  0.00    +0.000 A 
ATOM     24  C   UNL     1      -3.859  13.280  21.292  0.00  0.00    +0.000 A 
ENDBRANCH  13  15
ENDBRANCH   6  11
BRANCH   1  25
ATOM     25  S   UNL     1       2.891   5.628  18.980  0.00  0.00    +0.000 S 
ATOM     26  O   UNL     1       2.083   4.912  18.041  0.00  0.00    +0.000 OA
ATOM     27  O   UNL     1       3.038   5.168  20.361  0.00  0.00    +0.000 OA
BRANCH  25  28
ATOM     28  N   UNL     1       4.499   5.772  18.338  0.00  0.00    +0.000 NA
BRANCH  28  30
ATOM     29  C   UNL     1       6.891   5.576  19.234  0.00  0.00    +0.000 C 
ATOM     30  C   UNL     1       5.476   5.033  19.203  0.00  0.00    +0.000 C 
ENDBRANCH  28  30
BRANCH  28  31
ATOM     31  C   UNL     1       4.554   5.397  16.872  0.00  0.00    +0.000 C 
ATOM     32  C   UNL     1       5.159   6.478  15.991  0.00  0.00    +0.000 C 
ENDBRANCH  28  31
ENDBRANCH  25  28
ENDBRANCH   1  25
TORSDOF 6
ENDMDL
MODEL 9
REMARK VINA RESULT:      -7.5      2.999     10.349
REMARK  Name = 
REMARK  9 active torsions:
REMARK  status: ('A' for Active; 'I' for Inactive)
REMARK    1  A    between atoms: C_1  and  C_2
REMARK    2  A    between atoms: C_2  and  N_3
REMARK    3  A    between atoms: N_3  and  C_4
REMARK    4  A    between atoms: N_3  and  S_6
REMARK    5  A    between atoms: C_4  and  C_5
REMARK    6  A    between atoms: S_6  and  C_9
REMARK    7  A    between atoms: C_14  and  C_15
REMARK    8  A    between atoms: N_17  and  C_18
REMARK    9  A    between atoms: C_28  and  C_29
REMARK                            x       y       z     vdW  Elec       q    Type
REMARK                         _______ _______ _______ _____ _____    ______ ____
ROOT
ATOM      1  C   UNL     1       0.102  10.945  20.150  0.00  0.00    +0.000 A 
ATOM      2  C   UNL     1      -0.237  10.368  21.379  0.00  0.00    +0.000 A 
ATOM      3  C   UNL     1       0.216   9.081  21.719  0.00  0.00    +0.000 A 
ATOM      4  C   UNL     1       1.001   8.422  20.772  0.00  0.00    +0.000 A 
ATOM      5  O   UNL     1       1.548   7.183  20.898  0.00  0.00    +0.000 OA
ATOM      6  C   UNL     1       2.257   6.904  19.744  0.00  0.00    +0.000 A 
ATOM      7  C   UNL     1       2.141   7.993  18.874  0.00  0.00    +0.000 A 
ATOM      8  C   UNL     1       2.702   8.254  17.523  0.00  0.00    +0.000 C 
ATOM      9  C   UNL     1       1.336   8.963  19.544  0.00  0.00    +0.000 A 
ATOM     10  C   UNL     1       0.878  10.252  19.213  0.00  0.00    +0.000 A 
ENDROOT
BRANCH   6  11
ATOM     11  C   UNL     1       2.961   5.618  19.679  0.00  0.00    +0.000 C 
ATOM     12  O   UNL     1       2.685   4.645  20.371  0.00  0.00    +0.000 OA
ATOM     13  N   UNL     1       3.970   5.583  18.733  0.00  0.00    +0.000 N 
ATOM     14  H   UNL     1       4.165   6.439  18.233  0.00  0.00    +0.000 HD
BRANCH  13  15
ATOM     15  C   UNL     1       4.867   4.455  18.490  0.00  0.00    +0.000 C 
ATOM     16  C   UNL     1       5.961   4.431  19.565  0.00  0.00    +0.000 C 
ATOM     17  C   UNL     1       6.946   5.585  19.362  0.00  0.00    +0.000 C 
ATOM     18  C   UNL     1       7.686   5.431  18.040  0.00  0.00    +0.000 C 
ATOM     19  C   UNL     1       6.776   5.076  16.889  0.00  0.00    +0.000 A 
ATOM     20  C   UNL     1       7.287   5.179  15.586  0.00  0.00    +0.000 A 
ATOM     21  C   UNL     1       6.519   4.801  14.489  0.00  0.00    +0.000 A 
ATOM     22  C   UNL     1       5.231   4.309  14.682  0.00  0.00    +0.000 A 
ATOM     23  C   UNL     1       4.706   4.204  15.973  0.00  0.00    +0.000 A 
ATOM     24  C   UNL     1       5.470   4.578  17.094  0.00  0.00    +0.000 A 
ENDBRANCH  13  15
ENDBRANCH   6  11
BRANCH   1  25
ATOM     25  S   UNL     1      -0.499  12.567  19.712  0.00  0.00    +0.000 S 
ATOM     26  O   UNL     1      -1.929  12.523  19.743  0.00  0.00    +0.000 OA
ATOM     27  O   UNL     1       0.223  12.962  18.503  0.00  0.00    +0.000 OA
BRANCH  25  28
ATOM     28  N   UNL     1       0.054  13.619  20.979  0.00  0.00    +0.000 NA
BRANCH  28  30
ATOM     29  C   UNL     1       0.401  16.073  20.331  0.00  0.00    +0.000 C 
ATOM     30  C   UNL     1       0.969  14.670  20.424  0.00  0.00    +0.000 C 
ENDBRANCH  28  30
BRANCH  28  31
ATOM     31  C   UNL     1      -1.096  14.161  21.802  0.00  0.00    +0.000 C 
ATOM     32  C   UNL     1      -1.227  13.505  23.167  0.00  0.00    +0.000 C 
ENDBRANCH  28  31
ENDBRANCH  25  28
ENDBRANCH   1  25
TORSDOF 6
ENDMDL
