MODEL 1
REMARK VINA RESULT:      -8.5      0.000      0.000
REMARK  Name = 
REMARK  7 active torsions:
REMARK  status: ('A' for Active; 'I' for Inactive)
REMARK    1  A    between atoms: C_1  and  O_2
REMARK    2  A    between atoms: O_2  and  C_3
REMARK    3  A    between atoms: C_7  and  C_8
REMARK    4  A    between atoms: C_8  and  C_9
REMARK    5  A    between atoms: C_9  and  C_10
REMARK    6  A    between atoms: C_15  and  C_17
REMARK    7  A    between atoms: N_22  and  C_23
REMARK                            x       y       z     vdW  Elec       q    Type
REMARK                         _______ _______ _______ _____ _____    ______ ____
ROOT
ATOM      1  C   UNL     1       3.910   2.936  17.725  0.00  0.00    +0.000 C 
ATOM      2  C   UNL     1       2.462   2.516  17.377  0.00  0.00    +0.000 C 
ATOM      3  C   UNL     1       1.449   3.627  17.697  0.00  0.00    +0.000 C 
ATOM      4  C   UNL     1       1.616   4.120  19.138  0.00  0.00    +0.000 C 
ATOM      5  N   UNL     1       3.018   4.464  19.424  0.00  0.00    +0.000 N 
ATOM      6  C   UNL     1       3.549   5.750  19.544  0.00  0.00    +0.000 C 
ATOM      7  O   UNL     1       4.735   5.983  19.771  0.00  0.00    +0.000 OA
ATOM      8  C   UNL     1       3.942   3.364  19.204  0.00  0.00    +0.000 C 
ENDROOT
BRANCH   6   9
ATOM      9  C   UNL     1       2.632   6.954  19.385  0.00  0.00    +0.000 A 
ATOM     10  C   UNL     1       2.538   7.533  18.033  0.00  0.00    +0.000 A 
ATOM     11  C   UNL     1       1.861   8.678  17.924  0.00  0.00    +0.000 A 
ATOM     12  C   UNL     1       1.255   9.316  19.115  0.00  0.00    +0.000 A 
ATOM     13  O   UNL     1       0.776  10.442  19.006  0.00  0.00    +0.000 OA
ATOM     14  N   UNL     1       1.272   8.558  20.279  0.00  0.00    +0.000 N 
ATOM     15  C   UNL     1       0.717   9.080  21.513  0.00  0.00    +0.000 C 
ATOM     16  N   UNL     1       1.974   7.385  20.415  0.00  0.00    +0.000 NA
ENDBRANCH   6   9
BRANCH   1  17
ATOM     17  C   UNL     1       4.372   4.045  16.755  0.00  0.00    +0.000 C 
BRANCH  17  18
ATOM     18  C   UNL     1       5.830   3.949  16.297  0.00  0.00    +0.000 C 
BRANCH  18  23
ATOM     19  C   UNL     1       7.322   7.237  17.514  0.00  0.00    +0.000 A 
ATOM     20  C   UNL     1       8.037   6.814  18.636  0.00  0.00    +0.000 A 
ATOM     21  C   UNL     1       8.089   5.460  18.969  0.00  0.00    +0.000 A 
ATOM     22  C   UNL     1       7.411   4.525  18.187  0.00  0.00    +0.000 A 
ATOM     23  C   UNL     1       6.663   4.940  17.076  0.00  0.00    +0.000 A 
ATOM     24  C   UNL     1       6.620   6.302  16.750  0.00  0.00    +0.000 A 
BRANCH  19  26
ATOM     25  C   UNL     1       8.325   9.311  18.009  0.00  0.00    +0.000 C 
ATOM     26  O   UNL     1       7.344   8.583  17.277  0.00  0.00    +0.000 OA
ENDBRANCH  19  26
ENDBRANCH  18  23
ENDBRANCH  17  18
ENDBRANCH   1  17
TORSDOF 5
ENDMDL
MODEL 2
REMARK VINA RESULT:      -7.9      2.455      3.531
REMARK  Name = 
REMARK  7 active torsions:
REMARK  status: ('A' for Active; 'I' for Inactive)
REMARK    1  A    between atoms: C_1  and  O_2
REMARK    2  A    between atoms: O_2  and  C_3
REMARK    3  A    between atoms: C_7  and  C_8
REMARK    4  A    between atoms: C_8  and  C_9
REMARK    5  A    between atoms: C_9  and  C_10
REMARK    6  A    between atoms: C_15  and  C_17
REMARK    7  A    between atoms: N_22  and  C_23
REMARK                            x       y       z     vdW  Elec       q    Type
REMARK                         _______ _______ _______ _____ _____    ______ ____
ROOT
ATOM      1  C   UNL     1       4.033   2.863  17.571  0.00  0.00    +0.000 C 
ATOM      2  C   UNL     1       2.571   2.393  17.385  0.00  0.00    +0.000 C 
ATOM      3  C   UNL     1       1.562   3.483  17.783  0.00  0.00    +0.000 C 
ATOM      4  C   UNL     1       1.862   4.019  19.186  0.00  0.00    +0.000 C 
ATOM      5  N   UNL     1       3.274   4.410  19.317  0.00  0.00    +0.000 N 
ATOM      6  C   UNL     1       3.774   5.714  19.350  0.00  0.00    +0.000 C 
ATOM      7  O   UNL     1       4.969   5.987  19.448  0.00  0.00    +0.000 OA
ATOM      8  C   UNL     1       4.204   3.331  19.028  0.00  0.00    +0.000 C 
ENDROOT
BRANCH   6   9
ATOM      9  C   UNL     1       2.809   6.887  19.260  0.00  0.00    +0.000 A 
ATOM     10  C   UNL     1       2.670   7.521  17.936  0.00  0.00    +0.000 A 
ATOM     11  C   UNL     1       1.948   8.641  17.889  0.00  0.00    +0.000 A 
ATOM     12  C   UNL     1       1.337   9.202  19.116  0.00  0.00    +0.000 A 
ATOM     13  O   UNL     1       0.813  10.312  19.065  0.00  0.00    +0.000 OA
ATOM     14  N   UNL     1       1.401   8.393  20.244  0.00  0.00    +0.000 N 
ATOM     15  C   UNL     1       0.847   8.837  21.509  0.00  0.00    +0.000 C 
ATOM     16  N   UNL     1       2.150   7.244  20.317  0.00  0.00    +0.000 NA
ENDBRANCH   6   9
BRANCH   1  17
ATOM     17  C   UNL     1       4.358   3.959  16.533  0.00  0.00    +0.000 C 
BRANCH  17  18
ATOM     18  C   UNL     1       5.832   4.363  16.446  0.00  0.00    +0.000 C 
BRANCH  18  23
ATOM     19  C   UNL     1       5.949   3.469  12.744  0.00  0.00    +0.000 A 
ATOM     20  C   UNL     1       6.981   4.295  12.296  0.00  0.00    +0.000 A 
ATOM     21  C   UNL     1       7.682   5.099  13.195  0.00  0.00    +0.000 A 
ATOM     22  C   UNL     1       7.340   5.090  14.548  0.00  0.00    +0.000 A 
ATOM     23  C   UNL     1       6.285   4.288  15.006  0.00  0.00    +0.000 A 
ATOM     24  C   UNL     1       5.591   3.483  14.094  0.00  0.00    +0.000 A 
BRANCH  19  26
ATOM     25  C   UNL     1       4.105   3.245  11.294  0.00  0.00    +0.000 C 
ATOM     26  O   UNL     1       5.336   2.719  11.779  0.00  0.00    +0.000 OA
ENDBRANCH  19  26
ENDBRANCH  18  23
ENDBRANCH  17  18
ENDBRANCH   1  17
TORSDOF 5
ENDMDL
MODEL 3
REMARK VINA RESULT:      -7.7      2.528      6.138
REMARK  Name = 
REMARK  7 active torsions:
REMARK  status: ('A' for Active; 'I' for Inactive)
REMARK    1  A    between atoms: C_1  and  O_2
REMARK    2  A    between atoms: O_2  and  C_3
REMARK    3  A    between atoms: C_7  and  C_8
REMARK    4  A    between atoms: C_8  and  C_9
REMARK    5  A    between atoms: C_9  and  C_10
REMARK    6  A    between atoms: C_15  and  C_17
REMARK    7  A    between atoms: N_22  and  C_23
REMARK                            x       y       z     vdW  Elec       q    Type
REMARK                         _______ _______ _______ _____ _____    ______ ____
ROOT
ATOM      1  C   UNL     1       1.233   2.837  20.214  0.00  0.00    +0.000 C 
ATOM      2  C   UNL     1       2.249   2.647  21.364  0.00  0.00    +0.000 C 
ATOM      3  C   UNL     1       3.682   2.988  20.928  0.00  0.00    +0.000 C 
ATOM      4  C   UNL     1       4.057   2.235  19.647  0.00  0.00    +0.000 C 
ATOM      5  N   UNL     1       3.036   2.419  18.604  0.00  0.00    +0.000 N 
ATOM      6  C   UNL     1       3.147   3.220  17.466  0.00  0.00    +0.000 C 
ATOM      7  O   UNL     1       2.255   3.348  16.629  0.00  0.00    +0.000 OA
ATOM      8  C   UNL     1       1.706   1.997  19.013  0.00  0.00    +0.000 C 
ENDROOT
BRANCH   6   9
ATOM      9  C   UNL     1       4.433   3.996  17.221  0.00  0.00    +0.000 A 
ATOM     10  C   UNL     1       4.817   4.973  18.256  0.00  0.00    +0.000 A 
ATOM     11  C   UNL     1       5.854   5.761  17.970  0.00  0.00    +0.000 A 
ATOM     12  C   UNL     1       6.559   5.647  16.673  0.00  0.00    +0.000 A 
ATOM     13  O   UNL     1       7.405   6.489  16.381  0.00  0.00    +0.000 OA
ATOM     14  N   UNL     1       6.199   4.561  15.886  0.00  0.00    +0.000 N 
ATOM     15  C   UNL     1       6.812   4.348  14.588  0.00  0.00    +0.000 C 
ATOM     16  N   UNL     1       5.126   3.746  16.155  0.00  0.00    +0.000 NA
ENDBRANCH   6   9
BRANCH   1  17
ATOM     17  C   UNL     1       1.093   4.341  19.892  0.00  0.00    +0.000 C 
BRANCH  17  18
ATOM     18  C   UNL     1       1.858   5.284  20.824  0.00  0.00    +0.000 C 
BRANCH  18  23
ATOM     19  C   UNL     1       0.890   8.969  20.871  0.00  0.00    +0.000 A 
ATOM     20  C   UNL     1       1.407   9.403  19.649  0.00  0.00    +0.000 A 
ATOM     21  C   UNL     1       2.016   8.498  18.780  0.00  0.00    +0.000 A 
ATOM     22  C   UNL     1       2.124   7.155  19.140  0.00  0.00    +0.000 A 
ATOM     23  C   UNL     1       1.637   6.711  20.378  0.00  0.00    +0.000 A 
ATOM     24  C   UNL     1       1.025   7.630  21.241  0.00  0.00    +0.000 A 
BRANCH  19  26
ATOM     25  C   UNL     1       0.088   9.582  23.001  0.00  0.00    +0.000 C 
ATOM     26  O   UNL     1       0.308   9.939  21.640  0.00  0.00    +0.000 OA
ENDBRANCH  19  26
ENDBRANCH  18  23
ENDBRANCH  17  18
ENDBRANCH   1  17
TORSDOF 5
ENDMDL
MODEL 4
REMARK VINA RESULT:      -7.7      2.522      5.869
REMARK  Name = 
REMARK  7 active torsions:
REMARK  status: ('A' for Active; 'I' for Inactive)
REMARK    1  A    between atoms: C_1  and  O_2
REMARK    2  A    between atoms: O_2  and  C_3
REMARK    3  A    between atoms: C_7  and  C_8
REMARK    4  A    between atoms: C_8  and  C_9
REMARK    5  A    between atoms: C_9  and  C_10
REMARK    6  A    between atoms: C_15  and  C_17
REMARK    7  A    between atoms: N_22  and  C_23
REMARK                            x       y       z     vdW  Elec       q    Type
REMARK                         _______ _______ _______ _____ _____    ______ ____
ROOT
ATOM      1  C   UNL     1       1.139   2.935  20.244  0.00  0.00    +0.000 C 
ATOM      2  C   UNL     1       2.176   2.660  21.358  0.00  0.00    +0.000 C 
ATOM      3  C   UNL     1       3.611   2.950  20.891  0.00  0.00    +0.000 C 
ATOM      4  C   UNL     1       3.915   2.224  19.576  0.00  0.00    +0.000 C 
ATOM      5  N   UNL     1       2.875   2.489  18.569  0.00  0.00    +0.000 N 
ATOM      6  C   UNL     1       2.992   3.322  17.455  0.00  0.00    +0.000 C 
ATOM      7  O   UNL     1       2.084   3.518  16.649  0.00  0.00    +0.000 OA
ATOM      8  C   UNL     1       1.539   2.114  19.003  0.00  0.00    +0.000 C 
ENDROOT
BRANCH   6   9
ATOM      9  C   UNL     1       4.305   4.046  17.197  0.00  0.00    +0.000 A 
ATOM     10  C   UNL     1       4.701   5.059  18.193  0.00  0.00    +0.000 A 
ATOM     11  C   UNL     1       5.767   5.801  17.889  0.00  0.00    +0.000 A 
ATOM     12  C   UNL     1       6.490   5.604  16.612  0.00  0.00    +0.000 A 
ATOM     13  O   UNL     1       7.367   6.405  16.296  0.00  0.00    +0.000 OA
ATOM     14  N   UNL     1       6.110   4.493  15.870  0.00  0.00    +0.000 N 
ATOM     15  C   UNL     1       6.738   4.200  14.596  0.00  0.00    +0.000 C 
ATOM     16  N   UNL     1       5.008   3.725  16.157  0.00  0.00    +0.000 NA
ENDBRANCH   6   9
BRANCH   1  17
ATOM     17  C   UNL     1       1.060   4.453  19.975  0.00  0.00    +0.000 C 
BRANCH  17  18
ATOM     18  C   UNL     1       1.954   5.323  20.862  0.00  0.00    +0.000 C 
BRANCH  18  23
ATOM     19  C   UNL     1       1.821   8.669  19.044  0.00  0.00    +0.000 A 
ATOM     20  C   UNL     1       1.015   9.416  19.905  0.00  0.00    +0.000 A 
ATOM     21  C   UNL     1       0.561   8.863  21.102  0.00  0.00    +0.000 A 
ATOM     22  C   UNL     1       0.900   7.552  21.435  0.00  0.00    +0.000 A 
ATOM     23  C   UNL     1       1.683   6.780  20.565  0.00  0.00    +0.000 A 
ATOM     24  C   UNL     1       2.135   7.347  19.366  0.00  0.00    +0.000 A 
BRANCH  19  26
ATOM     25  C   UNL     1       2.115  10.732  17.942  0.00  0.00    +0.000 C 
ATOM     26  O   UNL     1       2.214   9.312  17.903  0.00  0.00    +0.000 OA
ENDBRANCH  19  26
ENDBRANCH  18  23
ENDBRANCH  17  18
ENDBRANCH   1  17
TORSDOF 5
ENDMDL
MODEL 5
REMARK VINA RESULT:      -7.4      1.076      1.782
REMARK  Name = 
REMARK  7 active torsions:
REMARK  status: ('A' for Active; 'I' for Inactive)
REMARK    1  A    between atoms: C_1  and  O_2
REMARK    2  A    between atoms: O_2  and  C_3
REMARK    3  A    between atoms: C_7  and  C_8
REMARK    4  A    between atoms: C_8  and  C_9
REMARK    5  A    between atoms: C_9  and  C_10
REMARK    6  A    between atoms: C_15  and  C_17
REMARK    7  A    between atoms: N_22  and  C_23
REMARK                            x       y       z     vdW  Elec       q    Type
REMARK                         _______ _______ _______ _____ _____    ______ ____
ROOT
ATOM      1  C   UNL     1       2.782   2.240  19.079  0.00  0.00    +0.000 C 
ATOM      2  C   UNL     1       1.248   2.044  19.100  0.00  0.00    +0.000 C 
ATOM      3  C   UNL     1       0.499   3.382  19.204  0.00  0.00    +0.000 C 
ATOM      4  C   UNL     1       1.027   4.214  20.377  0.00  0.00    +0.000 C 
ATOM      5  N   UNL     1       2.494   4.331  20.329  0.00  0.00    +0.000 N 
ATOM      6  C   UNL     1       3.224   5.463  19.961  0.00  0.00    +0.000 C 
ATOM      7  O   UNL     1       4.452   5.503  19.925  0.00  0.00    +0.000 OA
ATOM      8  C   UNL     1       3.178   3.049  20.329  0.00  0.00    +0.000 C 
ENDROOT
BRANCH   6   9
ATOM      9  C   UNL     1       2.485   6.735  19.573  0.00  0.00    +0.000 A 
ATOM     10  C   UNL     1       2.530   7.111  18.148  0.00  0.00    +0.000 A 
ATOM     11  C   UNL     1       2.019   8.302  17.833  0.00  0.00    +0.000 A 
ATOM     12  C   UNL     1       1.450   9.184  18.878  0.00  0.00    +0.000 A 
ATOM     13  O   UNL     1       1.132  10.332  18.578  0.00  0.00    +0.000 OA
ATOM     14  N   UNL     1       1.312   8.613  20.137  0.00  0.00    +0.000 N 
ATOM     15  C   UNL     1       0.777   9.380  21.246  0.00  0.00    +0.000 C 
ATOM     16  N   UNL     1       1.844   7.395  20.485  0.00  0.00    +0.000 NA
ENDBRANCH   6   9
BRANCH   1  17
ATOM     17  C   UNL     1       3.198   2.915  17.755  0.00  0.00    +0.000 C 
BRANCH  17  18
ATOM     18  C   UNL     1       4.679   2.785  17.390  0.00  0.00    +0.000 C 
BRANCH  18  23
ATOM     19  C   UNL     1       6.844   5.920  17.356  0.00  0.00    +0.000 A 
ATOM     20  C   UNL     1       6.371   6.567  16.213  0.00  0.00    +0.000 A 
ATOM     21  C   UNL     1       5.313   6.024  15.483  0.00  0.00    +0.000 A 
ATOM     22  C   UNL     1       4.735   4.821  15.888  0.00  0.00    +0.000 A 
ATOM     23  C   UNL     1       5.221   4.146  17.016  0.00  0.00    +0.000 A 
ATOM     24  C   UNL     1       6.282   4.702  17.742  0.00  0.00    +0.000 A 
BRANCH  19  26
ATOM     25  C   UNL     1       7.921   7.959  17.844  0.00  0.00    +0.000 C 
ATOM     26  O   UNL     1       7.878   6.544  17.998  0.00  0.00    +0.000 OA
ENDBRANCH  19  26
ENDBRANCH  18  23
ENDBRANCH  17  18
ENDBRANCH   1  17
TORSDOF 5
ENDMDL
MODEL 6
REMARK VINA RESULT:      -7.4      2.142      2.949
REMARK  Name = 
REMARK  7 active torsions:
REMARK  status: ('A' for Active; 'I' for Inactive)
REMARK    1  A    between atoms: C_1  and  O_2
REMARK    2  A    between atoms: O_2  and  C_3
REMARK    3  A    between atoms: C_7  and  C_8
REMARK    4  A    between atoms: C_8  and  C_9
REMARK    5  A    between atoms: C_9  and  C_10
REMARK    6  A    between atoms: C_15  and  C_17
REMARK    7  A    between atoms: N_22  and  C_23
REMARK                            x       y       z     vdW  Elec       q    Type
REMARK                         _______ _______ _______ _____ _____    ______ ____
ROOT
ATOM      1  C   UNL     1       2.831   2.224  19.041  0.00  0.00    +0.000 C 
ATOM      2  C   UNL     1       1.301   2.024  18.934  0.00  0.00    +0.000 C 
ATOM      3  C   UNL     1       0.540   3.357  19.001  0.00  0.00    +0.000 C 
ATOM      4  C   UNL     1       0.970   4.171  20.226  0.00  0.00    +0.000 C 
ATOM      5  N   UNL     1       2.434   4.293  20.297  0.00  0.00    +0.000 N 
ATOM      6  C   UNL     1       3.186   5.434  20.008  0.00  0.00    +0.000 C 
ATOM      7  O   UNL     1       4.414   5.479  20.072  0.00  0.00    +0.000 OA
ATOM      8  C   UNL     1       3.123   3.014  20.331  0.00  0.00    +0.000 C 
ENDROOT
BRANCH   6   9
ATOM      9  C   UNL     1       2.475   6.710  19.583  0.00  0.00    +0.000 A 
ATOM     10  C   UNL     1       2.510   7.032  18.145  0.00  0.00    +0.000 A 
ATOM     11  C   UNL     1       2.025   8.224  17.794  0.00  0.00    +0.000 A 
ATOM     12  C   UNL     1       1.495   9.158  18.813  0.00  0.00    +0.000 A 
ATOM     13  O   UNL     1       1.202  10.302  18.475  0.00  0.00    +0.000 OA
ATOM     14  N   UNL     1       1.359   8.637  20.094  0.00  0.00    +0.000 N 
ATOM     15  C   UNL     1       0.860   9.458  21.180  0.00  0.00    +0.000 C 
ATOM     16  N   UNL     1       1.864   7.419  20.479  0.00  0.00    +0.000 NA
ENDBRANCH   6   9
BRANCH   1  17
ATOM     17  C   UNL     1       3.350   2.923  17.765  0.00  0.00    +0.000 C 
BRANCH  17  18
ATOM     18  C   UNL     1       4.872   2.950  17.604  0.00  0.00    +0.000 C 
BRANCH  18  23
ATOM     19  C   UNL     1       6.096   4.388  14.295  0.00  0.00    +0.000 A 
ATOM     20  C   UNL     1       5.742   5.731  14.433  0.00  0.00    +0.000 A 
ATOM     21  C   UNL     1       5.162   6.189  15.616  0.00  0.00    +0.000 A 
ATOM     22  C   UNL     1       4.919   5.298  16.661  0.00  0.00    +0.000 A 
ATOM     23  C   UNL     1       5.241   3.940  16.524  0.00  0.00    +0.000 A 
ATOM     24  C   UNL     1       5.826   3.493  15.332  0.00  0.00    +0.000 A 
BRANCH  19  26
ATOM     25  C   UNL     1       5.841   3.274  12.234  0.00  0.00    +0.000 C 
ATOM     26  O   UNL     1       6.665   4.051  13.098  0.00  0.00    +0.000 OA
ENDBRANCH  19  26
ENDBRANCH  18  23
ENDBRANCH  17  18
ENDBRANCH   1  17
TORSDOF 5
ENDMDL
MODEL 7
REMARK VINA RESULT:      -7.3      0.772      1.342
REMARK  Name = 
REMARK  7 active torsions:
REMARK  status: ('A' for Active; 'I' for Inactive)
REMARK    1  A    between atoms: C_1  and  O_2
REMARK    2  A    between atoms: O_2  and  C_3
REMARK    3  A    between atoms: C_7  and  C_8
REMARK    4  A    between atoms: C_8  and  C_9
REMARK    5  A    between atoms: C_9  and  C_10
REMARK    6  A    between atoms: C_15  and  C_17
REMARK    7  A    between atoms: N_22  and  C_23
REMARK                            x       y       z     vdW  Elec       q    Type
REMARK                         _______ _______ _______ _____ _____    ______ ____
ROOT
ATOM      1  C   UNL     1       3.721   3.117  17.470  0.00  0.00    +0.000 C 
ATOM      2  C   UNL     1       2.252   2.844  17.071  0.00  0.00    +0.000 C 
ATOM      3  C   UNL     1       1.302   3.934  17.592  0.00  0.00    +0.000 C 
ATOM      4  C   UNL     1       1.499   4.157  19.095  0.00  0.00    +0.000 C 
ATOM      5  N   UNL     1       2.918   4.370  19.421  0.00  0.00    +0.000 N 
ATOM      6  C   UNL     1       3.519   5.585  19.758  0.00  0.00    +0.000 C 
ATOM      7  O   UNL     1       4.716   5.710  20.009  0.00  0.00    +0.000 OA
ATOM      8  C   UNL     1       3.780   3.277  19.001  0.00  0.00    +0.000 C 
ENDROOT
BRANCH   6   9
ATOM      9  C   UNL     1       2.670   6.846  19.823  0.00  0.00    +0.000 A 
ATOM     10  C   UNL     1       1.899   7.053  21.062  0.00  0.00    +0.000 A 
ATOM     11  C   UNL     1       1.037   8.072  21.059  0.00  0.00    +0.000 A 
ATOM     12  C   UNL     1       0.877   8.927  19.861  0.00  0.00    +0.000 A 
ATOM     13  O   UNL     1      -0.031   9.754  19.838  0.00  0.00    +0.000 OA
ATOM     14  N   UNL     1       1.804   8.721  18.846  0.00  0.00    +0.000 N 
ATOM     15  C   UNL     1       1.744   9.490  17.618  0.00  0.00    +0.000 C 
ATOM     16  N   UNL     1       2.689   7.670  18.823  0.00  0.00    +0.000 NA
ENDBRANCH   6   9
BRANCH   1  17
ATOM     17  C   UNL     1       4.242   4.352  16.705  0.00  0.00    +0.000 C 
BRANCH  17  18
ATOM     18  C   UNL     1       5.673   4.238  16.173  0.00  0.00    +0.000 C 
BRANCH  18  23
ATOM     19  C   UNL     1       7.429   7.360  17.475  0.00  0.00    +0.000 A 
ATOM     20  C   UNL     1       8.086   6.856  18.598  0.00  0.00    +0.000 A 
ATOM     21  C   UNL     1       8.014   5.497  18.906  0.00  0.00    +0.000 A 
ATOM     22  C   UNL     1       7.268   4.640  18.097  0.00  0.00    +0.000 A 
ATOM     23  C   UNL     1       6.578   5.138  16.983  0.00  0.00    +0.000 A 
ATOM     24  C   UNL     1       6.660   6.504  16.683  0.00  0.00    +0.000 A 
BRANCH  19  26
ATOM     25  C   UNL     1       8.412   9.377  18.197  0.00  0.00    +0.000 C 
ATOM     26  O   UNL     1       7.573   8.703  17.263  0.00  0.00    +0.000 OA
ENDBRANCH  19  26
ENDBRANCH  18  23
ENDBRANCH  17  18
ENDBRANCH   1  17
TORSDOF 5
ENDMDL
MODEL 8
REMARK VINA RESULT:      -7.2      2.358      5.809
REMARK  Name = 
REMARK  7 active torsions:
REMARK  status: ('A' for Active; 'I' for Inactive)
REMARK    1  A    between atoms: C_1  and  O_2
REMARK    2  A    between atoms: O_2  and  C_3
REMARK    3  A    between atoms: C_7  and  C_8
REMARK    4  A    between atoms: C_8  and  C_9
REMARK    5  A    between atoms: C_9  and  C_10
REMARK    6  A    between atoms: C_15  and  C_17
REMARK    7  A    between atoms: N_22  and  C_23
REMARK                            x       y       z     vdW  Elec       q    Type
REMARK                         _______ _______ _______ _____ _____    ______ ____
ROOT
ATOM      1  C   UNL     1       1.029   2.816  20.435  0.00  0.00    +0.000 C 
ATOM      2  C   UNL     1       2.060   2.665  21.578  0.00  0.00    +0.000 C 
ATOM      3  C   UNL     1       3.490   2.972  21.107  0.00  0.00    +0.000 C 
ATOM      4  C   UNL     1       3.838   2.162  19.854  0.00  0.00    +0.000 C 
ATOM      5  N   UNL     1       2.803   2.310  18.818  0.00  0.00    +0.000 N 
ATOM      6  C   UNL     1       2.905   3.062  17.646  0.00  0.00    +0.000 C 
ATOM      7  O   UNL     1       2.002   3.163  16.817  0.00  0.00    +0.000 OA
ATOM      8  C   UNL     1       1.476   1.920  19.264  0.00  0.00    +0.000 C 
ENDROOT
BRANCH   6   9
ATOM      9  C   UNL     1       4.194   3.813  17.349  0.00  0.00    +0.000 A 
ATOM     10  C   UNL     1       4.665   3.780  15.952  0.00  0.00    +0.000 A 
ATOM     11  C   UNL     1       5.871   4.303  15.722  0.00  0.00    +0.000 A 
ATOM     12  C   UNL     1       6.675   4.871  16.827  0.00  0.00    +0.000 A 
ATOM     13  O   UNL     1       7.838   5.201  16.607  0.00  0.00    +0.000 OA
ATOM     14  N   UNL     1       6.020   4.996  18.046  0.00  0.00    +0.000 N 
ATOM     15  C   UNL     1       6.706   5.530  19.207  0.00  0.00    +0.000 C 
ATOM     16  N   UNL     1       4.786   4.453  18.308  0.00  0.00    +0.000 NA
ENDBRANCH   6   9
BRANCH   1  17
ATOM     17  C   UNL     1       0.898   4.306  20.051  0.00  0.00    +0.000 C 
BRANCH  17  18
ATOM     18  C   UNL     1       1.929   5.240  20.690  0.00  0.00    +0.000 C 
BRANCH  18  23
ATOM     19  C   UNL     1       1.381   8.970  20.138  0.00  0.00    +0.000 A 
ATOM     20  C   UNL     1       1.918   9.138  18.860  0.00  0.00    +0.000 A 
ATOM     21  C   UNL     1       2.404   8.041  18.150  0.00  0.00    +0.000 A 
ATOM     22  C   UNL     1       2.368   6.771  18.723  0.00  0.00    +0.000 A 
ATOM     23  C   UNL     1       1.860   6.591  20.018  0.00  0.00    +0.000 A 
ATOM     24  C   UNL     1       1.373   7.701  20.721  0.00  0.00    +0.000 A 
BRANCH  19  26
ATOM     25  C   UNL     1      -0.463  10.371  20.575  0.00  0.00    +0.000 C 
ATOM     26  O   UNL     1       0.927  10.111  20.740  0.00  0.00    +0.000 OA
ENDBRANCH  19  26
ENDBRANCH  18  23
ENDBRANCH  17  18
ENDBRANCH   1  17
TORSDOF 5
ENDMDL
MODEL 9
REMARK VINA RESULT:      -7.2      2.465      6.221
REMARK  Name = 
REMARK  7 active torsions:
REMARK  status: ('A' for Active; 'I' for Inactive)
REMARK    1  A    between atoms: C_1  and  O_2
REMARK    2  A    between atoms: O_2  and  C_3
REMARK    3  A    between atoms: C_7  and  C_8
REMARK    4  A    between atoms: C_8  and  C_9
REMARK    5  A    between atoms: C_9  and  C_10
REMARK    6  A    between atoms: C_15  and  C_17
REMARK    7  A    between atoms: N_22  and  C_23
REMARK                            x       y       z     vdW  Elec       q    Type
REMARK                         _______ _______ _______ _____ _____    ______ ____
ROOT
ATOM      1  C   UNL     1       1.434   4.008  20.802  0.00  0.00    +0.000 C 
ATOM      2  C   UNL     1       2.280   2.956  21.557  0.00  0.00    +0.000 C 
ATOM      3  C   UNL     1       3.557   2.583  20.787  0.00  0.00    +0.000 C 
ATOM      4  C   UNL     1       3.227   2.186  19.344  0.00  0.00    +0.000 C 
ATOM      5  N   UNL     1       2.388   3.202  18.690  0.00  0.00    +0.000 N 
ATOM      6  C   UNL     1       2.800   4.120  17.722  0.00  0.00    +0.000 C 
ATOM      7  O   UNL     1       2.058   4.960  17.215  0.00  0.00    +0.000 OA
ATOM      8  C   UNL     1       1.141   3.463  19.391  0.00  0.00    +0.000 C 
ENDROOT
BRANCH   6   9
ATOM      9  C   UNL     1       4.245   4.109  17.248  0.00  0.00    +0.000 A 
ATOM     10  C   UNL     1       5.269   4.429  18.259  0.00  0.00    +0.000 A 
ATOM     11  C   UNL     1       6.518   4.572  17.813  0.00  0.00    +0.000 A 
ATOM     12  C   UNL     1       6.831   4.422  16.373  0.00  0.00    +0.000 A 
ATOM     13  O   UNL     1       7.956   4.713  15.976  0.00  0.00    +0.000 OA
ATOM     14  N   UNL     1       5.797   3.939  15.580  0.00  0.00    +0.000 N 
ATOM     15  C   UNL     1       5.979   3.758  14.152  0.00  0.00    +0.000 C 
ATOM     16  N   UNL     1       4.503   3.798  16.017  0.00  0.00    +0.000 NA
ENDBRANCH   6   9
BRANCH   1  17
ATOM     17  C   UNL     1       2.179   5.360  20.794  0.00  0.00    +0.000 C 
BRANCH  17  18
ATOM     18  C   UNL     1       1.317   6.586  21.110  0.00  0.00    +0.000 C 
BRANCH  18  23
ATOM     19  C   UNL     1       1.085   9.849  19.157  0.00  0.00    +0.000 A 
ATOM     20  C   UNL     1       1.987   9.611  18.119  0.00  0.00    +0.000 A 
ATOM     21  C   UNL     1       2.628   8.377  18.011  0.00  0.00    +0.000 A 
ATOM     22  C   UNL     1       2.380   7.380  18.955  0.00  0.00    +0.000 A 
ATOM     23  C   UNL     1       1.499   7.616  20.020  0.00  0.00    +0.000 A 
ATOM     24  C   UNL     1       0.859   8.859  20.115  0.00  0.00    +0.000 A 
BRANCH  19  26
ATOM     25  C   UNL     1      -0.894  11.106  18.912  0.00  0.00    +0.000 C 
ATOM     26  O   UNL     1       0.508  11.089  19.161  0.00  0.00    +0.000 OA
ENDBRANCH  19  26
ENDBRANCH  18  23
ENDBRANCH  17  18
ENDBRANCH   1  17
TORSDOF 5
ENDMDL
