MODEL 1
REMARK VINA RESULT:      -8.2      0.000      0.000
REMARK  Name = 
REMARK  3 active torsions:
REMARK  status: ('A' for Active; 'I' for Inactive)
REMARK    1  A    between atoms: C_2  and  C_20
REMARK    2  A    between atoms: N_3  and  C_4
REMARK    3  A    between atoms: N_13  and  C_14
REMARK                            x       y       z     vdW  Elec       q    Type
REMARK                         _______ _______ _______ _____ _____    ______ ____
ROOT
ATOM      1  C   UNL     1       1.434   8.010  20.109  0.00  0.00    +0.000 A 
ATOM      2  C   UNL     1       1.312   6.975  21.022  0.00  0.00    +0.000 A 
ATOM      3  C   UNL     1       2.021   5.800  20.872  0.00  0.00    +0.000 A 
ATOM      4  C   UNL     1       2.900   5.578  19.784  0.00  0.00    +0.000 A 
ATOM      5  C   UNL     1       2.973   6.629  18.812  0.00  0.00    +0.000 A 
ATOM      6  C   UNL     1       2.240   7.822  18.980  0.00  0.00    +0.000 A 
ATOM      7  C   UNL     1       3.862   6.528  17.597  0.00  0.00    +0.000 C 
ATOM      8  C   UNL     1       4.478   5.145  17.432  0.00  0.00    +0.000 C 
ATOM      9  C   UNL     1       4.934   4.621  18.780  0.00  0.00    +0.000 C 
ATOM     10  N   UNL     1       3.766   4.401  19.649  0.00  0.00    +0.000 N 
ENDROOT
BRANCH  10  11
ATOM     11  C   UNL     1       3.384   2.989  19.995  0.00  0.00    +0.000 C 
ATOM     12  C   UNL     1       3.802   1.891  18.995  0.00  0.00    +0.000 C 
ATOM     13  C   UNL     1       3.012   2.044  17.666  0.00  0.00    +0.000 C 
ATOM     14  N   UNL     1       1.572   1.902  17.893  0.00  0.00    +0.000 NA
ATOM     15  C   UNL     1       1.089   2.884  18.876  0.00  0.00    +0.000 C 
ATOM     16  C   UNL     1       1.853   2.747  20.201  0.00  0.00    +0.000 C 
ATOM     17  H   UNL     1       1.374   0.933  18.238  0.00  0.00    +0.000 HD
ENDBRANCH  10  11
BRANCH   1  20
ATOM     18  N   UNL     1       1.437   9.680  22.557  0.00  0.00    +0.000 NA
ATOM     19  C   UNL     1       0.602   9.888  21.594  0.00  0.00    +0.000 C 
ATOM     20  N   UNL     1       0.746   9.245  20.312  0.00  0.00    +0.000 N 
ATOM     21  H   UNL     1       2.251   9.053  22.495  0.00  0.00    +0.000 HD
ATOM     22  H   UNL     1       0.382   9.738  19.485  0.00  0.00    +0.000 HD
BRANCH  19  23
ATOM     23  C   UNL     1      -0.457  10.884  21.813  0.00  0.00    +0.000 A 
ATOM     24  C   UNL     1      -1.139  11.117  23.003  0.00  0.00    +0.000 A 
ATOM     25  C   UNL     1      -2.075  12.152  22.905  0.00  0.00    +0.000 A 
ATOM     26  C   UNL     1      -2.136  12.733  21.645  0.00  0.00    +0.000 A 
ATOM     27  S   UNL     1      -1.018  11.969  20.653  0.00  0.00    +0.000 S 
ENDBRANCH  19  23
ENDBRANCH   1  20
TORSDOF 3
ENDMDL
MODEL 2
REMARK VINA RESULT:      -8.1      1.776      2.182
REMARK  Name = 
REMARK  3 active torsions:
REMARK  status: ('A' for Active; 'I' for Inactive)
REMARK    1  A    between atoms: C_2  and  C_20
REMARK    2  A    between atoms: N_3  and  C_4
REMARK    3  A    between atoms: N_13  and  C_14
REMARK                            x       y       z     vdW  Elec       q    Type
REMARK                         _______ _______ _______ _____ _____    ______ ____
ROOT
ATOM      1  C   UNL     1       1.459   8.523  19.897  0.00  0.00    +0.000 A 
ATOM      2  C   UNL     1       1.274   7.573  20.888  0.00  0.00    +0.000 A 
ATOM      3  C   UNL     1       1.882   6.336  20.816  0.00  0.00    +0.000 A 
ATOM      4  C   UNL     1       2.715   5.961  19.734  0.00  0.00    +0.000 A 
ATOM      5  C   UNL     1       2.851   6.928  18.684  0.00  0.00    +0.000 A 
ATOM      6  C   UNL     1       2.221   8.186  18.773  0.00  0.00    +0.000 A 
ATOM      7  C   UNL     1       3.703   6.663  17.467  0.00  0.00    +0.000 C 
ATOM      8  C   UNL     1       4.200   5.226  17.397  0.00  0.00    +0.000 C 
ATOM      9  C   UNL     1       4.643   4.768  18.773  0.00  0.00    +0.000 C 
ATOM     10  N   UNL     1       3.480   4.711  19.675  0.00  0.00    +0.000 N 
ENDROOT
BRANCH  10  11
ATOM     11  C   UNL     1       2.993   3.364  20.134  0.00  0.00    +0.000 C 
ATOM     12  C   UNL     1       3.651   2.129  19.484  0.00  0.00    +0.000 C 
ATOM     13  C   UNL     1       3.261   2.037  17.984  0.00  0.00    +0.000 C 
ATOM     14  N   UNL     1       1.811   1.892  17.827  0.00  0.00    +0.000 NA
ATOM     15  C   UNL     1       1.093   3.008  18.462  0.00  0.00    +0.000 C 
ATOM     16  C   UNL     1       1.461   3.115  19.949  0.00  0.00    +0.000 C 
ATOM     17  H   UNL     1       1.509   0.988  18.261  0.00  0.00    +0.000 HD
ENDBRANCH  10  11
BRANCH   1  20
ATOM     18  N   UNL     1      -0.053  10.007  17.826  0.00  0.00    +0.000 NA
ATOM     19  C   UNL     1       0.357  10.581  18.908  0.00  0.00    +0.000 C 
ATOM     20  N   UNL     1       0.877   9.823  20.018  0.00  0.00    +0.000 N 
ATOM     21  H   UNL     1      -0.041   8.991  17.666  0.00  0.00    +0.000 HD
ATOM     22  H   UNL     1       0.767  10.218  20.962  0.00  0.00    +0.000 HD
BRANCH  19  23
ATOM     23  C   UNL     1       0.187  12.038  19.015  0.00  0.00    +0.000 A 
ATOM     24  C   UNL     1       1.096  13.007  18.609  0.00  0.00    +0.000 A 
ATOM     25  C   UNL     1       0.637  14.312  18.817  0.00  0.00    +0.000 A 
ATOM     26  C   UNL     1      -0.628  14.374  19.387  0.00  0.00    +0.000 A 
ATOM     27  S   UNL     1      -1.182  12.808  19.623  0.00  0.00    +0.000 S 
ENDBRANCH  19  23
ENDBRANCH   1  20
TORSDOF 3
ENDMDL
MODEL 3
REMARK VINA RESULT:      -8.0      2.286      2.666
REMARK  Name = 
REMARK  3 active torsions:
REMARK  status: ('A' for Active; 'I' for Inactive)
REMARK    1  A    between atoms: C_2  and  C_20
REMARK    2  A    between atoms: N_3  and  C_4
REMARK    3  A    between atoms: N_13  and  C_14
REMARK                            x       y       z     vdW  Elec       q    Type
REMARK                         _______ _______ _______ _____ _____    ______ ____
ROOT
ATOM      1  C   UNL     1       1.328   9.039  19.436  0.00  0.00    +0.000 A 
ATOM      2  C   UNL     1       1.065   8.323  20.593  0.00  0.00    +0.000 A 
ATOM      3  C   UNL     1       1.596   7.064  20.792  0.00  0.00    +0.000 A 
ATOM      4  C   UNL     1       2.423   6.429  19.834  0.00  0.00    +0.000 A 
ATOM      5  C   UNL     1       2.638   7.151  18.615  0.00  0.00    +0.000 A 
ATOM      6  C   UNL     1       2.087   8.436  18.427  0.00  0.00    +0.000 A 
ATOM      7  C   UNL     1       3.492   6.595  17.502  0.00  0.00    +0.000 C 
ATOM      8  C   UNL     1       3.900   5.147  17.740  0.00  0.00    +0.000 C 
ATOM      9  C   UNL     1       4.288   4.955  19.193  0.00  0.00    +0.000 C 
ATOM     10  N   UNL     1       3.109   5.150  20.053  0.00  0.00    +0.000 N 
ENDROOT
BRANCH  10  11
ATOM     11  C   UNL     1       2.529   3.956  20.760  0.00  0.00    +0.000 C 
ATOM     12  C   UNL     1       3.292   2.623  20.611  0.00  0.00    +0.000 C 
ATOM     13  C   UNL     1       3.203   2.113  19.146  0.00  0.00    +0.000 C 
ATOM     14  N   UNL     1       1.812   1.865  18.761  0.00  0.00    +0.000 NA
ATOM     15  C   UNL     1       0.993   3.077  18.917  0.00  0.00    +0.000 C 
ATOM     16  C   UNL     1       1.062   3.597  20.360  0.00  0.00    +0.000 C 
ATOM     17  H   UNL     1       1.423   1.099  19.360  0.00  0.00    +0.000 HD
ENDBRANCH  10  11
BRANCH   1  20
ATOM     18  N   UNL     1       2.348  11.124  17.595  0.00  0.00    +0.000 NA
ATOM     19  C   UNL     1       1.505  11.401  18.534  0.00  0.00    +0.000 C 
ATOM     20  N   UNL     1       0.826  10.367  19.273  0.00  0.00    +0.000 N 
ATOM     21  H   UNL     1       2.602  10.171  17.305  0.00  0.00    +0.000 HD
ATOM     22  H   UNL     1      -0.105  10.582  19.655  0.00  0.00    +0.000 HD
BRANCH  19  23
ATOM     23  C   UNL     1       1.181  12.817  18.765  0.00  0.00    +0.000 A 
ATOM     24  C   UNL     1      -0.037  13.437  18.513  0.00  0.00    +0.000 A 
ATOM     25  C   UNL     1      -0.045  14.792  18.863  0.00  0.00    +0.000 A 
ATOM     26  C   UNL     1       1.160  15.241  19.385  0.00  0.00    +0.000 A 
ATOM     27  S   UNL     1       2.235  13.952  19.425  0.00  0.00    +0.000 S 
ENDBRANCH  19  23
ENDBRANCH   1  20
TORSDOF 3
ENDMDL
MODEL 4
REMARK VINA RESULT:      -7.9      1.841      3.494
REMARK  Name = 
REMARK  3 active torsions:
REMARK  status: ('A' for Active; 'I' for Inactive)
REMARK    1  A    between atoms: C_2  and  C_20
REMARK    2  A    between atoms: N_3  and  C_4
REMARK    3  A    between atoms: N_13  and  C_14
REMARK                            x       y       z     vdW  Elec       q    Type
REMARK                         _______ _______ _______ _____ _____    ______ ____
ROOT
ATOM      1  C   UNL     1       1.585   8.400  19.838  0.00  0.00    +0.000 A 
ATOM      2  C   UNL     1       2.043   8.901  18.629  0.00  0.00    +0.000 A 
ATOM      3  C   UNL     1       2.842   8.142  17.797  0.00  0.00    +0.000 A 
ATOM      4  C   UNL     1       3.246   6.825  18.127  0.00  0.00    +0.000 A 
ATOM      5  C   UNL     1       2.818   6.339  19.406  0.00  0.00    +0.000 A 
ATOM      6  C   UNL     1       2.004   7.129  20.244  0.00  0.00    +0.000 A 
ATOM      7  C   UNL     1       3.179   4.957  19.892  0.00  0.00    +0.000 C 
ATOM      8  C   UNL     1       4.186   4.260  18.988  0.00  0.00    +0.000 C 
ATOM      9  C   UNL     1       3.831   4.507  17.535  0.00  0.00    +0.000 C 
ATOM     10  N   UNL     1       3.987   5.938  17.223  0.00  0.00    +0.000 N 
ENDROOT
BRANCH  10  11
ATOM     11  C   UNL     1       5.107   6.356  16.310  0.00  0.00    +0.000 C 
ATOM     12  C   UNL     1       5.693   5.268  15.387  0.00  0.00    +0.000 C 
ATOM     13  C   UNL     1       6.443   4.197  16.226  0.00  0.00    +0.000 C 
ATOM     14  N   UNL     1       7.560   4.795  16.961  0.00  0.00    +0.000 NA
ATOM     15  C   UNL     1       7.099   5.882  17.838  0.00  0.00    +0.000 C 
ATOM     16  C   UNL     1       6.359   6.956  17.028  0.00  0.00    +0.000 C 
ATOM     17  H   UNL     1       8.259   5.168  16.276  0.00  0.00    +0.000 HD
ENDBRANCH  10  11
BRANCH   1  20
ATOM     18  N   UNL     1      -0.719  10.036  18.946  0.00  0.00    +0.000 NA
ATOM     19  C   UNL     1      -0.249  10.123  20.146  0.00  0.00    +0.000 C 
ATOM     20  N   UNL     1       0.705   9.172  20.658  0.00  0.00    +0.000 N 
ATOM     21  H   UNL     1      -0.459   9.305  18.271  0.00  0.00    +0.000 HD
ATOM     22  H   UNL     1       0.709   8.994  21.672  0.00  0.00    +0.000 HD
BRANCH  19  23
ATOM     23  C   UNL     1      -0.793  11.175  21.018  0.00  0.00    +0.000 A 
ATOM     24  C   UNL     1      -0.800  11.174  22.407  0.00  0.00    +0.000 A 
ATOM     25  C   UNL     1      -1.365  12.332  22.954  0.00  0.00    +0.000 A 
ATOM     26  C   UNL     1      -1.804  13.243  22.001  0.00  0.00    +0.000 A 
ATOM     27  S   UNL     1      -1.480  12.615  20.478  0.00  0.00    +0.000 S 
ENDBRANCH  19  23
ENDBRANCH   1  20
TORSDOF 3
ENDMDL
MODEL 5
REMARK VINA RESULT:      -7.8      1.115      1.194
REMARK  Name = 
REMARK  3 active torsions:
REMARK  status: ('A' for Active; 'I' for Inactive)
REMARK    1  A    between atoms: C_2  and  C_20
REMARK    2  A    between atoms: N_3  and  C_4
REMARK    3  A    between atoms: N_13  and  C_14
REMARK                            x       y       z     vdW  Elec       q    Type
REMARK                         _______ _______ _______ _____ _____    ______ ____
ROOT
ATOM      1  C   UNL     1       1.450   8.713  19.590  0.00  0.00    +0.000 A 
ATOM      2  C   UNL     1       1.209   7.826  20.627  0.00  0.00    +0.000 A 
ATOM      3  C   UNL     1       1.815   6.586  20.664  0.00  0.00    +0.000 A 
ATOM      4  C   UNL     1       2.702   6.144  19.652  0.00  0.00    +0.000 A 
ATOM      5  C   UNL     1       2.897   7.044  18.553  0.00  0.00    +0.000 A 
ATOM      6  C   UNL     1       2.269   8.306  18.531  0.00  0.00    +0.000 A 
ATOM      7  C   UNL     1       3.810   6.704  17.401  0.00  0.00    +0.000 C 
ATOM      8  C   UNL     1       4.305   5.265  17.447  0.00  0.00    +0.000 C 
ATOM      9  C   UNL     1       4.673   4.892  18.869  0.00  0.00    +0.000 C 
ATOM     10  N   UNL     1       3.464   4.892  19.711  0.00  0.00    +0.000 N 
ENDROOT
BRANCH  10  11
ATOM     11  C   UNL     1       2.948   3.577  20.225  0.00  0.00    +0.000 C 
ATOM     12  C   UNL     1       3.633   2.303  19.688  0.00  0.00    +0.000 C 
ATOM     13  C   UNL     1       3.319   2.120  18.177  0.00  0.00    +0.000 C 
ATOM     14  N   UNL     1       1.879   1.967  17.956  0.00  0.00    +0.000 NA
ATOM     15  C   UNL     1       1.135   3.122  18.483  0.00  0.00    +0.000 C 
ATOM     16  C   UNL     1       1.426   3.319  19.978  0.00  0.00    +0.000 C 
ATOM     17  H   UNL     1       1.551   1.092  18.429  0.00  0.00    +0.000 HD
ENDBRANCH  10  11
BRANCH   1  20
ATOM     18  N   UNL     1       1.172  10.533  21.911  0.00  0.00    +0.000 NA
ATOM     19  C   UNL     1       0.556  10.755  20.797  0.00  0.00    +0.000 C 
ATOM     20  N   UNL     1       0.868  10.017  19.599  0.00  0.00    +0.000 N 
ATOM     21  H   UNL     1       1.913   9.831  22.036  0.00  0.00    +0.000 HD
ATOM     22  H   UNL     1       0.718  10.486  18.695  0.00  0.00    +0.000 HD
BRANCH  19  23
ATOM     23  C   UNL     1      -0.416  11.858  20.762  0.00  0.00    +0.000 A 
ATOM     24  C   UNL     1      -1.669  11.835  20.161  0.00  0.00    +0.000 A 
ATOM     25  C   UNL     1      -2.375  13.033  20.320  0.00  0.00    +0.000 A 
ATOM     26  C   UNL     1      -1.684  13.997  21.042  0.00  0.00    +0.000 A 
ATOM     27  S   UNL     1      -0.198  13.359  21.492  0.00  0.00    +0.000 S 
ENDBRANCH  19  23
ENDBRANCH   1  20
TORSDOF 3
ENDMDL
MODEL 6
REMARK VINA RESULT:      -7.8      3.215      8.699
REMARK  Name = 
REMARK  3 active torsions:
REMARK  status: ('A' for Active; 'I' for Inactive)
REMARK    1  A    between atoms: C_2  and  C_20
REMARK    2  A    between atoms: N_3  and  C_4
REMARK    3  A    between atoms: N_13  and  C_14
REMARK                            x       y       z     vdW  Elec       q    Type
REMARK                         _______ _______ _______ _____ _____    ______ ____
ROOT
ATOM      1  C   UNL     1       2.321   7.899  18.512  0.00  0.00    +0.000 A 
ATOM      2  C   UNL     1       1.715   8.863  17.722  0.00  0.00    +0.000 A 
ATOM      3  C   UNL     1       0.856   9.796  18.267  0.00  0.00    +0.000 A 
ATOM      4  C   UNL     1       0.536   9.820  19.646  0.00  0.00    +0.000 A 
ATOM      5  C   UNL     1       1.119   8.782  20.443  0.00  0.00    +0.000 A 
ATOM      6  C   UNL     1       1.994   7.835  19.871  0.00  0.00    +0.000 A 
ATOM      7  C   UNL     1       0.863   8.679  21.926  0.00  0.00    +0.000 C 
ATOM      8  C   UNL     1      -0.214   9.644  22.405  0.00  0.00    +0.000 C 
ATOM      9  C   UNL     1      -0.031  10.992  21.737  0.00  0.00    +0.000 C 
ATOM     10  N   UNL     1      -0.270  10.865  20.289  0.00  0.00    +0.000 N 
ENDROOT
BRANCH  10  11
ATOM     11  C   UNL     1      -1.498  11.507  19.705  0.00  0.00    +0.000 C 
ATOM     12  C   UNL     1      -1.365  12.094  18.284  0.00  0.00    +0.000 C 
ATOM     13  C   UNL     1      -0.421  13.328  18.298  0.00  0.00    +0.000 C 
ATOM     14  N   UNL     1      -0.955  14.386  19.160  0.00  0.00    +0.000 NA
ATOM     15  C   UNL     1      -1.160  13.900  20.533  0.00  0.00    +0.000 C 
ATOM     16  C   UNL     1      -2.095  12.682  20.544  0.00  0.00    +0.000 C 
ATOM     17  H   UNL     1      -1.865  14.722  18.766  0.00  0.00    +0.000 HD
ENDBRANCH  10  11
BRANCH   1  20
ATOM     18  N   UNL     1       3.638   5.619  19.871  0.00  0.00    +0.000 NA
ATOM     19  C   UNL     1       4.034   6.040  18.716  0.00  0.00    +0.000 C 
ATOM     20  N   UNL     1       3.260   6.981  17.946  0.00  0.00    +0.000 N 
ATOM     21  H   UNL     1       2.764   5.911  20.328  0.00  0.00    +0.000 HD
ATOM     22  H   UNL     1       3.344   6.947  16.921  0.00  0.00    +0.000 HD
BRANCH  19  23
ATOM     23  C   UNL     1       5.263   5.455  18.160  0.00  0.00    +0.000 A 
ATOM     24  C   UNL     1       5.401   4.857  16.913  0.00  0.00    +0.000 A 
ATOM     25  C   UNL     1       6.705   4.417  16.657  0.00  0.00    +0.000 A 
ATOM     26  C   UNL     1       7.591   4.663  17.698  0.00  0.00    +0.000 A 
ATOM     27  S   UNL     1       6.759   5.439  18.932  0.00  0.00    +0.000 S 
ENDBRANCH  19  23
ENDBRANCH   1  20
TORSDOF 3
ENDMDL
MODEL 7
REMARK VINA RESULT:      -7.8      1.891      3.253
REMARK  Name = 
REMARK  3 active torsions:
REMARK  status: ('A' for Active; 'I' for Inactive)
REMARK    1  A    between atoms: C_2  and  C_20
REMARK    2  A    between atoms: N_3  and  C_4
REMARK    3  A    between atoms: N_13  and  C_14
REMARK                            x       y       z     vdW  Elec       q    Type
REMARK                         _______ _______ _______ _____ _____    ______ ____
ROOT
ATOM      1  C   UNL     1       1.258   9.252  19.283  0.00  0.00    +0.000 A 
ATOM      2  C   UNL     1       1.873   9.471  18.061  0.00  0.00    +0.000 A 
ATOM      3  C   UNL     1       2.681   8.512  17.484  0.00  0.00    +0.000 A 
ATOM      4  C   UNL     1       2.937   7.264  18.101  0.00  0.00    +0.000 A 
ATOM      5  C   UNL     1       2.347   7.070  19.393  0.00  0.00    +0.000 A 
ATOM      6  C   UNL     1       1.525   8.062  19.969  0.00  0.00    +0.000 A 
ATOM      7  C   UNL     1       2.539   5.792  20.171  0.00  0.00    +0.000 C 
ATOM      8  C   UNL     1       3.566   4.865  19.536  0.00  0.00    +0.000 C 
ATOM      9  C   UNL     1       3.377   4.842  18.032  0.00  0.00    +0.000 C 
ATOM     10  N   UNL     1       3.684   6.169  17.472  0.00  0.00    +0.000 N 
ENDROOT
BRANCH  10  11
ATOM     11  C   UNL     1       4.919   6.324  16.628  0.00  0.00    +0.000 C 
ATOM     12  C   UNL     1       5.372   5.086  15.825  0.00  0.00    +0.000 C 
ATOM     13  C   UNL     1       5.866   3.971  16.787  0.00  0.00    +0.000 C 
ATOM     14  N   UNL     1       7.016   4.427  17.571  0.00  0.00    +0.000 NA
ATOM     15  C   UNL     1       6.690   5.639  18.338  0.00  0.00    +0.000 C 
ATOM     16  C   UNL     1       6.204   6.758  17.406  0.00  0.00    +0.000 C 
ATOM     17  H   UNL     1       7.815   4.626  16.923  0.00  0.00    +0.000 HD
ENDBRANCH  10  11
BRANCH   1  20
ATOM     18  N   UNL     1       1.334  10.395  22.015  0.00  0.00    +0.000 NA
ATOM     19  C   UNL     1       0.320  10.570  21.235  0.00  0.00    +0.000 C 
ATOM     20  N   UNL     1       0.372  10.226  19.836  0.00  0.00    +0.000 N 
ATOM     21  H   UNL     1       2.237  10.005  21.716  0.00  0.00    +0.000 HD
ATOM     22  H   UNL     1      -0.225  10.760  19.189  0.00  0.00    +0.000 HD
BRANCH  19  23
ATOM     23  C   UNL     1      -0.870  11.224  21.798  0.00  0.00    +0.000 A 
ATOM     24  C   UNL     1      -1.352  11.087  23.095  0.00  0.00    +0.000 A 
ATOM     25  C   UNL     1      -2.492  11.861  23.341  0.00  0.00    +0.000 A 
ATOM     26  C   UNL     1      -2.911  12.602  22.245  0.00  0.00    +0.000 A 
ATOM     27  S   UNL     1      -1.858  12.308  20.970  0.00  0.00    +0.000 S 
ENDBRANCH  19  23
ENDBRANCH   1  20
TORSDOF 3
ENDMDL
MODEL 8
REMARK VINA RESULT:      -7.8      2.116      3.510
REMARK  Name = 
REMARK  3 active torsions:
REMARK  status: ('A' for Active; 'I' for Inactive)
REMARK    1  A    between atoms: C_2  and  C_20
REMARK    2  A    between atoms: N_3  and  C_4
REMARK    3  A    between atoms: N_13  and  C_14
REMARK                            x       y       z     vdW  Elec       q    Type
REMARK                         _______ _______ _______ _____ _____    ______ ____
ROOT
ATOM      1  C   UNL     1       1.465   9.572  19.499  0.00  0.00    +0.000 A 
ATOM      2  C   UNL     1       2.052   9.407  18.255  0.00  0.00    +0.000 A 
ATOM      3  C   UNL     1       2.483   8.167  17.827  0.00  0.00    +0.000 A 
ATOM      4  C   UNL     1       2.362   7.004  18.626  0.00  0.00    +0.000 A 
ATOM      5  C   UNL     1       1.811   7.196  19.934  0.00  0.00    +0.000 A 
ATOM      6  C   UNL     1       1.377   8.470  20.357  0.00  0.00    +0.000 A 
ATOM      7  C   UNL     1       1.628   6.048  20.897  0.00  0.00    +0.000 C 
ATOM      8  C   UNL     1       2.273   4.760  20.405  0.00  0.00    +0.000 C 
ATOM      9  C   UNL     1       2.008   4.585  18.923  0.00  0.00    +0.000 C 
ATOM     10  N   UNL     1       2.690   5.649  18.167  0.00  0.00    +0.000 N 
ENDROOT
BRANCH  10  11
ATOM     11  C   UNL     1       3.864   5.277  17.304  0.00  0.00    +0.000 C 
ATOM     12  C   UNL     1       4.157   3.771  17.141  0.00  0.00    +0.000 C 
ATOM     13  C   UNL     1       4.638   3.167  18.489  0.00  0.00    +0.000 C 
ATOM     14  N   UNL     1       5.877   3.807  18.937  0.00  0.00    +0.000 NA
ATOM     15  C   UNL     1       5.705   5.262  19.076  0.00  0.00    +0.000 C 
ATOM     16  C   UNL     1       5.234   5.881  17.752  0.00  0.00    +0.000 C 
ATOM     17  H   UNL     1       6.635   3.608  18.243  0.00  0.00    +0.000 HD
ENDBRANCH  10  11
BRANCH   1  20
ATOM     18  N   UNL     1      -1.206  10.714  18.911  0.00  0.00    +0.000 NA
ATOM     19  C   UNL     1      -0.250  11.437  19.394  0.00  0.00    +0.000 C 
ATOM     20  N   UNL     1       0.963  10.848  19.902  0.00  0.00    +0.000 N 
ATOM     21  H   UNL     1      -1.183   9.688  18.847  0.00  0.00    +0.000 HD
ATOM     22  H   UNL     1       1.466  11.352  20.647  0.00  0.00    +0.000 HD
BRANCH  19  23
ATOM     23  C   UNL     1      -0.476  12.886  19.499  0.00  0.00    +0.000 A 
ATOM     24  C   UNL     1       0.023  13.863  18.646  0.00  0.00    +0.000 A 
ATOM     25  C   UNL     1      -0.390  15.156  18.991  0.00  0.00    +0.000 A 
ATOM     26  C   UNL     1      -1.209  15.199  20.112  0.00  0.00    +0.000 A 
ATOM     27  S   UNL     1      -1.430  13.632  20.670  0.00  0.00    +0.000 S 
ENDBRANCH  19  23
ENDBRANCH   1  20
TORSDOF 3
ENDMDL
MODEL 9
REMARK VINA RESULT:      -7.8      2.395      3.635
REMARK  Name = 
REMARK  3 active torsions:
REMARK  status: ('A' for Active; 'I' for Inactive)
REMARK    1  A    between atoms: C_2  and  C_20
REMARK    2  A    between atoms: N_3  and  C_4
REMARK    3  A    between atoms: N_13  and  C_14
REMARK                            x       y       z     vdW  Elec       q    Type
REMARK                         _______ _______ _______ _____ _____    ______ ____
ROOT
ATOM      1  C   UNL     1       1.745   9.308  19.193  0.00  0.00    +0.000 A 
ATOM      2  C   UNL     1       2.253   8.927  17.962  0.00  0.00    +0.000 A 
ATOM      3  C   UNL     1       2.498   7.601  17.668  0.00  0.00    +0.000 A 
ATOM      4  C   UNL     1       2.258   6.560  18.598  0.00  0.00    +0.000 A 
ATOM      5  C   UNL     1       1.791   6.969  19.890  0.00  0.00    +0.000 A 
ATOM      6  C   UNL     1       1.547   8.329  20.174  0.00  0.00    +0.000 A 
ATOM      7  C   UNL     1       1.499   5.971  20.982  0.00  0.00    +0.000 C 
ATOM      8  C   UNL     1       1.947   4.560  20.625  0.00  0.00    +0.000 C 
ATOM      9  C   UNL     1       1.599   4.260  19.180  0.00  0.00    +0.000 C 
ATOM     10  N   UNL     1       2.384   5.131  18.289  0.00  0.00    +0.000 N 
ENDROOT
BRANCH  10  11
ATOM     11  C   UNL     1       3.462   4.510  17.445  0.00  0.00    +0.000 C 
ATOM     12  C   UNL     1       3.627   2.979  17.544  0.00  0.00    +0.000 C 
ATOM     13  C   UNL     1       4.156   2.585  18.951  0.00  0.00    +0.000 C 
ATOM     14  N   UNL     1       5.469   3.184  19.204  0.00  0.00    +0.000 NA
ATOM     15  C   UNL     1       5.418   4.649  19.083  0.00  0.00    +0.000 C 
ATOM     16  C   UNL     1       4.903   5.062  17.697  0.00  0.00    +0.000 C 
ATOM     17  H   UNL     1       6.158   2.798  18.517  0.00  0.00    +0.000 HD
ENDBRANCH  10  11
BRANCH   1  20
ATOM     18  N   UNL     1      -0.440  10.913  17.997  0.00  0.00    +0.000 NA
ATOM     19  C   UNL     1       0.509  11.462  18.681  0.00  0.00    +0.000 C 
ATOM     20  N   UNL     1       1.433  10.677  19.460  0.00  0.00    +0.000 N 
ATOM     21  H   UNL     1      -0.610   9.901  17.948  0.00  0.00    +0.000 HD
ATOM     22  H   UNL     1       1.847  11.113  20.296  0.00  0.00    +0.000 HD
BRANCH  19  23
ATOM     23  C   UNL     1       0.562  12.931  18.719  0.00  0.00    +0.000 A 
ATOM     24  C   UNL     1      -0.525  13.796  18.698  0.00  0.00    +0.000 A 
ATOM     25  C   UNL     1      -0.155  15.144  18.774  0.00  0.00    +0.000 A 
ATOM     26  C   UNL     1       1.218  15.342  18.852  0.00  0.00    +0.000 A 
ATOM     27  S   UNL     1       1.973  13.843  18.839  0.00  0.00    +0.000 S 
ENDBRANCH  19  23
ENDBRANCH   1  20
TORSDOF 3
ENDMDL
