MODEL 1
REMARK VINA RESULT:      -8.1      0.000      0.000
REMARK  Name = 
REMARK  12 active torsions:
REMARK  status: ('A' for Active; 'I' for Inactive)
REMARK    1  A    between atoms: C_2  and  O_3
REMARK    2  A    between atoms: C_2  and  C_4
REMARK    3  A    between atoms: C_4  and  N_5
REMARK    4  A    between atoms: C_6  and  C_8
REMARK    5  A    between atoms: C_11  and  C_12
REMARK    6  A    between atoms: C_17  and  O_18
REMARK    7  A    between atoms: O_18  and  C_19
REMARK    8  A    between atoms: C_21  and  C_22
REMARK    9  A    between atoms: C_22  and  O_23
REMARK   10  A    between atoms: C_24  and  O_25
REMARK   11  A    between atoms: C_26  and  O_27
REMARK   12  A    between atoms: C_28  and  O_29
REMARK                            x       y       z     vdW  Elec       q    Type
REMARK                         _______ _______ _______ _____ _____    ______ ____
ROOT
ATOM      1  C   UNL     1       2.555   4.217  19.044  0.00  0.00    +0.000 A 
ATOM      2  C   UNL     1       1.548   3.317  18.636  0.00  0.00    +0.000 A 
ATOM      3  C   UNL     1       1.812   1.961  18.422  0.00  0.00    +0.000 A 
ATOM      4  C   UNL     1       3.089   1.461  18.633  0.00  0.00    +0.000 A 
ATOM      5  C   UNL     1       4.111   2.323  19.024  0.00  0.00    +0.000 A 
ATOM      6  C   UNL     1       3.864   3.693  19.198  0.00  0.00    +0.000 A 
ENDROOT
BRANCH   1  10
ATOM      7  C   UNL     1       1.555   8.378  19.730  0.00  0.00    +0.000 A 
ATOM      8  C   UNL     1       2.041   7.972  18.492  0.00  0.00    +0.000 A 
ATOM      9  C   UNL     1       2.389   6.632  18.289  0.00  0.00    +0.000 A 
ATOM     10  C   UNL     1       2.222   5.652  19.290  0.00  0.00    +0.000 A 
ATOM     11  C   UNL     1       1.744   6.098  20.536  0.00  0.00    +0.000 A 
ATOM     12  C   UNL     1       1.432   7.447  20.762  0.00  0.00    +0.000 A 
BRANCH   7  14
ATOM     13  N   UNL     1       0.895  10.567  18.897  0.00  0.00    +0.000 N 
ATOM     14  C   UNL     1       1.200   9.795  19.990  0.00  0.00    +0.000 C 
ATOM     15  O   UNL     1       1.160  10.225  21.140  0.00  0.00    +0.000 OA
ATOM     16  H   UNL     1       0.768  10.153  17.976  0.00  0.00    +0.000 HD
BRANCH  13  17
ATOM     17  C   UNL     1       0.532  11.956  19.069  0.00  0.00    +0.000 C 
BRANCH  17  19
ATOM     18  O   UNL     1      -1.891  11.898  19.287  0.00  0.00    +0.000 OA
ATOM     19  C   UNL     1      -0.902  12.226  18.644  0.00  0.00    +0.000 C 
BRANCH  19  20
ATOM     20  O   UNL     1      -0.989  12.889  17.462  0.00  0.00    +0.000 OA
ATOM     21  H   UNL     1      -1.894  13.180  17.237  0.00  0.00    +0.000 HD
ENDBRANCH  19  20
ENDBRANCH  17  19
ENDBRANCH  13  17
ENDBRANCH   7  14
ENDBRANCH   1  10
BRANCH   6  22
ATOM     22  O   UNL     1       4.845   4.585  19.546  0.00  0.00    +0.000 OA
BRANCH  22  23
ATOM     23  C   UNL     1       5.910   4.839  18.629  0.00  0.00    +0.000 C 
ATOM     24  O   UNL     1       5.382   5.285  17.374  0.00  0.00    +0.000 OA
ATOM     25  C   UNL     1       6.365   5.611  16.386  0.00  0.00    +0.000 C 
ATOM     26  C   UNL     1       7.273   6.729  16.915  0.00  0.00    +0.000 C 
ATOM     27  C   UNL     1       7.898   6.344  18.260  0.00  0.00    +0.000 C 
ATOM     28  C   UNL     1       6.820   5.913  19.269  0.00  0.00    +0.000 C 
BRANCH  26  29
ATOM     29  O   UNL     1       6.495   7.929  17.121  0.00  0.00    +0.000 OA
ATOM     30  H   UNL     1       5.673   7.846  16.598  0.00  0.00    +0.000 HD
ENDBRANCH  26  29
BRANCH  27  31
ATOM     31  O   UNL     1       8.645   7.452  18.777  0.00  0.00    +0.000 OA
ATOM     32  H   UNL     1       7.987   8.068  19.160  0.00  0.00    +0.000 HD
ENDBRANCH  27  31
BRANCH  28  33
ATOM     33  O   UNL     1       7.412   5.413  20.482  0.00  0.00    +0.000 OA
ATOM     34  H   UNL     1       6.751   4.888  20.963  0.00  0.00    +0.000 HD
ENDBRANCH  28  33
BRANCH  25  35
ATOM     35  C   UNL     1       7.110   4.363  15.893  0.00  0.00    +0.000 C 
BRANCH  35  36
ATOM     36  O   UNL     1       6.212   3.328  15.530  0.00  0.00    +0.000 OA
ATOM     37  H   UNL     1       6.283   3.191  14.568  0.00  0.00    +0.000 HD
ENDBRANCH  35  36
ENDBRANCH  25  35
ENDBRANCH  22  23
ENDBRANCH   6  22
TORSDOF 12
ENDMDL
MODEL 2
REMARK VINA RESULT:      -8.0      1.138      1.301
REMARK  Name = 
REMARK  12 active torsions:
REMARK  status: ('A' for Active; 'I' for Inactive)
REMARK    1  A    between atoms: C_2  and  O_3
REMARK    2  A    between atoms: C_2  and  C_4
REMARK    3  A    between atoms: C_4  and  N_5
REMARK    4  A    between atoms: C_6  and  C_8
REMARK    5  A    between atoms: C_11  and  C_12
REMARK    6  A    between atoms: C_17  and  O_18
REMARK    7  A    between atoms: O_18  and  C_19
REMARK    8  A    between atoms: C_21  and  C_22
REMARK    9  A    between atoms: C_22  and  O_23
REMARK   10  A    between atoms: C_24  and  O_25
REMARK   11  A    between atoms: C_26  and  O_27
REMARK   12  A    between atoms: C_28  and  O_29
REMARK                            x       y       z     vdW  Elec       q    Type
REMARK                         _______ _______ _______ _____ _____    ______ ____
ROOT
ATOM      1  C   UNL     1       2.617   4.306  18.943  0.00  0.00    +0.000 A 
ATOM      2  C   UNL     1       1.622   3.412  18.492  0.00  0.00    +0.000 A 
ATOM      3  C   UNL     1       1.890   2.057  18.274  0.00  0.00    +0.000 A 
ATOM      4  C   UNL     1       3.158   1.552  18.522  0.00  0.00    +0.000 A 
ATOM      5  C   UNL     1       4.169   2.407  18.956  0.00  0.00    +0.000 A 
ATOM      6  C   UNL     1       3.919   3.776  19.135  0.00  0.00    +0.000 A 
ENDROOT
BRANCH   1  10
ATOM      7  C   UNL     1       1.603   8.461  19.638  0.00  0.00    +0.000 A 
ATOM      8  C   UNL     1       2.062   8.054  18.390  0.00  0.00    +0.000 A 
ATOM      9  C   UNL     1       2.415   6.716  18.183  0.00  0.00    +0.000 A 
ATOM     10  C   UNL     1       2.280   5.739  19.191  0.00  0.00    +0.000 A 
ATOM     11  C   UNL     1       1.829   6.185  20.447  0.00  0.00    +0.000 A 
ATOM     12  C   UNL     1       1.513   7.533  20.677  0.00  0.00    +0.000 A 
BRANCH   7  14
ATOM     13  N   UNL     1       1.192  10.714  18.816  0.00  0.00    +0.000 N 
ATOM     14  C   UNL     1       1.245   9.877  19.903  0.00  0.00    +0.000 C 
ATOM     15  O   UNL     1       0.983  10.250  21.043  0.00  0.00    +0.000 OA
ATOM     16  H   UNL     1       1.244  10.352  17.867  0.00  0.00    +0.000 HD
BRANCH  13  17
ATOM     17  C   UNL     1       0.843  12.106  18.991  0.00  0.00    +0.000 C 
BRANCH  17  19
ATOM     18  O   UNL     1       2.367  13.988  19.226  0.00  0.00    +0.000 OA
ATOM     19  C   UNL     1       1.971  13.034  18.570  0.00  0.00    +0.000 C 
BRANCH  19  20
ATOM     20  O   UNL     1       2.520  12.693  17.375  0.00  0.00    +0.000 OA
ATOM     21  H   UNL     1       3.364  13.146  17.184  0.00  0.00    +0.000 HD
ENDBRANCH  19  20
ENDBRANCH  17  19
ENDBRANCH  13  17
ENDBRANCH   7  14
ENDBRANCH   1  10
BRANCH   6  22
ATOM     22  O   UNL     1       4.890   4.661  19.524  0.00  0.00    +0.000 OA
BRANCH  22  23
ATOM     23  C   UNL     1       5.927   5.004  18.604  0.00  0.00    +0.000 C 
ATOM     24  O   UNL     1       5.366   5.617  17.438  0.00  0.00    +0.000 OA
ATOM     25  C   UNL     1       6.321   6.042  16.460  0.00  0.00    +0.000 C 
ATOM     26  C   UNL     1       7.279   7.063  17.088  0.00  0.00    +0.000 C 
ATOM     27  C   UNL     1       7.942   6.497  18.348  0.00  0.00    +0.000 C 
ATOM     28  C   UNL     1       6.890   5.967  19.337  0.00  0.00    +0.000 C 
BRANCH  26  29
ATOM     29  O   UNL     1       6.544   8.245  17.473  0.00  0.00    +0.000 OA
ATOM     30  H   UNL     1       7.161   8.843  17.940  0.00  0.00    +0.000 HD
ENDBRANCH  26  29
BRANCH  27  31
ATOM     31  O   UNL     1       8.739   7.512  18.969  0.00  0.00    +0.000 OA
ATOM     32  H   UNL     1       8.965   8.151  18.263  0.00  0.00    +0.000 HD
ENDBRANCH  27  31
BRANCH  28  33
ATOM     33  O   UNL     1       7.512   5.304  20.453  0.00  0.00    +0.000 OA
ATOM     34  H   UNL     1       8.455   5.176  20.260  0.00  0.00    +0.000 HD
ENDBRANCH  28  33
BRANCH  25  35
ATOM     35  C   UNL     1       7.011   4.849  15.785  0.00  0.00    +0.000 C 
BRANCH  35  36
ATOM     36  O   UNL     1       7.839   5.263  14.712  0.00  0.00    +0.000 OA
ATOM     37  H   UNL     1       8.762   5.053  14.945  0.00  0.00    +0.000 HD
ENDBRANCH  35  36
ENDBRANCH  25  35
ENDBRANCH  22  23
ENDBRANCH   6  22
TORSDOF 12
ENDMDL
MODEL 3
REMARK VINA RESULT:      -7.8      0.854      1.283
REMARK  Name = 
REMARK  12 active torsions:
REMARK  status: ('A' for Active; 'I' for Inactive)
REMARK    1  A    between atoms: C_2  and  O_3
REMARK    2  A    between atoms: C_2  and  C_4
REMARK    3  A    between atoms: C_4  and  N_5
REMARK    4  A    between atoms: C_6  and  C_8
REMARK    5  A    between atoms: C_11  and  C_12
REMARK    6  A    between atoms: C_17  and  O_18
REMARK    7  A    between atoms: O_18  and  C_19
REMARK    8  A    between atoms: C_21  and  C_22
REMARK    9  A    between atoms: C_22  and  O_23
REMARK   10  A    between atoms: C_24  and  O_25
REMARK   11  A    between atoms: C_26  and  O_27
REMARK   12  A    between atoms: C_28  and  O_29
REMARK                            x       y       z     vdW  Elec       q    Type
REMARK                         _______ _______ _______ _____ _____    ______ ____
ROOT
ATOM      1  C   UNL     1       2.513   4.344  18.993  0.00  0.00    +0.000 A 
ATOM      2  C   UNL     1       1.503   3.480  18.520  0.00  0.00    +0.000 A 
ATOM      3  C   UNL     1       1.772   2.155  18.163  0.00  0.00    +0.000 A 
ATOM      4  C   UNL     1       3.058   1.650  18.290  0.00  0.00    +0.000 A 
ATOM      5  C   UNL     1       4.083   2.478  18.742  0.00  0.00    +0.000 A 
ATOM      6  C   UNL     1       3.830   3.821  19.061  0.00  0.00    +0.000 A 
ENDROOT
BRANCH   1  10
ATOM      7  C   UNL     1       1.567   8.404  20.178  0.00  0.00    +0.000 A 
ATOM      8  C   UNL     1       1.366   7.353  21.066  0.00  0.00    +0.000 A 
ATOM      9  C   UNL     1       1.646   6.042  20.665  0.00  0.00    +0.000 A 
ATOM     10  C   UNL     1       2.175   5.743  19.392  0.00  0.00    +0.000 A 
ATOM     11  C   UNL     1       2.352   6.826  18.511  0.00  0.00    +0.000 A 
ATOM     12  C   UNL     1       2.033   8.139  18.889  0.00  0.00    +0.000 A 
BRANCH   7  14
ATOM     13  N   UNL     1       1.083  10.700  19.534  0.00  0.00    +0.000 N 
ATOM     14  C   UNL     1       1.256   9.804  20.560  0.00  0.00    +0.000 C 
ATOM     15  O   UNL     1       1.135  10.115  21.741  0.00  0.00    +0.000 OA
ATOM     16  H   UNL     1       1.019  10.390  18.567  0.00  0.00    +0.000 HD
BRANCH  13  17
ATOM     17  C   UNL     1       0.770  12.081  19.823  0.00  0.00    +0.000 C 
BRANCH  17  19
ATOM     18  O   UNL     1      -0.253  13.689  18.310  0.00  0.00    +0.000 OA
ATOM     19  C   UNL     1       0.664  12.918  18.558  0.00  0.00    +0.000 C 
BRANCH  19  20
ATOM     20  O   UNL     1       1.710  12.734  17.712  0.00  0.00    +0.000 OA
ATOM     21  H   UNL     1       1.623  13.211  16.864  0.00  0.00    +0.000 HD
ENDBRANCH  19  20
ENDBRANCH  17  19
ENDBRANCH  13  17
ENDBRANCH   7  14
ENDBRANCH   1  10
BRANCH   6  22
ATOM     22  O   UNL     1       4.812   4.682  19.473  0.00  0.00    +0.000 OA
BRANCH  22  23
ATOM     23  C   UNL     1       5.869   5.013  18.572  0.00  0.00    +0.000 C 
ATOM     24  O   UNL     1       5.337   5.648  17.403  0.00  0.00    +0.000 OA
ATOM     25  C   UNL     1       6.314   6.064  16.444  0.00  0.00    +0.000 C 
ATOM     26  C   UNL     1       7.282   7.061  17.096  0.00  0.00    +0.000 C 
ATOM     27  C   UNL     1       7.916   6.470  18.360  0.00  0.00    +0.000 C 
ATOM     28  C   UNL     1       6.839   5.952  19.328  0.00  0.00    +0.000 C 
BRANCH  26  29
ATOM     29  O   UNL     1       6.564   8.253  17.481  0.00  0.00    +0.000 OA
ATOM     30  H   UNL     1       7.161   9.017  17.354  0.00  0.00    +0.000 HD
ENDBRANCH  26  29
BRANCH  27  31
ATOM     31  O   UNL     1       8.722   7.464  19.003  0.00  0.00    +0.000 OA
ATOM     32  H   UNL     1       8.450   7.468  19.943  0.00  0.00    +0.000 HD
ENDBRANCH  27  31
BRANCH  28  33
ATOM     33  O   UNL     1       7.431   5.266  20.447  0.00  0.00    +0.000 OA
ATOM     34  H   UNL     1       7.441   5.862  21.214  0.00  0.00    +0.000 HD
ENDBRANCH  28  33
BRANCH  25  35
ATOM     35  C   UNL     1       6.992   4.864  15.768  0.00  0.00    +0.000 C 
BRANCH  35  36
ATOM     36  O   UNL     1       7.742   5.259  14.632  0.00  0.00    +0.000 OA
ATOM     37  H   UNL     1       8.498   5.792  14.939  0.00  0.00    +0.000 HD
ENDBRANCH  35  36
ENDBRANCH  25  35
ENDBRANCH  22  23
ENDBRANCH   6  22
TORSDOF 12
ENDMDL
MODEL 4
REMARK VINA RESULT:      -7.7      2.347      4.924
REMARK  Name = 
REMARK  12 active torsions:
REMARK  status: ('A' for Active; 'I' for Inactive)
REMARK    1  A    between atoms: C_2  and  O_3
REMARK    2  A    between atoms: C_2  and  C_4
REMARK    3  A    between atoms: C_4  and  N_5
REMARK    4  A    between atoms: C_6  and  C_8
REMARK    5  A    between atoms: C_11  and  C_12
REMARK    6  A    between atoms: C_17  and  O_18
REMARK    7  A    between atoms: O_18  and  C_19
REMARK    8  A    between atoms: C_21  and  C_22
REMARK    9  A    between atoms: C_22  and  O_23
REMARK   10  A    between atoms: C_24  and  O_25
REMARK   11  A    between atoms: C_26  and  O_27
REMARK   12  A    between atoms: C_28  and  O_29
REMARK                            x       y       z     vdW  Elec       q    Type
REMARK                         _______ _______ _______ _____ _____    ______ ____
ROOT
ATOM      1  C   UNL     1       4.708   6.507  17.386  0.00  0.00    +0.000 A 
ATOM      2  C   UNL     1       5.984   7.080  17.200  0.00  0.00    +0.000 A 
ATOM      3  C   UNL     1       7.040   6.363  16.630  0.00  0.00    +0.000 A 
ATOM      4  C   UNL     1       6.843   5.056  16.208  0.00  0.00    +0.000 A 
ATOM      5  C   UNL     1       5.601   4.453  16.387  0.00  0.00    +0.000 A 
ATOM      6  C   UNL     1       4.548   5.151  16.998  0.00  0.00    +0.000 A 
ENDROOT
BRANCH   1  10
ATOM      7  C   UNL     1       1.521   8.878  19.116  0.00  0.00    +0.000 A 
ATOM      8  C   UNL     1       2.033   7.787  19.809  0.00  0.00    +0.000 A 
ATOM      9  C   UNL     1       3.041   7.009  19.229  0.00  0.00    +0.000 A 
ATOM     10  C   UNL     1       3.600   7.319  17.972  0.00  0.00    +0.000 A 
ATOM     11  C   UNL     1       3.049   8.419  17.289  0.00  0.00    +0.000 A 
ATOM     12  C   UNL     1       2.008   9.179  17.843  0.00  0.00    +0.000 A 
BRANCH   7  14
ATOM     13  N   UNL     1       0.683  10.313  20.894  0.00  0.00    +0.000 N 
ATOM     14  C   UNL     1       0.432   9.710  19.687  0.00  0.00    +0.000 C 
ATOM     15  O   UNL     1      -0.622   9.861  19.075  0.00  0.00    +0.000 OA
ATOM     16  H   UNL     1       1.616  10.316  21.300  0.00  0.00    +0.000 HD
BRANCH  13  17
ATOM     17  C   UNL     1      -0.325  11.146  21.512  0.00  0.00    +0.000 C 
BRANCH  17  19
ATOM     18  O   UNL     1       0.007   9.905  23.578  0.00  0.00    +0.000 OA
ATOM     19  C   UNL     1      -0.678  10.669  22.912  0.00  0.00    +0.000 C 
BRANCH  19  20
ATOM     20  O   UNL     1      -1.846  11.189  23.369  0.00  0.00    +0.000 OA
ATOM     21  H   UNL     1      -1.984  12.126  23.130  0.00  0.00    +0.000 HD
ENDBRANCH  19  20
ENDBRANCH  17  19
ENDBRANCH  13  17
ENDBRANCH   7  14
ENDBRANCH   1  10
BRANCH   6  22
ATOM     22  O   UNL     1       3.320   4.588  17.229  0.00  0.00    +0.000 OA
BRANCH  22  23
ATOM     23  C   UNL     1       3.201   3.564  18.217  0.00  0.00    +0.000 C 
ATOM     24  O   UNL     1       4.166   3.767  19.255  0.00  0.00    +0.000 OA
ATOM     25  C   UNL     1       4.112   2.819  20.326  0.00  0.00    +0.000 C 
ATOM     26  C   UNL     1       2.726   2.869  20.985  0.00  0.00    +0.000 C 
ATOM     27  C   UNL     1       1.615   2.652  19.952  0.00  0.00    +0.000 C 
ATOM     28  C   UNL     1       1.758   3.629  18.772  0.00  0.00    +0.000 C 
BRANCH  26  29
ATOM     29  O   UNL     1       2.521   4.166  21.584  0.00  0.00    +0.000 OA
ATOM     30  H   UNL     1       2.320   4.800  20.867  0.00  0.00    +0.000 HD
ENDBRANCH  26  29
BRANCH  27  31
ATOM     31  O   UNL     1       0.338   2.818  20.579  0.00  0.00    +0.000 OA
ATOM     32  H   UNL     1       0.078   1.932  20.904  0.00  0.00    +0.000 HD
ENDBRANCH  27  31
BRANCH  28  33
ATOM     33  O   UNL     1       0.807   3.333  17.733  0.00  0.00    +0.000 OA
ATOM     34  H   UNL     1       0.946   2.422  17.426  0.00  0.00    +0.000 HD
ENDBRANCH  28  33
BRANCH  25  35
ATOM     35  C   UNL     1       4.552   1.421  19.869  0.00  0.00    +0.000 C 
BRANCH  35  36
ATOM     36  O   UNL     1       5.616   0.924  20.663  0.00  0.00    +0.000 OA
ATOM     37  H   UNL     1       5.644  -0.045  20.558  0.00  0.00    +0.000 HD
ENDBRANCH  35  36
ENDBRANCH  25  35
ENDBRANCH  22  23
ENDBRANCH   6  22
TORSDOF 12
ENDMDL
MODEL 5
REMARK VINA RESULT:      -7.7      1.260      1.744
REMARK  Name = 
REMARK  12 active torsions:
REMARK  status: ('A' for Active; 'I' for Inactive)
REMARK    1  A    between atoms: C_2  and  O_3
REMARK    2  A    between atoms: C_2  and  C_4
REMARK    3  A    between atoms: C_4  and  N_5
REMARK    4  A    between atoms: C_6  and  C_8
REMARK    5  A    between atoms: C_11  and  C_12
REMARK    6  A    between atoms: C_17  and  O_18
REMARK    7  A    between atoms: O_18  and  C_19
REMARK    8  A    between atoms: C_21  and  C_22
REMARK    9  A    between atoms: C_22  and  O_23
REMARK   10  A    between atoms: C_24  and  O_25
REMARK   11  A    between atoms: C_26  and  O_27
REMARK   12  A    between atoms: C_28  and  O_29
REMARK                            x       y       z     vdW  Elec       q    Type
REMARK                         _______ _______ _______ _____ _____    ______ ____
ROOT
ATOM      1  C   UNL     1       2.604   4.347  18.925  0.00  0.00    +0.000 A 
ATOM      2  C   UNL     1       1.622   3.436  18.481  0.00  0.00    +0.000 A 
ATOM      3  C   UNL     1       1.903   2.079  18.298  0.00  0.00    +0.000 A 
ATOM      4  C   UNL     1       3.171   1.589  18.576  0.00  0.00    +0.000 A 
ATOM      5  C   UNL     1       4.169   2.461  19.004  0.00  0.00    +0.000 A 
ATOM      6  C   UNL     1       3.907   3.832  19.148  0.00  0.00    +0.000 A 
ENDROOT
BRANCH   1  10
ATOM      7  C   UNL     1       1.619   8.519  19.564  0.00  0.00    +0.000 A 
ATOM      8  C   UNL     1       1.493   7.605  20.604  0.00  0.00    +0.000 A 
ATOM      9  C   UNL     1       1.785   6.255  20.381  0.00  0.00    +0.000 A 
ATOM     10  C   UNL     1       2.252   5.783  19.136  0.00  0.00    +0.000 A 
ATOM     11  C   UNL     1       2.353   6.729  18.100  0.00  0.00    +0.000 A 
ATOM     12  C   UNL     1       2.022   8.077  18.302  0.00  0.00    +0.000 A 
BRANCH   7  14
ATOM     13  N   UNL     1       0.904  10.336  21.015  0.00  0.00    +0.000 N 
ATOM     14  C   UNL     1       1.293   9.954  19.756  0.00  0.00    +0.000 C 
ATOM     15  O   UNL     1       1.404  10.747  18.825  0.00  0.00    +0.000 OA
ATOM     16  H   UNL     1       0.983   9.703  21.808  0.00  0.00    +0.000 HD
BRANCH  13  17
ATOM     17  C   UNL     1       0.577  11.718  21.285  0.00  0.00    +0.000 C 
BRANCH  17  19
ATOM     18  O   UNL     1      -1.833  11.993  21.088  0.00  0.00    +0.000 OA
ATOM     19  C   UNL     1      -0.844  11.877  21.800  0.00  0.00    +0.000 C 
BRANCH  19  20
ATOM     20  O   UNL     1      -0.921  11.870  23.156  0.00  0.00    +0.000 OA
ATOM     21  H   UNL     1      -1.710  11.413  23.506  0.00  0.00    +0.000 HD
ENDBRANCH  19  20
ENDBRANCH  17  19
ENDBRANCH  13  17
ENDBRANCH   7  14
ENDBRANCH   1  10
BRANCH   6  22
ATOM     22  O   UNL     1       4.866   4.734  19.531  0.00  0.00    +0.000 OA
BRANCH  22  23
ATOM     23  C   UNL     1       5.916   5.059  18.620  0.00  0.00    +0.000 C 
ATOM     24  O   UNL     1       5.378   5.695  17.455  0.00  0.00    +0.000 OA
ATOM     25  C   UNL     1       6.348   6.105  16.487  0.00  0.00    +0.000 C 
ATOM     26  C   UNL     1       7.326   7.098  17.129  0.00  0.00    +0.000 C 
ATOM     27  C   UNL     1       7.968   6.506  18.388  0.00  0.00    +0.000 C 
ATOM     28  C   UNL     1       6.897   5.993  19.367  0.00  0.00    +0.000 C 
BRANCH  26  29
ATOM     29  O   UNL     1       6.617   8.294  17.519  0.00  0.00    +0.000 OA
ATOM     30  H   UNL     1       6.159   8.109  18.364  0.00  0.00    +0.000 HD
ENDBRANCH  26  29
BRANCH  27  31
ATOM     31  O   UNL     1       8.784   7.497  19.023  0.00  0.00    +0.000 OA
ATOM     32  H   UNL     1       9.104   7.092  19.856  0.00  0.00    +0.000 HD
ENDBRANCH  27  31
BRANCH  28  33
ATOM     33  O   UNL     1       7.496   5.306  20.481  0.00  0.00    +0.000 OA
ATOM     34  H   UNL     1       8.385   5.666  20.634  0.00  0.00    +0.000 HD
ENDBRANCH  28  33
BRANCH  25  35
ATOM     35  C   UNL     1       7.014   4.901  15.806  0.00  0.00    +0.000 C 
BRANCH  35  36
ATOM     36  O   UNL     1       7.808   5.299  14.702  0.00  0.00    +0.000 OA
ATOM     37  H   UNL     1       7.281   5.175  13.891  0.00  0.00    +0.000 HD
ENDBRANCH  35  36
ENDBRANCH  25  35
ENDBRANCH  22  23
ENDBRANCH   6  22
TORSDOF 12
ENDMDL
MODEL 6
REMARK VINA RESULT:      -7.6      2.095      4.537
REMARK  Name = 
REMARK  12 active torsions:
REMARK  status: ('A' for Active; 'I' for Inactive)
REMARK    1  A    between atoms: C_2  and  O_3
REMARK    2  A    between atoms: C_2  and  C_4
REMARK    3  A    between atoms: C_4  and  N_5
REMARK    4  A    between atoms: C_6  and  C_8
REMARK    5  A    between atoms: C_11  and  C_12
REMARK    6  A    between atoms: C_17  and  O_18
REMARK    7  A    between atoms: O_18  and  C_19
REMARK    8  A    between atoms: C_21  and  C_22
REMARK    9  A    between atoms: C_22  and  O_23
REMARK   10  A    between atoms: C_24  and  O_25
REMARK   11  A    between atoms: C_26  and  O_27
REMARK   12  A    between atoms: C_28  and  O_29
REMARK                            x       y       z     vdW  Elec       q    Type
REMARK                         _______ _______ _______ _____ _____    ______ ____
ROOT
ATOM      1  C   UNL     1       4.816   6.418  17.460  0.00  0.00    +0.000 A 
ATOM      2  C   UNL     1       6.110   6.973  17.360  0.00  0.00    +0.000 A 
ATOM      3  C   UNL     1       7.180   6.259  16.811  0.00  0.00    +0.000 A 
ATOM      4  C   UNL     1       6.981   4.975  16.325  0.00  0.00    +0.000 A 
ATOM      5  C   UNL     1       5.720   4.390  16.419  0.00  0.00    +0.000 A 
ATOM      6  C   UNL     1       4.651   5.083  17.008  0.00  0.00    +0.000 A 
ENDROOT
BRANCH   1  10
ATOM      7  C   UNL     1       1.537   8.748  19.070  0.00  0.00    +0.000 A 
ATOM      8  C   UNL     1       2.086   9.076  17.835  0.00  0.00    +0.000 A 
ATOM      9  C   UNL     1       3.164   8.337  17.337  0.00  0.00    +0.000 A 
ATOM     10  C   UNL     1       3.696   7.226  18.025  0.00  0.00    +0.000 A 
ATOM     11  C   UNL     1       3.129   6.930  19.279  0.00  0.00    +0.000 A 
ATOM     12  C   UNL     1       2.076   7.692  19.807  0.00  0.00    +0.000 A 
BRANCH   7  14
ATOM     13  N   UNL     1       0.004  10.634  18.941  0.00  0.00    +0.000 N 
ATOM     14  C   UNL     1       0.410   9.527  19.643  0.00  0.00    +0.000 C 
ATOM     15  O   UNL     1      -0.135   9.160  20.680  0.00  0.00    +0.000 OA
ATOM     16  H   UNL     1       0.352  10.822  18.003  0.00  0.00    +0.000 HD
BRANCH  13  17
ATOM     17  C   UNL     1      -1.092  11.440  19.430  0.00  0.00    +0.000 C 
BRANCH  17  19
ATOM     18  O   UNL     1      -3.307  11.450  18.422  0.00  0.00    +0.000 OA
ATOM     19  C   UNL     1      -2.117  11.725  18.344  0.00  0.00    +0.000 C 
BRANCH  19  20
ATOM     20  O   UNL     1      -1.580  12.337  17.256  0.00  0.00    +0.000 OA
ATOM     21  H   UNL     1      -0.990  11.763  16.731  0.00  0.00    +0.000 HD
ENDBRANCH  19  20
ENDBRANCH  17  19
ENDBRANCH  13  17
ENDBRANCH   7  14
ENDBRANCH   1  10
BRANCH   6  22
ATOM     22  O   UNL     1       3.404   4.535  17.156  0.00  0.00    +0.000 OA
BRANCH  22  23
ATOM     23  C   UNL     1       3.205   3.515  18.135  0.00  0.00    +0.000 C 
ATOM     24  O   UNL     1       4.163   3.655  19.191  0.00  0.00    +0.000 OA
ATOM     25  C   UNL     1       4.031   2.707  20.256  0.00  0.00    +0.000 C 
ATOM     26  C   UNL     1       2.640   2.838  20.891  0.00  0.00    +0.000 C 
ATOM     27  C   UNL     1       1.536   2.695  19.838  0.00  0.00    +0.000 C 
ATOM     28  C   UNL     1       1.760   3.666  18.665  0.00  0.00    +0.000 C 
BRANCH  26  29
ATOM     29  O   UNL     1       2.504   4.143  21.494  0.00  0.00    +0.000 OA
ATOM     30  H   UNL     1       3.397   4.536  21.565  0.00  0.00    +0.000 HD
ENDBRANCH  26  29
BRANCH  27  31
ATOM     31  O   UNL     1       0.260   2.936  20.443  0.00  0.00    +0.000 OA
ATOM     32  H   UNL     1      -0.336   3.215  19.718  0.00  0.00    +0.000 HD
ENDBRANCH  27  31
BRANCH  28  33
ATOM     33  O   UNL     1       0.810   3.433  17.609  0.00  0.00    +0.000 OA
ATOM     34  H   UNL     1       1.207   2.838  16.952  0.00  0.00    +0.000 HD
ENDBRANCH  28  33
BRANCH  25  35
ATOM     35  C   UNL     1       4.394   1.287  19.799  0.00  0.00    +0.000 C 
BRANCH  35  36
ATOM     36  O   UNL     1       5.567   0.817  20.440  0.00  0.00    +0.000 OA
ATOM     37  H   UNL     1       5.984   0.154  19.858  0.00  0.00    +0.000 HD
ENDBRANCH  35  36
ENDBRANCH  25  35
ENDBRANCH  22  23
ENDBRANCH   6  22
TORSDOF 12
ENDMDL
MODEL 7
REMARK VINA RESULT:      -7.6      1.843      2.101
REMARK  Name = 
REMARK  12 active torsions:
REMARK  status: ('A' for Active; 'I' for Inactive)
REMARK    1  A    between atoms: C_2  and  O_3
REMARK    2  A    between atoms: C_2  and  C_4
REMARK    3  A    between atoms: C_4  and  N_5
REMARK    4  A    between atoms: C_6  and  C_8
REMARK    5  A    between atoms: C_11  and  C_12
REMARK    6  A    between atoms: C_17  and  O_18
REMARK    7  A    between atoms: O_18  and  C_19
REMARK    8  A    between atoms: C_21  and  C_22
REMARK    9  A    between atoms: C_22  and  O_23
REMARK   10  A    between atoms: C_24  and  O_25
REMARK   11  A    between atoms: C_26  and  O_27
REMARK   12  A    between atoms: C_28  and  O_29
REMARK                            x       y       z     vdW  Elec       q    Type
REMARK                         _______ _______ _______ _____ _____    ______ ____
ROOT
ATOM      1  C   UNL     1       2.155   5.052  19.876  0.00  0.00    +0.000 A 
ATOM      2  C   UNL     1       1.049   4.218  20.145  0.00  0.00    +0.000 A 
ATOM      3  C   UNL     1       1.195   2.845  20.361  0.00  0.00    +0.000 A 
ATOM      4  C   UNL     1       2.456   2.269  20.337  0.00  0.00    +0.000 A 
ATOM      5  C   UNL     1       3.570   3.058  20.061  0.00  0.00    +0.000 A 
ATOM      6  C   UNL     1       3.428   4.430  19.800  0.00  0.00    +0.000 A 
ENDROOT
BRANCH   1  10
ATOM      7  C   UNL     1       1.548   9.302  19.282  0.00  0.00    +0.000 A 
ATOM      8  C   UNL     1       2.036   8.515  18.244  0.00  0.00    +0.000 A 
ATOM      9  C   UNL     1       2.257   7.149  18.454  0.00  0.00    +0.000 A 
ATOM     10  C   UNL     1       1.958   6.520  19.681  0.00  0.00    +0.000 A 
ATOM     11  C   UNL     1       1.481   7.346  20.715  0.00  0.00    +0.000 A 
ATOM     12  C   UNL     1       1.297   8.724  20.528  0.00  0.00    +0.000 A 
BRANCH   7  14
ATOM     13  N   UNL     1       2.089  11.388  18.152  0.00  0.00    +0.000 N 
ATOM     14  C   UNL     1       1.327  10.759  19.105  0.00  0.00    +0.000 C 
ATOM     15  O   UNL     1       0.477  11.344  19.769  0.00  0.00    +0.000 OA
ATOM     16  H   UNL     1       2.661  10.859  17.498  0.00  0.00    +0.000 HD
BRANCH  13  17
ATOM     17  C   UNL     1       1.926  12.805  17.914  0.00  0.00    +0.000 C 
BRANCH  17  19
ATOM     18  O   UNL     1       2.949  13.941  19.807  0.00  0.00    +0.000 OA
ATOM     19  C   UNL     1       2.989  13.627  18.625  0.00  0.00    +0.000 C 
BRANCH  19  20
ATOM     20  O   UNL     1       4.017  13.983  17.811  0.00  0.00    +0.000 OA
ATOM     21  H   UNL     1       3.887  13.730  16.876  0.00  0.00    +0.000 HD
ENDBRANCH  19  20
ENDBRANCH  17  19
ENDBRANCH  13  17
ENDBRANCH   7  14
ENDBRANCH   1  10
BRANCH   6  22
ATOM     22  O   UNL     1       4.489   5.239  19.488  0.00  0.00    +0.000 OA
BRANCH  22  23
ATOM     23  C   UNL     1       5.221   4.993  18.287  0.00  0.00    +0.000 C 
ATOM     24  O   UNL     1       4.331   4.969  17.165  0.00  0.00    +0.000 OA
ATOM     25  C   UNL     1       4.963   4.770  15.897  0.00  0.00    +0.000 C 
ATOM     26  C   UNL     1       5.974   5.897  15.644  0.00  0.00    +0.000 C 
ATOM     27  C   UNL     1       6.983   6.001  16.792  0.00  0.00    +0.000 C 
ATOM     28  C   UNL     1       6.268   6.123  18.149  0.00  0.00    +0.000 C 
BRANCH  26  29
ATOM     29  O   UNL     1       5.279   7.160  15.555  0.00  0.00    +0.000 OA
ATOM     30  H   UNL     1       4.587   7.171  16.246  0.00  0.00    +0.000 HD
ENDBRANCH  26  29
BRANCH  27  31
ATOM     31  O   UNL     1       7.837   7.131  16.580  0.00  0.00    +0.000 OA
ATOM     32  H   UNL     1       8.401   6.906  15.812  0.00  0.00    +0.000 HD
ENDBRANCH  27  31
BRANCH  28  33
ATOM     33  O   UNL     1       7.208   6.074  19.239  0.00  0.00    +0.000 OA
ATOM     34  H   UNL     1       6.973   6.755  19.890  0.00  0.00    +0.000 HD
ENDBRANCH  28  33
BRANCH  25  35
ATOM     35  C   UNL     1       5.539   3.354  15.765  0.00  0.00    +0.000 C 
BRANCH  35  36
ATOM     36  O   UNL     1       6.250   3.190  14.551  0.00  0.00    +0.000 OA
ATOM     37  H   UNL     1       5.881   3.813  13.898  0.00  0.00    +0.000 HD
ENDBRANCH  35  36
ENDBRANCH  25  35
ENDBRANCH  22  23
ENDBRANCH   6  22
TORSDOF 12
ENDMDL
MODEL 8
REMARK VINA RESULT:      -7.6      2.131      4.675
REMARK  Name = 
REMARK  12 active torsions:
REMARK  status: ('A' for Active; 'I' for Inactive)
REMARK    1  A    between atoms: C_2  and  O_3
REMARK    2  A    between atoms: C_2  and  C_4
REMARK    3  A    between atoms: C_4  and  N_5
REMARK    4  A    between atoms: C_6  and  C_8
REMARK    5  A    between atoms: C_11  and  C_12
REMARK    6  A    between atoms: C_17  and  O_18
REMARK    7  A    between atoms: O_18  and  C_19
REMARK    8  A    between atoms: C_21  and  C_22
REMARK    9  A    between atoms: C_22  and  O_23
REMARK   10  A    between atoms: C_24  and  O_25
REMARK   11  A    between atoms: C_26  and  O_27
REMARK   12  A    between atoms: C_28  and  O_29
REMARK                            x       y       z     vdW  Elec       q    Type
REMARK                         _______ _______ _______ _____ _____    ______ ____
ROOT
ATOM      1  C   UNL     1       4.874   6.363  17.400  0.00  0.00    +0.000 A 
ATOM      2  C   UNL     1       6.145   6.957  17.251  0.00  0.00    +0.000 A 
ATOM      3  C   UNL     1       7.245   6.238  16.775  0.00  0.00    +0.000 A 
ATOM      4  C   UNL     1       7.100   4.907  16.413  0.00  0.00    +0.000 A 
ATOM      5  C   UNL     1       5.863   4.283  16.559  0.00  0.00    +0.000 A 
ATOM      6  C   UNL     1       4.764   4.986  17.077  0.00  0.00    +0.000 A 
ENDROOT
BRANCH   1  10
ATOM      7  C   UNL     1       1.547   8.742  18.834  0.00  0.00    +0.000 A 
ATOM      8  C   UNL     1       2.066   7.720  19.623  0.00  0.00    +0.000 A 
ATOM      9  C   UNL     1       3.120   6.938  19.139  0.00  0.00    +0.000 A 
ATOM     10  C   UNL     1       3.718   7.176  17.884  0.00  0.00    +0.000 A 
ATOM     11  C   UNL     1       3.160   8.205  17.103  0.00  0.00    +0.000 A 
ATOM     12  C   UNL     1       2.075   8.967  17.562  0.00  0.00    +0.000 A 
BRANCH   7  14
ATOM     13  N   UNL     1      -0.172  10.401  18.375  0.00  0.00    +0.000 N 
ATOM     14  C   UNL     1       0.411   9.574  19.302  0.00  0.00    +0.000 C 
ATOM     15  O   UNL     1       0.012   9.488  20.460  0.00  0.00    +0.000 OA
ATOM     16  H   UNL     1       0.059  10.333  17.386  0.00  0.00    +0.000 HD
BRANCH  13  17
ATOM     17  C   UNL     1      -1.290  11.238  18.751  0.00  0.00    +0.000 C 
BRANCH  17  19
ATOM     18  O   UNL     1      -2.999   9.763  17.843  0.00  0.00    +0.000 OA
ATOM     19  C   UNL     1      -2.547  10.893  17.969  0.00  0.00    +0.000 C 
BRANCH  19  20
ATOM     20  O   UNL     1      -3.143  11.982  17.417  0.00  0.00    +0.000 OA
ATOM     21  H   UNL     1      -4.092  12.066  17.632  0.00  0.00    +0.000 HD
ENDBRANCH  19  20
ENDBRANCH  17  19
ENDBRANCH  13  17
ENDBRANCH   7  14
ENDBRANCH   1  10
BRANCH   6  22
ATOM     22  O   UNL     1       3.539   4.405  17.273  0.00  0.00    +0.000 OA
BRANCH  22  23
ATOM     23  C   UNL     1       3.366   3.498  18.363  0.00  0.00    +0.000 C 
ATOM     24  O   UNL     1       4.240   3.854  19.441  0.00  0.00    +0.000 OA
ATOM     25  C   UNL     1       4.123   3.035  20.609  0.00  0.00    +0.000 C 
ATOM     26  C   UNL     1       2.688   3.114  21.149  0.00  0.00    +0.000 C 
ATOM     27  C   UNL     1       1.669   2.741  20.067  0.00  0.00    +0.000 C 
ATOM     28  C   UNL     1       1.882   3.578  18.793  0.00  0.00    +0.000 C 
BRANCH  26  29
ATOM     29  O   UNL     1       2.403   4.464  21.573  0.00  0.00    +0.000 OA
ATOM     30  H   UNL     1       1.802   4.416  22.344  0.00  0.00    +0.000 HD
ENDBRANCH  26  29
BRANCH  27  31
ATOM     31  O   UNL     1       0.342   2.934  20.569  0.00  0.00    +0.000 OA
ATOM     32  H   UNL     1      -0.068   2.046  20.602  0.00  0.00    +0.000 HD
ENDBRANCH  27  31
BRANCH  28  33
ATOM     33  O   UNL     1       1.025   3.131  17.727  0.00  0.00    +0.000 OA
ATOM     34  H   UNL     1       0.658   3.905  17.270  0.00  0.00    +0.000 HD
ENDBRANCH  28  33
BRANCH  25  35
ATOM     35  C   UNL     1       4.634   1.610  20.357  0.00  0.00    +0.000 C 
BRANCH  35  36
ATOM     36  O   UNL     1       5.561   1.205  21.348  0.00  0.00    +0.000 OA
ATOM     37  H   UNL     1       6.301   0.752  20.904  0.00  0.00    +0.000 HD
ENDBRANCH  35  36
ENDBRANCH  25  35
ENDBRANCH  22  23
ENDBRANCH   6  22
TORSDOF 12
ENDMDL
MODEL 9
REMARK VINA RESULT:      -7.5      1.383      1.744
REMARK  Name = 
REMARK  12 active torsions:
REMARK  status: ('A' for Active; 'I' for Inactive)
REMARK    1  A    between atoms: C_2  and  O_3
REMARK    2  A    between atoms: C_2  and  C_4
REMARK    3  A    between atoms: C_4  and  N_5
REMARK    4  A    between atoms: C_6  and  C_8
REMARK    5  A    between atoms: C_11  and  C_12
REMARK    6  A    between atoms: C_17  and  O_18
REMARK    7  A    between atoms: O_18  and  C_19
REMARK    8  A    between atoms: C_21  and  C_22
REMARK    9  A    between atoms: C_22  and  O_23
REMARK   10  A    between atoms: C_24  and  O_25
REMARK   11  A    between atoms: C_26  and  O_27
REMARK   12  A    between atoms: C_28  and  O_29
REMARK                            x       y       z     vdW  Elec       q    Type
REMARK                         _______ _______ _______ _____ _____    ______ ____
ROOT
ATOM      1  C   UNL     1       2.224   4.997  19.956  0.00  0.00    +0.000 A 
ATOM      2  C   UNL     1       1.142   4.147  20.270  0.00  0.00    +0.000 A 
ATOM      3  C   UNL     1       1.323   2.785  20.529  0.00  0.00    +0.000 A 
ATOM      4  C   UNL     1       2.598   2.238  20.504  0.00  0.00    +0.000 A 
ATOM      5  C   UNL     1       3.688   3.043  20.184  0.00  0.00    +0.000 A 
ATOM      6  C   UNL     1       3.510   4.402  19.880  0.00  0.00    +0.000 A 
ENDROOT
BRANCH   1  10
ATOM      7  C   UNL     1       1.576   9.229  19.285  0.00  0.00    +0.000 A 
ATOM      8  C   UNL     1       1.294   8.668  20.526  0.00  0.00    +0.000 A 
ATOM      9  C   UNL     1       1.478   7.295  20.724  0.00  0.00    +0.000 A 
ATOM     10  C   UNL     1       1.989   6.452  19.715  0.00  0.00    +0.000 A 
ATOM     11  C   UNL     1       2.248   7.046  18.467  0.00  0.00    +0.000 A 
ATOM     12  C   UNL     1       2.026   8.414  18.245  0.00  0.00    +0.000 A 
BRANCH   7  14
ATOM     13  N   UNL     1       0.589  11.357  19.931  0.00  0.00    +0.000 N 
ATOM     14  C   UNL     1       1.367  10.676  19.029  0.00  0.00    +0.000 C 
ATOM     15  O   UNL     1       1.900  11.221  18.067  0.00  0.00    +0.000 OA
ATOM     16  H   UNL     1       0.299  10.930  20.808  0.00  0.00    +0.000 HD
BRANCH  13  17
ATOM     17  C   UNL     1       0.345  12.771  19.756  0.00  0.00    +0.000 C 
BRANCH  17  19
ATOM     18  O   UNL     1      -2.044  13.211  19.613  0.00  0.00    +0.000 OA
ATOM     19  C   UNL     1      -0.973  13.038  19.046  0.00  0.00    +0.000 C 
BRANCH  19  20
ATOM     20  O   UNL     1      -0.849  13.077  17.694  0.00  0.00    +0.000 OA
ATOM     21  H   UNL     1      -1.683  13.270  17.225  0.00  0.00    +0.000 HD
ENDBRANCH  19  20
ENDBRANCH  17  19
ENDBRANCH  13  17
ENDBRANCH   7  14
ENDBRANCH   1  10
BRANCH   6  22
ATOM     22  O   UNL     1       4.547   5.224  19.525  0.00  0.00    +0.000 OA
BRANCH  22  23
ATOM     23  C   UNL     1       5.246   4.974  18.305  0.00  0.00    +0.000 C 
ATOM     24  O   UNL     1       4.329   4.975  17.205  0.00  0.00    +0.000 OA
ATOM     25  C   UNL     1       4.927   4.774  15.920  0.00  0.00    +0.000 C 
ATOM     26  C   UNL     1       5.952   5.885  15.652  0.00  0.00    +0.000 C 
ATOM     27  C   UNL     1       6.990   5.962  16.776  0.00  0.00    +0.000 C 
ATOM     28  C   UNL     1       6.310   6.086  18.151  0.00  0.00    +0.000 C 
BRANCH  26  29
ATOM     29  O   UNL     1       5.279   7.161  15.588  0.00  0.00    +0.000 OA
ATOM     30  H   UNL     1       5.913   7.849  15.875  0.00  0.00    +0.000 HD
ENDBRANCH  26  29
BRANCH  27  31
ATOM     31  O   UNL     1       7.860   7.078  16.552  0.00  0.00    +0.000 OA
ATOM     32  H   UNL     1       8.351   7.211  17.388  0.00  0.00    +0.000 HD
ENDBRANCH  27  31
BRANCH  28  33
ATOM     33  O   UNL     1       7.274   6.011  19.217  0.00  0.00    +0.000 OA
ATOM     34  H   UNL     1       7.719   5.149  19.181  0.00  0.00    +0.000 HD
ENDBRANCH  28  33
BRANCH  25  35
ATOM     35  C   UNL     1       5.474   3.349  15.765  0.00  0.00    +0.000 C 
BRANCH  35  36
ATOM     36  O   UNL     1       6.290   3.225  14.613  0.00  0.00    +0.000 OA
ATOM     37  H   UNL     1       6.513   4.121  14.303  0.00  0.00    +0.000 HD
ENDBRANCH  35  36
ENDBRANCH  25  35
ENDBRANCH  22  23
ENDBRANCH   6  22
TORSDOF 12
ENDMDL
