MODEL 1
REMARK VINA RESULT:      -7.7      0.000      0.000
REMARK  Name = 
REMARK  6 active torsions:
REMARK  status: ('A' for Active; 'I' for Inactive)
REMARK    1  A    between atoms: C_1  and  C_2
REMARK    2  A    between atoms: C_5  and  S_6
REMARK    3  A    between atoms: S_6  and  C_7
REMARK    4  A    between atoms: C_12  and  N_13
REMARK    5  A    between atoms: N_13  and  S_14
REMARK    6  A    between atoms: S_14  and  C_15
REMARK                            x       y       z     vdW  Elec       q    Type
REMARK                         _______ _______ _______ _____ _____    ______ ____
ROOT
ATOM      1  C   UNL     1       3.619   5.283  18.747  0.00  0.00    +0.000 A 
ATOM      2  C   UNL     1       4.960   5.598  18.489  0.00  0.00    +0.000 A 
ATOM      3  C   UNL     1       5.528   5.118  17.326  0.00  0.00    +0.000 A 
ATOM      4  C   UNL     1       4.821   4.379  16.387  0.00  0.00    +0.000 A 
ATOM      5  C   UNL     1       3.486   4.069  16.620  0.00  0.00    +0.000 A 
ATOM      6  C   UNL     1       2.890   4.482  17.828  0.00  0.00    +0.000 A 
ATOM      7  C   UNL     1       5.676   3.988  15.222  0.00  0.00    +0.000 C 
ATOM      8  C   UNL     1       7.081   4.507  15.578  0.00  0.00    +0.000 C 
ATOM      9  C   UNL     1       6.908   5.244  16.881  0.00  0.00    +0.000 C 
ATOM     10  O   UNL     1       7.778   5.831  17.500  0.00  0.00    +0.000 OA
ENDROOT
BRANCH   6  11
ATOM     11  N   UNL     1       1.563   4.003  18.137  0.00  0.00    +0.000 N 
ATOM     12  H   UNL     1       1.010   4.673  18.672  0.00  0.00    +0.000 HD
BRANCH  11  13
ATOM     13  S   UNL     1       1.397   2.496  18.876  0.00  0.00    +0.000 S 
ATOM     14  C   UNL     1       1.188   2.925  20.593  0.00  0.00    +0.000 C 
ATOM     15  O   UNL     1       0.205   1.838  18.396  0.00  0.00    +0.000 OA
ATOM     16  O   UNL     1       2.703   1.873  18.733  0.00  0.00    +0.000 OA
ENDBRANCH  11  13
ENDBRANCH   6  11
BRANCH   1  17
ATOM     17  S   UNL     1       2.912   5.962  20.234  0.00  0.00    +0.000 S 
BRANCH  17  22
ATOM     18  C   UNL     1       0.824  11.321  18.564  0.00  0.00    +0.000 C 
ATOM     19  C   UNL     1       1.237   9.919  18.881  0.00  0.00    +0.000 A 
ATOM     20  C   UNL     1       1.924   9.131  17.960  0.00  0.00    +0.000 A 
ATOM     21  C   UNL     1       2.371   7.867  18.336  0.00  0.00    +0.000 A 
ATOM     22  C   UNL     1       2.109   7.424  19.626  0.00  0.00    +0.000 A 
ATOM     23  N   UNL     1       1.392   8.140  20.518  0.00  0.00    +0.000 NA
ATOM     24  C   UNL     1       0.972   9.364  20.128  0.00  0.00    +0.000 A 
ENDBRANCH  17  22
ENDBRANCH   1  17
TORSDOF 4
ENDMDL
MODEL 2
REMARK VINA RESULT:      -7.7      1.032      1.134
REMARK  Name = 
REMARK  6 active torsions:
REMARK  status: ('A' for Active; 'I' for Inactive)
REMARK    1  A    between atoms: C_1  and  C_2
REMARK    2  A    between atoms: C_5  and  S_6
REMARK    3  A    between atoms: S_6  and  C_7
REMARK    4  A    between atoms: C_12  and  N_13
REMARK    5  A    between atoms: N_13  and  S_14
REMARK    6  A    between atoms: S_14  and  C_15
REMARK                            x       y       z     vdW  Elec       q    Type
REMARK                         _______ _______ _______ _____ _____    ______ ____
ROOT
ATOM      1  C   UNL     1       4.207   4.875  18.559  0.00  0.00    +0.000 A 
ATOM      2  C   UNL     1       5.248   5.604  17.967  0.00  0.00    +0.000 A 
ATOM      3  C   UNL     1       5.758   5.151  16.767  0.00  0.00    +0.000 A 
ATOM      4  C   UNL     1       5.259   4.037  16.105  0.00  0.00    +0.000 A 
ATOM      5  C   UNL     1       4.218   3.310  16.671  0.00  0.00    +0.000 A 
ATOM      6  C   UNL     1       3.717   3.700  17.929  0.00  0.00    +0.000 A 
ATOM      7  C   UNL     1       5.993   3.770  14.827  0.00  0.00    +0.000 C 
ATOM      8  C   UNL     1       7.111   4.828  14.792  0.00  0.00    +0.000 C 
ATOM      9  C   UNL     1       6.877   5.686  16.007  0.00  0.00    +0.000 C 
ATOM     10  O   UNL     1       7.530   6.659  16.341  0.00  0.00    +0.000 OA
ENDROOT
BRANCH   6  11
ATOM     11  N   UNL     1       2.764   2.836  18.585  0.00  0.00    +0.000 N 
ATOM     12  H   UNL     1       2.882   1.853  18.340  0.00  0.00    +0.000 HD
BRANCH  11  13
ATOM     13  S   UNL     1       1.122   3.201  18.467  0.00  0.00    +0.000 S 
ATOM     14  C   UNL     1       0.740   3.810  20.097  0.00  0.00    +0.000 C 
ATOM     15  O   UNL     1       0.916   4.252  17.500  0.00  0.00    +0.000 OA
ATOM     16  O   UNL     1       0.471   1.909  18.315  0.00  0.00    +0.000 OA
ENDBRANCH  11  13
ENDBRANCH   6  11
BRANCH   1  17
ATOM     17  S   UNL     1       3.546   5.520  20.081  0.00  0.00    +0.000 S 
BRANCH  17  22
ATOM     18  C   UNL     1       0.802  10.586  18.446  0.00  0.00    +0.000 C 
ATOM     19  C   UNL     1       1.376   9.243  18.768  0.00  0.00    +0.000 A 
ATOM     20  C   UNL     1       2.046   8.484  17.810  0.00  0.00    +0.000 A 
ATOM     21  C   UNL     1       2.646   7.284  18.184  0.00  0.00    +0.000 A 
ATOM     22  C   UNL     1       2.552   6.874  19.507  0.00  0.00    +0.000 A 
ATOM     23  N   UNL     1       1.857   7.558  20.440  0.00  0.00    +0.000 NA
ATOM     24  C   UNL     1       1.285   8.719  20.052  0.00  0.00    +0.000 A 
ENDBRANCH  17  22
ENDBRANCH   1  17
TORSDOF 4
ENDMDL
MODEL 3
REMARK VINA RESULT:      -7.7      2.170      4.643
REMARK  Name = 
REMARK  6 active torsions:
REMARK  status: ('A' for Active; 'I' for Inactive)
REMARK    1  A    between atoms: C_1  and  C_2
REMARK    2  A    between atoms: C_5  and  S_6
REMARK    3  A    between atoms: S_6  and  C_7
REMARK    4  A    between atoms: C_12  and  N_13
REMARK    5  A    between atoms: N_13  and  S_14
REMARK    6  A    between atoms: S_14  and  C_15
REMARK                            x       y       z     vdW  Elec       q    Type
REMARK                         _______ _______ _______ _____ _____    ______ ____
ROOT
ATOM      1  C   UNL     1       3.617   5.956  18.018  0.00  0.00    +0.000 A 
ATOM      2  C   UNL     1       2.466   5.157  18.037  0.00  0.00    +0.000 A 
ATOM      3  C   UNL     1       2.592   3.845  18.449  0.00  0.00    +0.000 A 
ATOM      4  C   UNL     1       3.793   3.301  18.883  0.00  0.00    +0.000 A 
ATOM      5  C   UNL     1       4.942   4.083  18.884  0.00  0.00    +0.000 A 
ATOM      6  C   UNL     1       4.868   5.407  18.405  0.00  0.00    +0.000 A 
ATOM      7  C   UNL     1       3.648   1.863  19.273  0.00  0.00    +0.000 C 
ATOM      8  C   UNL     1       2.184   1.516  18.946  0.00  0.00    +0.000 C 
ATOM      9  C   UNL     1       1.570   2.811  18.480  0.00  0.00    +0.000 C 
ATOM     10  O   UNL     1       0.411   2.981  18.145  0.00  0.00    +0.000 OA
ENDROOT
BRANCH   6  11
ATOM     11  N   UNL     1       6.097   6.147  18.243  0.00  0.00    +0.000 N 
ATOM     12  H   UNL     1       5.964   7.158  18.291  0.00  0.00    +0.000 HD
BRANCH  11  13
ATOM     13  S   UNL     1       7.070   5.821  16.906  0.00  0.00    +0.000 S 
ATOM     14  C   UNL     1       5.880   5.384  15.654  0.00  0.00    +0.000 C 
ATOM     15  O   UNL     1       7.776   7.014  16.504  0.00  0.00    +0.000 OA
ATOM     16  O   UNL     1       7.793   4.612  17.267  0.00  0.00    +0.000 OA
ENDBRANCH  11  13
ENDBRANCH   6  11
BRANCH   1  17
ATOM     17  S   UNL     1       3.401   7.654  17.526  0.00  0.00    +0.000 S 
BRANCH  17  22
ATOM     18  C   UNL     1      -0.203   9.974  21.709  0.00  0.00    +0.000 C 
ATOM     19  C   UNL     1       0.564   9.340  20.593  0.00  0.00    +0.000 A 
ATOM     20  C   UNL     1       0.536   9.855  19.298  0.00  0.00    +0.000 A 
ATOM     21  C   UNL     1       1.343   9.286  18.316  0.00  0.00    +0.000 A 
ATOM     22  C   UNL     1       2.151   8.210  18.657  0.00  0.00    +0.000 A 
ATOM     23  N   UNL     1       2.151   7.652  19.887  0.00  0.00    +0.000 NA
ATOM     24  C   UNL     1       1.360   8.224  20.822  0.00  0.00    +0.000 A 
ENDBRANCH  17  22
ENDBRANCH   1  17
TORSDOF 4
ENDMDL
MODEL 4
REMARK VINA RESULT:      -7.6      2.242      4.589
REMARK  Name = 
REMARK  6 active torsions:
REMARK  status: ('A' for Active; 'I' for Inactive)
REMARK    1  A    between atoms: C_1  and  C_2
REMARK    2  A    between atoms: C_5  and  S_6
REMARK    3  A    between atoms: S_6  and  C_7
REMARK    4  A    between atoms: C_12  and  N_13
REMARK    5  A    between atoms: N_13  and  S_14
REMARK    6  A    between atoms: S_14  and  C_15
REMARK                            x       y       z     vdW  Elec       q    Type
REMARK                         _______ _______ _______ _____ _____    ______ ____
ROOT
ATOM      1  C   UNL     1       3.510   5.903  17.736  0.00  0.00    +0.000 A 
ATOM      2  C   UNL     1       2.429   5.359  18.442  0.00  0.00    +0.000 A 
ATOM      3  C   UNL     1       2.395   3.991  18.625  0.00  0.00    +0.000 A 
ATOM      4  C   UNL     1       3.399   3.142  18.179  0.00  0.00    +0.000 A 
ATOM      5  C   UNL     1       4.486   3.667  17.489  0.00  0.00    +0.000 A 
ATOM      6  C   UNL     1       4.523   5.050  17.223  0.00  0.00    +0.000 A 
ATOM      7  C   UNL     1       3.112   1.711  18.510  0.00  0.00    +0.000 C 
ATOM      8  C   UNL     1       1.719   1.735  19.165  0.00  0.00    +0.000 C 
ATOM      9  C   UNL     1       1.350   3.193  19.249  0.00  0.00    +0.000 C 
ATOM     10  O   UNL     1       0.329   3.654  19.728  0.00  0.00    +0.000 OA
ENDROOT
BRANCH   6  11
ATOM     11  N   UNL     1       5.561   5.553  16.354  0.00  0.00    +0.000 N 
ATOM     12  H   UNL     1       5.589   5.081  15.449  0.00  0.00    +0.000 HD
BRANCH  11  13
ATOM     13  S   UNL     1       7.140   5.635  16.938  0.00  0.00    +0.000 S 
ATOM     14  C   UNL     1       6.898   5.769  18.698  0.00  0.00    +0.000 C 
ATOM     15  O   UNL     1       7.843   4.410  16.641  0.00  0.00    +0.000 OA
ATOM     16  O   UNL     1       7.639   6.916  16.463  0.00  0.00    +0.000 OA
ENDBRANCH  11  13
ENDBRANCH   6  11
BRANCH   1  17
ATOM     17  S   UNL     1       3.541   7.676  17.566  0.00  0.00    +0.000 S 
BRANCH  17  22
ATOM     18  C   UNL     1      -0.294   9.851  21.619  0.00  0.00    +0.000 C 
ATOM     19  C   UNL     1       0.536   9.242  20.534  0.00  0.00    +0.000 A 
ATOM     20  C   UNL     1       0.501   9.722  19.226  0.00  0.00    +0.000 A 
ATOM     21  C   UNL     1       1.363   9.185  18.275  0.00  0.00    +0.000 A 
ATOM     22  C   UNL     1       2.234   8.174  18.658  0.00  0.00    +0.000 A 
ATOM     23  N   UNL     1       2.246   7.647  19.901  0.00  0.00    +0.000 NA
ATOM     24  C   UNL     1       1.400   8.188  20.806  0.00  0.00    +0.000 A 
ENDBRANCH  17  22
ENDBRANCH   1  17
TORSDOF 4
ENDMDL
MODEL 5
REMARK VINA RESULT:      -7.5      1.096      1.515
REMARK  Name = 
REMARK  6 active torsions:
REMARK  status: ('A' for Active; 'I' for Inactive)
REMARK    1  A    between atoms: C_1  and  C_2
REMARK    2  A    between atoms: C_5  and  S_6
REMARK    3  A    between atoms: S_6  and  C_7
REMARK    4  A    between atoms: C_12  and  N_13
REMARK    5  A    between atoms: N_13  and  S_14
REMARK    6  A    between atoms: S_14  and  C_15
REMARK                            x       y       z     vdW  Elec       q    Type
REMARK                         _______ _______ _______ _____ _____    ______ ____
ROOT
ATOM      1  C   UNL     1       3.381   5.231  19.268  0.00  0.00    +0.000 A 
ATOM      2  C   UNL     1       4.745   5.550  19.303  0.00  0.00    +0.000 A 
ATOM      3  C   UNL     1       5.533   5.153  18.241  0.00  0.00    +0.000 A 
ATOM      4  C   UNL     1       5.027   4.494  17.129  0.00  0.00    +0.000 A 
ATOM      5  C   UNL     1       3.674   4.182  17.071  0.00  0.00    +0.000 A 
ATOM      6  C   UNL     1       2.849   4.510  18.166  0.00  0.00    +0.000 A 
ATOM      7  C   UNL     1       6.096   4.182  16.128  0.00  0.00    +0.000 C 
ATOM      8  C   UNL     1       7.401   4.659  16.792  0.00  0.00    +0.000 C 
ATOM      9  C   UNL     1       6.972   5.297  18.087  0.00  0.00    +0.000 C 
ATOM     10  O   UNL     1       7.701   5.826  18.908  0.00  0.00    +0.000 OA
ENDROOT
BRANCH   6  11
ATOM     11  N   UNL     1       1.490   4.022  18.171  0.00  0.00    +0.000 N 
ATOM     12  H   UNL     1       0.810   4.736  18.435  0.00  0.00    +0.000 HD
BRANCH  11  13
ATOM     13  S   UNL     1       1.132   2.626  19.046  0.00  0.00    +0.000 S 
ATOM     14  C   UNL     1       2.660   1.713  18.967  0.00  0.00    +0.000 C 
ATOM     15  O   UNL     1       0.843   2.962  20.419  0.00  0.00    +0.000 OA
ATOM     16  O   UNL     1       0.156   1.923  18.228  0.00  0.00    +0.000 OA
ENDBRANCH  11  13
ENDBRANCH   6  11
BRANCH   1  17
ATOM     17  S   UNL     1       2.392   5.804  20.634  0.00  0.00    +0.000 S 
BRANCH  17  22
ATOM     18  C   UNL     1       0.362  11.047  18.570  0.00  0.00    +0.000 C 
ATOM     19  C   UNL     1       0.976   9.822  19.171  0.00  0.00    +0.000 A 
ATOM     20  C   UNL     1       0.798   9.496  20.514  0.00  0.00    +0.000 A 
ATOM     21  C   UNL     1       1.309   8.296  21.002  0.00  0.00    +0.000 A 
ATOM     22  C   UNL     1       1.991   7.458  20.131  0.00  0.00    +0.000 A 
ATOM     23  N   UNL     1       2.232   7.777  18.842  0.00  0.00    +0.000 NA
ATOM     24  C   UNL     1       1.724   8.947  18.393  0.00  0.00    +0.000 A 
ENDBRANCH  17  22
ENDBRANCH   1  17
TORSDOF 4
ENDMDL
MODEL 6
REMARK VINA RESULT:      -7.4      2.261      4.693
REMARK  Name = 
REMARK  6 active torsions:
REMARK  status: ('A' for Active; 'I' for Inactive)
REMARK    1  A    between atoms: C_1  and  C_2
REMARK    2  A    between atoms: C_5  and  S_6
REMARK    3  A    between atoms: S_6  and  C_7
REMARK    4  A    between atoms: C_12  and  N_13
REMARK    5  A    between atoms: N_13  and  S_14
REMARK    6  A    between atoms: S_14  and  C_15
REMARK                            x       y       z     vdW  Elec       q    Type
REMARK                         _______ _______ _______ _____ _____    ______ ____
ROOT
ATOM      1  C   UNL     1       3.312   5.961  17.982  0.00  0.00    +0.000 A 
ATOM      2  C   UNL     1       2.233   5.073  18.081  0.00  0.00    +0.000 A 
ATOM      3  C   UNL     1       2.492   3.777  18.480  0.00  0.00    +0.000 A 
ATOM      4  C   UNL     1       3.761   3.331  18.825  0.00  0.00    +0.000 A 
ATOM      5  C   UNL     1       4.841   4.203  18.746  0.00  0.00    +0.000 A 
ATOM      6  C   UNL     1       4.627   5.515  18.278  0.00  0.00    +0.000 A 
ATOM      7  C   UNL     1       3.759   1.887  19.221  0.00  0.00    +0.000 C 
ATOM      8  C   UNL     1       2.308   1.424  18.998  0.00  0.00    +0.000 C 
ATOM      9  C   UNL     1       1.561   2.664  18.581  0.00  0.00    +0.000 C 
ATOM     10  O   UNL     1       0.371   2.740  18.330  0.00  0.00    +0.000 OA
ENDROOT
BRANCH   6  11
ATOM     11  N   UNL     1       5.778   6.350  18.030  0.00  0.00    +0.000 N 
ATOM     12  H   UNL     1       5.592   7.342  18.179  0.00  0.00    +0.000 HD
BRANCH  11  13
ATOM     13  S   UNL     1       6.592   6.196  16.561  0.00  0.00    +0.000 S 
ATOM     14  C   UNL     1       7.290   4.561  16.671  0.00  0.00    +0.000 C 
ATOM     15  O   UNL     1       5.652   6.246  15.466  0.00  0.00    +0.000 OA
ATOM     16  O   UNL     1       7.686   7.150  16.648  0.00  0.00    +0.000 OA
ENDBRANCH  11  13
ENDBRANCH   6  11
BRANCH   1  17
ATOM     17  S   UNL     1       2.927   7.635  17.511  0.00  0.00    +0.000 S 
BRANCH  17  22
ATOM     18  C   UNL     1      -0.489   9.418  22.097  0.00  0.00    +0.000 C 
ATOM     19  C   UNL     1       0.491   9.011  21.042  0.00  0.00    +0.000 A 
ATOM     20  C   UNL     1       1.279   7.869  21.175  0.00  0.00    +0.000 A 
ATOM     21  C   UNL     1       2.106   7.481  20.124  0.00  0.00    +0.000 A 
ATOM     22  C   UNL     1       2.126   8.253  18.970  0.00  0.00    +0.000 A 
ATOM     23  N   UNL     1       1.421   9.397  18.839  0.00  0.00    +0.000 NA
ATOM     24  C   UNL     1       0.625   9.751  19.873  0.00  0.00    +0.000 A 
ENDBRANCH  17  22
ENDBRANCH   1  17
TORSDOF 4
ENDMDL
MODEL 7
REMARK VINA RESULT:      -7.4      2.898      5.345
REMARK  Name = 
REMARK  6 active torsions:
REMARK  status: ('A' for Active; 'I' for Inactive)
REMARK    1  A    between atoms: C_1  and  C_2
REMARK    2  A    between atoms: C_5  and  S_6
REMARK    3  A    between atoms: S_6  and  C_7
REMARK    4  A    between atoms: C_12  and  N_13
REMARK    5  A    between atoms: N_13  and  S_14
REMARK    6  A    between atoms: S_14  and  C_15
REMARK                            x       y       z     vdW  Elec       q    Type
REMARK                         _______ _______ _______ _____ _____    ______ ____
ROOT
ATOM      1  C   UNL     1       3.838   5.829  18.154  0.00  0.00    +0.000 A 
ATOM      2  C   UNL     1       3.355   7.139  18.034  0.00  0.00    +0.000 A 
ATOM      3  C   UNL     1       2.431   7.579  18.961  0.00  0.00    +0.000 A 
ATOM      4  C   UNL     1       1.996   6.798  20.024  0.00  0.00    +0.000 A 
ATOM      5  C   UNL     1       2.474   5.501  20.166  0.00  0.00    +0.000 A 
ATOM      6  C   UNL     1       3.366   4.992  19.200  0.00  0.00    +0.000 A 
ATOM      7  C   UNL     1       0.997   7.519  20.876  0.00  0.00    +0.000 C 
ATOM      8  C   UNL     1       0.774   8.863  20.160  0.00  0.00    +0.000 C 
ATOM      9  C   UNL     1       1.734   8.855  19.000  0.00  0.00    +0.000 C 
ATOM     10  O   UNL     1       1.896   9.750  18.189  0.00  0.00    +0.000 OA
ENDROOT
BRANCH   6  11
ATOM     11  N   UNL     1       3.714   3.592  19.259  0.00  0.00    +0.000 N 
ATOM     12  H   UNL     1       4.686   3.411  19.006  0.00  0.00    +0.000 HD
BRANCH  11  13
ATOM     13  S   UNL     1       2.753   2.482  18.430  0.00  0.00    +0.000 S 
ATOM     14  C   UNL     1       1.471   2.117  19.612  0.00  0.00    +0.000 C 
ATOM     15  O   UNL     1       2.170   3.104  17.265  0.00  0.00    +0.000 OA
ATOM     16  O   UNL     1       3.588   1.298  18.305  0.00  0.00    +0.000 OA
ENDBRANCH  11  13
ENDBRANCH   6  11
BRANCH   1  17
ATOM     17  S   UNL     1       5.063   5.318  16.967  0.00  0.00    +0.000 S 
BRANCH  17  22
ATOM     18  C   UNL     1       9.134   9.301  18.822  0.00  0.00    +0.000 C 
ATOM     19  C   UNL     1       8.240   8.224  18.295  0.00  0.00    +0.000 A 
ATOM     20  C   UNL     1       8.224   6.946  18.851  0.00  0.00    +0.000 A 
ATOM     21  C   UNL     1       7.306   6.007  18.388  0.00  0.00    +0.000 A 
ATOM     22  C   UNL     1       6.432   6.373  17.373  0.00  0.00    +0.000 A 
ATOM     23  N   UNL     1       6.467   7.583  16.774  0.00  0.00    +0.000 NA
ATOM     24  C   UNL     1       7.366   8.476  17.243  0.00  0.00    +0.000 A 
ENDBRANCH  17  22
ENDBRANCH   1  17
TORSDOF 4
ENDMDL
MODEL 8
REMARK VINA RESULT:      -7.4      0.617      1.033
REMARK  Name = 
REMARK  6 active torsions:
REMARK  status: ('A' for Active; 'I' for Inactive)
REMARK    1  A    between atoms: C_1  and  C_2
REMARK    2  A    between atoms: C_5  and  S_6
REMARK    3  A    between atoms: S_6  and  C_7
REMARK    4  A    between atoms: C_12  and  N_13
REMARK    5  A    between atoms: N_13  and  S_14
REMARK    6  A    between atoms: S_14  and  C_15
REMARK                            x       y       z     vdW  Elec       q    Type
REMARK                         _______ _______ _______ _____ _____    ______ ____
ROOT
ATOM      1  C   UNL     1       3.586   5.224  18.827  0.00  0.00    +0.000 A 
ATOM      2  C   UNL     1       4.929   5.554  18.600  0.00  0.00    +0.000 A 
ATOM      3  C   UNL     1       5.514   5.126  17.425  0.00  0.00    +0.000 A 
ATOM      4  C   UNL     1       4.821   4.425  16.447  0.00  0.00    +0.000 A 
ATOM      5  C   UNL     1       3.485   4.102  16.649  0.00  0.00    +0.000 A 
ATOM      6  C   UNL     1       2.871   4.461  17.866  0.00  0.00    +0.000 A 
ATOM      7  C   UNL     1       5.693   4.086  15.277  0.00  0.00    +0.000 C 
ATOM      8  C   UNL     1       7.091   4.594  15.674  0.00  0.00    +0.000 C 
ATOM      9  C   UNL     1       6.898   5.274  17.004  0.00  0.00    +0.000 C 
ATOM     10  O   UNL     1       7.758   5.837  17.659  0.00  0.00    +0.000 OA
ENDROOT
BRANCH   6  11
ATOM     11  N   UNL     1       1.543   3.965  18.137  0.00  0.00    +0.000 N 
ATOM     12  H   UNL     1       0.970   4.623  18.667  0.00  0.00    +0.000 HD
BRANCH  11  13
ATOM     13  S   UNL     1       1.374   2.447  18.853  0.00  0.00    +0.000 S 
ATOM     14  C   UNL     1       1.183   2.849  20.578  0.00  0.00    +0.000 C 
ATOM     15  O   UNL     1       0.174   1.804  18.373  0.00  0.00    +0.000 OA
ATOM     16  O   UNL     1       2.675   1.819  18.687  0.00  0.00    +0.000 OA
ENDBRANCH  11  13
ENDBRANCH   6  11
BRANCH   1  17
ATOM     17  S   UNL     1       2.858   5.837  20.332  0.00  0.00    +0.000 S 
BRANCH  17  22
ATOM     18  C   UNL     1       0.080  10.730  18.280  0.00  0.00    +0.000 C 
ATOM     19  C   UNL     1       0.873   9.608  18.870  0.00  0.00    +0.000 A 
ATOM     20  C   UNL     1       0.806   9.297  20.227  0.00  0.00    +0.000 A 
ATOM     21  C   UNL     1       1.488   8.184  20.710  0.00  0.00    +0.000 A 
ATOM     22  C   UNL     1       2.227   7.415  19.820  0.00  0.00    +0.000 A 
ATOM     23  N   UNL     1       2.360   7.729  18.514  0.00  0.00    +0.000 NA
ATOM     24  C   UNL     1       1.686   8.814  18.070  0.00  0.00    +0.000 A 
ENDBRANCH  17  22
ENDBRANCH   1  17
TORSDOF 4
ENDMDL
MODEL 9
REMARK VINA RESULT:      -7.4      2.868      5.454
REMARK  Name = 
REMARK  6 active torsions:
REMARK  status: ('A' for Active; 'I' for Inactive)
REMARK    1  A    between atoms: C_1  and  C_2
REMARK    2  A    between atoms: C_5  and  S_6
REMARK    3  A    between atoms: S_6  and  C_7
REMARK    4  A    between atoms: C_12  and  N_13
REMARK    5  A    between atoms: N_13  and  S_14
REMARK    6  A    between atoms: S_14  and  C_15
REMARK                            x       y       z     vdW  Elec       q    Type
REMARK                         _______ _______ _______ _____ _____    ______ ____
ROOT
ATOM      1  C   UNL     1       3.508   5.982  18.297  0.00  0.00    +0.000 A 
ATOM      2  C   UNL     1       3.068   7.292  18.062  0.00  0.00    +0.000 A 
ATOM      3  C   UNL     1       2.201   7.860  18.975  0.00  0.00    +0.000 A 
ATOM      4  C   UNL     1       1.784   7.209  20.128  0.00  0.00    +0.000 A 
ATOM      5  C   UNL     1       2.222   5.914  20.384  0.00  0.00    +0.000 A 
ATOM      6  C   UNL     1       3.052   5.275  19.441  0.00  0.00    +0.000 A 
ATOM      7  C   UNL     1       0.850   8.051  20.941  0.00  0.00    +0.000 C 
ATOM      8  C   UNL     1       0.644   9.324  20.101  0.00  0.00    +0.000 C 
ATOM      9  C   UNL     1       1.553   9.160  18.911  0.00  0.00    +0.000 C 
ATOM     10  O   UNL     1       1.711   9.961  18.006  0.00  0.00    +0.000 OA
ENDROOT
BRANCH   6  11
ATOM     11  N   UNL     1       3.352   3.875  19.629  0.00  0.00    +0.000 N 
ATOM     12  H   UNL     1       4.295   3.624  19.330  0.00  0.00    +0.000 HD
BRANCH  11  13
ATOM     13  S   UNL     1       2.291   2.727  18.997  0.00  0.00    +0.000 S 
ATOM     14  C   UNL     1       3.397   1.528  18.280  0.00  0.00    +0.000 C 
ATOM     15  O   UNL     1       1.537   2.109  20.062  0.00  0.00    +0.000 OA
ATOM     16  O   UNL     1       1.617   3.413  17.906  0.00  0.00    +0.000 OA
ENDBRANCH  11  13
ENDBRANCH   6  11
BRANCH   1  17
ATOM     17  S   UNL     1       4.662   5.306  17.121  0.00  0.00    +0.000 S 
BRANCH  17  22
ATOM     18  C   UNL     1       9.083   9.030  18.686  0.00  0.00    +0.000 C 
ATOM     19  C   UNL     1       8.092   8.008  18.228  0.00  0.00    +0.000 A 
ATOM     20  C   UNL     1       8.013   6.747  18.818  0.00  0.00    +0.000 A 
ATOM     21  C   UNL     1       7.011   5.866  18.421  0.00  0.00    +0.000 A 
ATOM     22  C   UNL     1       6.118   6.270  17.438  0.00  0.00    +0.000 A 
ATOM     23  N   UNL     1       6.210   7.460  16.806  0.00  0.00    +0.000 NA
ATOM     24  C   UNL     1       7.191   8.297  17.211  0.00  0.00    +0.000 A 
ENDBRANCH  17  22
ENDBRANCH   1  17
TORSDOF 4
ENDMDL
