MODEL 1
REMARK VINA RESULT:      -8.0      0.000      0.000
REMARK  Name = 
REMARK  5 active torsions:
REMARK  status: ('A' for Active; 'I' for Inactive)
REMARK    1  A    between atoms: C_1  and  C_2
REMARK    2  A    between atoms: C_2  and  O_3
REMARK    3  A    between atoms: O_3  and  C_4
REMARK    4  A    between atoms: C_4  and  C_6
REMARK    5  A    between atoms: C_17  and  O_18
REMARK                            x       y       z     vdW  Elec       q    Type
REMARK                         _______ _______ _______ _____ _____    ______ ____
ROOT
ATOM      1  C   UNL     1       6.514   4.667  14.804  0.00  0.00    +0.000 A 
ATOM      2  C   UNL     1       5.158   4.358  15.122  0.00  0.00    +0.000 A 
ATOM      3  C   UNL     1       5.114   4.254  16.489  0.00  0.00    +0.000 A 
ATOM      4  C   UNL     1       4.109   3.929  17.492  0.00  0.00    +0.000 A 
ATOM      5  C   UNL     1       2.798   3.580  17.156  0.00  0.00    +0.000 A 
ATOM      6  C   UNL     1       1.887   3.261  18.166  0.00  0.00    +0.000 A 
ATOM      7  C   UNL     1       2.288   3.292  19.504  0.00  0.00    +0.000 A 
ATOM      8 CL   UNL     1       1.158   2.891  20.738  0.00  0.00    +0.000 Cl
ATOM      9  C   UNL     1       3.593   3.641  19.848  0.00  0.00    +0.000 A 
ATOM     10  C   UNL     1       4.516   3.961  18.853  0.00  0.00    +0.000 A 
ATOM     11  N   UNL     1       5.842   4.301  19.246  0.00  0.00    +0.000 NA
ATOM     12  C   UNL     1       6.689   4.559  18.301  0.00  0.00    +0.000 A 
ATOM     13  N   UNL     1       6.385   4.539  16.929  0.00  0.00    +0.000 N 
ATOM     14  N   UNL     1       7.260   4.776  15.923  0.00  0.00    +0.000 NA
ENDROOT
BRANCH   1  15
ATOM     15  C   UNL     1       7.053   4.769  13.441  0.00  0.00    +0.000 C 
ATOM     16  O   UNL     1       8.038   5.458  13.175  0.00  0.00    +0.000 OA
BRANCH  15  17
ATOM     17  O   UNL     1       6.283   4.142  12.503  0.00  0.00    +0.000 OA
BRANCH  17  19
ATOM     18  C   UNL     1       5.825   2.027  11.506  0.00  0.00    +0.000 C 
ATOM     19  C   UNL     1       6.912   3.029  11.856  0.00  0.00    +0.000 C 
ENDBRANCH  17  19
ENDBRANCH  15  17
ENDBRANCH   1  15
BRANCH  12  20
ATOM     20  O   UNL     1       7.963   4.888  18.580  0.00  0.00    +0.000 OA
ATOM     21  H   UNL     1       8.530   4.166  18.266  0.00  0.00    +0.000 HD
ENDBRANCH  12  20
TORSDOF 4
ENDMDL
MODEL 2
REMARK VINA RESULT:      -7.8      2.797      2.904
REMARK  Name = 
REMARK  5 active torsions:
REMARK  status: ('A' for Active; 'I' for Inactive)
REMARK    1  A    between atoms: C_1  and  C_2
REMARK    2  A    between atoms: C_2  and  O_3
REMARK    3  A    between atoms: O_3  and  C_4
REMARK    4  A    between atoms: C_4  and  C_6
REMARK    5  A    between atoms: C_17  and  O_18
REMARK                            x       y       z     vdW  Elec       q    Type
REMARK                         _______ _______ _______ _____ _____    ______ ____
ROOT
ATOM      1  C   UNL     1       5.906   4.967  15.704  0.00  0.00    +0.000 A 
ATOM      2  C   UNL     1       5.118   6.133  15.932  0.00  0.00    +0.000 A 
ATOM      3  C   UNL     1       4.532   5.949  17.160  0.00  0.00    +0.000 A 
ATOM      4  C   UNL     1       3.594   6.677  18.003  0.00  0.00    +0.000 A 
ATOM      5  C   UNL     1       3.012   7.886  17.610  0.00  0.00    +0.000 A 
ATOM      6  C   UNL     1       2.104   8.524  18.457  0.00  0.00    +0.000 A 
ATOM      7  C   UNL     1       1.783   7.954  19.692  0.00  0.00    +0.000 A 
ATOM      8 CL   UNL     1       0.658   8.748  20.725  0.00  0.00    +0.000 Cl
ATOM      9  C   UNL     1       2.359   6.751  20.093  0.00  0.00    +0.000 A 
ATOM     10  C   UNL     1       3.266   6.099  19.259  0.00  0.00    +0.000 A 
ATOM     11  N   UNL     1       3.824   4.866  19.701  0.00  0.00    +0.000 NA
ATOM     12  C   UNL     1       4.636   4.262  18.892  0.00  0.00    +0.000 A 
ATOM     13  N   UNL     1       5.009   4.746  17.627  0.00  0.00    +0.000 N 
ATOM     14  N   UNL     1       5.832   4.120  16.752  0.00  0.00    +0.000 NA
ENDROOT
BRANCH   1  15
ATOM     15  C   UNL     1       6.635   4.677  14.461  0.00  0.00    +0.000 C 
ATOM     16  O   UNL     1       7.609   5.337  14.103  0.00  0.00    +0.000 OA
BRANCH  15  17
ATOM     17  O   UNL     1       6.046   3.707  13.700  0.00  0.00    +0.000 OA
BRANCH  17  19
ATOM     18  C   UNL     1       5.779   2.498  11.664  0.00  0.00    +0.000 C 
ATOM     19  C   UNL     1       6.518   3.635  12.349  0.00  0.00    +0.000 C 
ENDBRANCH  17  19
ENDBRANCH  15  17
ENDBRANCH   1  15
BRANCH  12  20
ATOM     20  O   UNL     1       5.209   3.092  19.226  0.00  0.00    +0.000 OA
ATOM     21  H   UNL     1       5.924   3.282  19.854  0.00  0.00    +0.000 HD
ENDBRANCH  12  20
TORSDOF 4
ENDMDL
MODEL 3
REMARK VINA RESULT:      -7.4      1.941      2.134
REMARK  Name = 
REMARK  5 active torsions:
REMARK  status: ('A' for Active; 'I' for Inactive)
REMARK    1  A    between atoms: C_1  and  C_2
REMARK    2  A    between atoms: C_2  and  O_3
REMARK    3  A    between atoms: O_3  and  C_4
REMARK    4  A    between atoms: C_4  and  C_6
REMARK    5  A    between atoms: C_17  and  O_18
REMARK                            x       y       z     vdW  Elec       q    Type
REMARK                         _______ _______ _______ _____ _____    ______ ____
ROOT
ATOM      1  C   UNL     1       5.749   4.807  15.434  0.00  0.00    +0.000 A 
ATOM      2  C   UNL     1       5.223   3.729  16.206  0.00  0.00    +0.000 A 
ATOM      3  C   UNL     1       4.439   4.313  17.169  0.00  0.00    +0.000 A 
ATOM      4  C   UNL     1       3.643   3.860  18.302  0.00  0.00    +0.000 A 
ATOM      5  C   UNL     1       3.563   2.515  18.673  0.00  0.00    +0.000 A 
ATOM      6  C   UNL     1       2.798   2.148  19.782  0.00  0.00    +0.000 A 
ATOM      7  C   UNL     1       2.117   3.124  20.514  0.00  0.00    +0.000 A 
ATOM      8 CL   UNL     1       1.183   2.660  21.883  0.00  0.00    +0.000 Cl
ATOM      9  C   UNL     1       2.190   4.467  20.150  0.00  0.00    +0.000 A 
ATOM     10  C   UNL     1       2.950   4.852  19.046  0.00  0.00    +0.000 A 
ATOM     11  N   UNL     1       3.008   6.235  18.715  0.00  0.00    +0.000 NA
ATOM     12  C   UNL     1       3.751   6.570  17.707  0.00  0.00    +0.000 A 
ATOM     13  N   UNL     1       4.483   5.665  16.921  0.00  0.00    +0.000 N 
ATOM     14  N   UNL     1       5.288   5.993  15.882  0.00  0.00    +0.000 NA
ENDROOT
BRANCH   1  15
ATOM     15  C   UNL     1       6.731   4.661  14.350  0.00  0.00    +0.000 C 
ATOM     16  O   UNL     1       7.522   5.556  14.056  0.00  0.00    +0.000 OA
BRANCH  15  17
ATOM     17  O   UNL     1       6.581   3.507  13.634  0.00  0.00    +0.000 OA
BRANCH  17  19
ATOM     18  C   UNL     1       5.002   3.328  11.860  0.00  0.00    +0.000 C 
ATOM     19  C   UNL     1       6.432   3.691  12.221  0.00  0.00    +0.000 C 
ENDBRANCH  17  19
ENDBRANCH  15  17
ENDBRANCH   1  15
BRANCH  12  20
ATOM     20  O   UNL     1       3.865   7.853  17.324  0.00  0.00    +0.000 OA
ATOM     21  H   UNL     1       3.735   8.409  18.109  0.00  0.00    +0.000 HD
ENDBRANCH  12  20
TORSDOF 4
ENDMDL
MODEL 4
REMARK VINA RESULT:      -7.4      1.507      1.627
REMARK  Name = 
REMARK  5 active torsions:
REMARK  status: ('A' for Active; 'I' for Inactive)
REMARK    1  A    between atoms: C_1  and  C_2
REMARK    2  A    between atoms: C_2  and  O_3
REMARK    3  A    between atoms: O_3  and  C_4
REMARK    4  A    between atoms: C_4  and  C_6
REMARK    5  A    between atoms: C_17  and  O_18
REMARK                            x       y       z     vdW  Elec       q    Type
REMARK                         _______ _______ _______ _____ _____    ______ ____
ROOT
ATOM      1  C   UNL     1       6.348   4.351  14.019  0.00  0.00    +0.000 A 
ATOM      2  C   UNL     1       5.199   3.924  14.749  0.00  0.00    +0.000 A 
ATOM      3  C   UNL     1       5.268   4.573  15.957  0.00  0.00    +0.000 A 
ATOM      4  C   UNL     1       4.490   4.597  17.188  0.00  0.00    +0.000 A 
ATOM      5  C   UNL     1       3.362   3.795  17.380  0.00  0.00    +0.000 A 
ATOM      6  C   UNL     1       2.671   3.853  18.593  0.00  0.00    +0.000 A 
ATOM      7  C   UNL     1       3.109   4.709  19.606  0.00  0.00    +0.000 A 
ATOM      8 CL   UNL     1       2.254   4.765  21.098  0.00  0.00    +0.000 Cl
ATOM      9  C   UNL     1       4.232   5.513  19.423  0.00  0.00    +0.000 A 
ATOM     10  C   UNL     1       4.935   5.468  18.219  0.00  0.00    +0.000 A 
ATOM     11  N   UNL     1       6.083   6.297  18.076  0.00  0.00    +0.000 NA
ATOM     12  C   UNL     1       6.739   6.210  16.962  0.00  0.00    +0.000 A 
ATOM     13  N   UNL     1       6.386   5.370  15.893  0.00  0.00    +0.000 N 
ATOM     14  N   UNL     1       7.071   5.240  14.731  0.00  0.00    +0.000 NA
ENDROOT
BRANCH   1  15
ATOM     15  C   UNL     1       6.746   3.832  12.703  0.00  0.00    +0.000 C 
ATOM     16  O   UNL     1       7.413   4.495  11.910  0.00  0.00    +0.000 OA
BRANCH  15  17
ATOM     17  O   UNL     1       6.193   2.617  12.409  0.00  0.00    +0.000 OA
BRANCH  17  19
ATOM     18  C   UNL     1       4.138   3.203  11.355  0.00  0.00    +0.000 C 
ATOM     19  C   UNL     1       5.500   2.561  11.156  0.00  0.00    +0.000 C 
ENDBRANCH  17  19
ENDBRANCH  15  17
ENDBRANCH   1  15
BRANCH  12  20
ATOM     20  O   UNL     1       7.836   6.955  16.741  0.00  0.00    +0.000 OA
ATOM     21  H   UNL     1       7.872   7.639  17.428  0.00  0.00    +0.000 HD
ENDBRANCH  12  20
TORSDOF 4
ENDMDL
MODEL 5
REMARK VINA RESULT:      -7.2      3.429      6.243
REMARK  Name = 
REMARK  5 active torsions:
REMARK  status: ('A' for Active; 'I' for Inactive)
REMARK    1  A    between atoms: C_1  and  C_2
REMARK    2  A    between atoms: C_2  and  O_3
REMARK    3  A    between atoms: O_3  and  C_4
REMARK    4  A    between atoms: C_4  and  C_6
REMARK    5  A    between atoms: C_17  and  O_18
REMARK                            x       y       z     vdW  Elec       q    Type
REMARK                         _______ _______ _______ _____ _____    ______ ____
ROOT
ATOM      1  C   UNL     1       4.167   3.642  19.256  0.00  0.00    +0.000 A 
ATOM      2  C   UNL     1       4.025   3.430  17.852  0.00  0.00    +0.000 A 
ATOM      3  C   UNL     1       5.169   3.936  17.286  0.00  0.00    +0.000 A 
ATOM      4  C   UNL     1       5.694   4.105  15.938  0.00  0.00    +0.000 A 
ATOM      5  C   UNL     1       4.972   3.739  14.798  0.00  0.00    +0.000 A 
ATOM      6  C   UNL     1       5.525   3.946  13.533  0.00  0.00    +0.000 A 
ATOM      7  C   UNL     1       6.795   4.515  13.411  0.00  0.00    +0.000 A 
ATOM      8 CL   UNL     1       7.464   4.770  11.846  0.00  0.00    +0.000 Cl
ATOM      9  C   UNL     1       7.524   4.881  14.541  0.00  0.00    +0.000 A 
ATOM     10  C   UNL     1       6.986   4.683  15.813  0.00  0.00    +0.000 A 
ATOM     11  N   UNL     1       7.757   5.082  16.941  0.00  0.00    +0.000 NA
ATOM     12  C   UNL     1       7.220   4.921  18.109  0.00  0.00    +0.000 A 
ATOM     13  N   UNL     1       5.946   4.372  18.333  0.00  0.00    +0.000 N 
ATOM     14  N   UNL     1       5.352   4.221  19.541  0.00  0.00    +0.000 NA
ENDROOT
BRANCH   1  15
ATOM     15  C   UNL     1       3.132   3.349  20.257  0.00  0.00    +0.000 C 
ATOM     16  O   UNL     1       3.284   2.495  21.128  0.00  0.00    +0.000 OA
BRANCH  15  17
ATOM     17  O   UNL     1       1.960   4.016  20.036  0.00  0.00    +0.000 OA
BRANCH  17  19
ATOM     18  C   UNL     1       0.651   2.446  18.813  0.00  0.00    +0.000 C 
ATOM     19  C   UNL     1       0.782   3.205  20.122  0.00  0.00    +0.000 C 
ENDBRANCH  17  19
ENDBRANCH  15  17
ENDBRANCH   1  15
BRANCH  12  20
ATOM     20  O   UNL     1       7.876   5.270  19.230  0.00  0.00    +0.000 OA
ATOM     21  H   UNL     1       8.716   4.785  19.244  0.00  0.00    +0.000 HD
ENDBRANCH  12  20
TORSDOF 4
ENDMDL
MODEL 6
REMARK VINA RESULT:      -7.2      3.581      6.436
REMARK  Name = 
REMARK  5 active torsions:
REMARK  status: ('A' for Active; 'I' for Inactive)
REMARK    1  A    between atoms: C_1  and  C_2
REMARK    2  A    between atoms: C_2  and  O_3
REMARK    3  A    between atoms: O_3  and  C_4
REMARK    4  A    between atoms: C_4  and  C_6
REMARK    5  A    between atoms: C_17  and  O_18
REMARK                            x       y       z     vdW  Elec       q    Type
REMARK                         _______ _______ _______ _____ _____    ______ ____
ROOT
ATOM      1  C   UNL     1       3.579   3.157  19.002  0.00  0.00    +0.000 A 
ATOM      2  C   UNL     1       3.750   3.049  17.590  0.00  0.00    +0.000 A 
ATOM      3  C   UNL     1       4.889   3.758  17.301  0.00  0.00    +0.000 A 
ATOM      4  C   UNL     1       5.635   4.115  16.102  0.00  0.00    +0.000 A 
ATOM      5  C   UNL     1       5.217   3.749  14.819  0.00  0.00    +0.000 A 
ATOM      6  C   UNL     1       5.968   4.140  13.709  0.00  0.00    +0.000 A 
ATOM      7  C   UNL     1       7.133   4.892  13.884  0.00  0.00    +0.000 A 
ATOM      8 CL   UNL     1       8.047   5.372  12.507  0.00  0.00    +0.000 Cl
ATOM      9  C   UNL     1       7.559   5.259  15.159  0.00  0.00    +0.000 A 
ATOM     10  C   UNL     1       6.820   4.879  16.278  0.00  0.00    +0.000 A 
ATOM     11  N   UNL     1       7.283   5.284  17.562  0.00  0.00    +0.000 NA
ATOM     12  C   UNL     1       6.559   4.949  18.584  0.00  0.00    +0.000 A 
ATOM     13  N   UNL     1       5.368   4.209  18.508  0.00  0.00    +0.000 N 
ATOM     14  N   UNL     1       4.580   3.872  19.557  0.00  0.00    +0.000 NA
ENDROOT
BRANCH   1  15
ATOM     15  C   UNL     1       2.426   2.636  19.749  0.00  0.00    +0.000 C 
ATOM     16  O   UNL     1       1.789   1.654  19.372  0.00  0.00    +0.000 OA
BRANCH  15  17
ATOM     17  O   UNL     1       2.065   3.422  20.807  0.00  0.00    +0.000 OA
BRANCH  17  19
ATOM     18  C   UNL     1       1.704   5.771  20.640  0.00  0.00    +0.000 C 
ATOM     19  C   UNL     1       1.061   4.401  20.513  0.00  0.00    +0.000 C 
ENDBRANCH  17  19
ENDBRANCH  15  17
ENDBRANCH   1  15
BRANCH  12  20
ATOM     20  O   UNL     1       6.920   5.290  19.833  0.00  0.00    +0.000 OA
ATOM     21  H   UNL     1       7.639   4.698  20.105  0.00  0.00    +0.000 HD
ENDBRANCH  12  20
TORSDOF 4
ENDMDL
MODEL 7
REMARK VINA RESULT:      -7.1      1.412      1.412
REMARK  Name = 
REMARK  5 active torsions:
REMARK  status: ('A' for Active; 'I' for Inactive)
REMARK    1  A    between atoms: C_1  and  C_2
REMARK    2  A    between atoms: C_2  and  O_3
REMARK    3  A    between atoms: O_3  and  C_4
REMARK    4  A    between atoms: C_4  and  C_6
REMARK    5  A    between atoms: C_17  and  O_18
REMARK                            x       y       z     vdW  Elec       q    Type
REMARK                         _______ _______ _______ _____ _____    ______ ____
ROOT
ATOM      1  C   UNL     1       6.924   4.923  14.444  0.00  0.00    +0.000 A 
ATOM      2  C   UNL     1       5.625   5.308  14.891  0.00  0.00    +0.000 A 
ATOM      3  C   UNL     1       5.634   5.126  16.252  0.00  0.00    +0.000 A 
ATOM      4  C   UNL     1       4.679   5.265  17.343  0.00  0.00    +0.000 A 
ATOM      5  C   UNL     1       3.351   5.647  17.134  0.00  0.00    +0.000 A 
ATOM      6  C   UNL     1       2.480   5.743  18.222  0.00  0.00    +0.000 A 
ATOM      7  C   UNL     1       2.939   5.458  19.510  0.00  0.00    +0.000 A 
ATOM      8 CL   UNL     1       1.854   5.573  20.841  0.00  0.00    +0.000 Cl
ATOM      9  C   UNL     1       4.262   5.078  19.728  0.00  0.00    +0.000 A 
ATOM     10  C   UNL     1       5.144   4.976  18.654  0.00  0.00    +0.000 A 
ATOM     11  N   UNL     1       6.484   4.573  18.917  0.00  0.00    +0.000 NA
ATOM     12  C   UNL     1       7.275   4.451  17.897  0.00  0.00    +0.000 A 
ATOM     13  N   UNL     1       6.903   4.700  16.566  0.00  0.00    +0.000 N 
ATOM     14  N   UNL     1       7.702   4.552  15.482  0.00  0.00    +0.000 NA
ENDROOT
BRANCH   1  15
ATOM     15  C   UNL     1       7.340   4.856  13.037  0.00  0.00    +0.000 C 
ATOM     16  O   UNL     1       7.830   5.820  12.450  0.00  0.00    +0.000 OA
BRANCH  15  17
ATOM     17  O   UNL     1       7.008   3.678  12.428  0.00  0.00    +0.000 OA
BRANCH  17  19
ATOM     18  C   UNL     1       5.424   2.165  11.491  0.00  0.00    +0.000 C 
ATOM     19  C   UNL     1       5.603   3.487  12.216  0.00  0.00    +0.000 C 
ENDBRANCH  17  19
ENDBRANCH  15  17
ENDBRANCH   1  15
BRANCH  12  20
ATOM     20  O   UNL     1       8.556   4.075  18.053  0.00  0.00    +0.000 OA
ATOM     21  H   UNL     1       9.113   4.727  17.598  0.00  0.00    +0.000 HD
ENDBRANCH  12  20
TORSDOF 4
ENDMDL
MODEL 8
REMARK VINA RESULT:      -6.9      6.499      8.193
REMARK  Name = 
REMARK  5 active torsions:
REMARK  status: ('A' for Active; 'I' for Inactive)
REMARK    1  A    between atoms: C_1  and  C_2
REMARK    2  A    between atoms: C_2  and  O_3
REMARK    3  A    between atoms: O_3  and  C_4
REMARK    4  A    between atoms: C_4  and  C_6
REMARK    5  A    between atoms: C_17  and  O_18
REMARK                            x       y       z     vdW  Elec       q    Type
REMARK                         _______ _______ _______ _____ _____    ______ ____
ROOT
ATOM      1  C   UNL     1       2.470   6.732  19.651  0.00  0.00    +0.000 A 
ATOM      2  C   UNL     1       1.703   7.113  20.791  0.00  0.00    +0.000 A 
ATOM      3  C   UNL     1       1.236   8.374  20.516  0.00  0.00    +0.000 A 
ATOM      4  C   UNL     1       0.445   9.382  21.209  0.00  0.00    +0.000 A 
ATOM      5  C   UNL     1      -0.023   9.203  22.514  0.00  0.00    +0.000 A 
ATOM      6  C   UNL     1      -0.760  10.218  23.129  0.00  0.00    +0.000 A 
ATOM      7  C   UNL     1      -1.026  11.403  22.439  0.00  0.00    +0.000 A 
ATOM      8 CL   UNL     1      -1.930  12.649  23.211  0.00  0.00    +0.000 Cl
ATOM      9  C   UNL     1      -0.566  11.589  21.138  0.00  0.00    +0.000 A 
ATOM     10  C   UNL     1       0.173  10.588  20.508  0.00  0.00    +0.000 A 
ATOM     11  N   UNL     1       0.636  10.822  19.183  0.00  0.00    +0.000 NA
ATOM     12  C   UNL     1       1.350   9.891  18.634  0.00  0.00    +0.000 A 
ATOM     13  N   UNL     1       1.683   8.673  19.250  0.00  0.00    +0.000 N 
ATOM     14  N   UNL     1       2.451   7.698  18.709  0.00  0.00    +0.000 NA
ENDROOT
BRANCH   1  15
ATOM     15  C   UNL     1       3.251   5.491  19.542  0.00  0.00    +0.000 C 
ATOM     16  O   UNL     1       4.474   5.495  19.410  0.00  0.00    +0.000 OA
BRANCH  15  17
ATOM     17  O   UNL     1       2.478   4.367  19.471  0.00  0.00    +0.000 OA
BRANCH  17  19
ATOM     18  C   UNL     1       1.280   3.018  21.027  0.00  0.00    +0.000 C 
ATOM     19  C   UNL     1       2.658   3.444  20.552  0.00  0.00    +0.000 C 
ENDBRANCH  17  19
ENDBRANCH  15  17
ENDBRANCH   1  15
BRANCH  12  20
ATOM     20  O   UNL     1       1.829  10.027  17.385  0.00  0.00    +0.000 OA
ATOM     21  H   UNL     1       1.484   9.292  16.854  0.00  0.00    +0.000 HD
ENDBRANCH  12  20
TORSDOF 4
ENDMDL
MODEL 9
REMARK VINA RESULT:      -6.9      3.522      6.315
REMARK  Name = 
REMARK  5 active torsions:
REMARK  status: ('A' for Active; 'I' for Inactive)
REMARK    1  A    between atoms: C_1  and  C_2
REMARK    2  A    between atoms: C_2  and  O_3
REMARK    3  A    between atoms: O_3  and  C_4
REMARK    4  A    between atoms: C_4  and  C_6
REMARK    5  A    between atoms: C_17  and  O_18
REMARK                            x       y       z     vdW  Elec       q    Type
REMARK                         _______ _______ _______ _____ _____    ______ ____
ROOT
ATOM      1  C   UNL     1       3.710   5.033  19.463  0.00  0.00    +0.000 A 
ATOM      2  C   UNL     1       3.555   4.729  18.077  0.00  0.00    +0.000 A 
ATOM      3  C   UNL     1       4.817   4.795  17.542  0.00  0.00    +0.000 A 
ATOM      4  C   UNL     1       5.413   4.651  16.221  0.00  0.00    +0.000 A 
ATOM      5  C   UNL     1       4.650   4.407  15.075  0.00  0.00    +0.000 A 
ATOM      6  C   UNL     1       5.282   4.299  13.835  0.00  0.00    +0.000 A 
ATOM      7  C   UNL     1       6.669   4.432  13.743  0.00  0.00    +0.000 A 
ATOM      8 CL   UNL     1       7.435   4.303  12.207  0.00  0.00    +0.000 Cl
ATOM      9  C   UNL     1       7.438   4.673  14.880  0.00  0.00    +0.000 A 
ATOM     10  C   UNL     1       6.824   4.786  16.127  0.00  0.00    +0.000 A 
ATOM     11  N   UNL     1       7.644   5.044  17.262  0.00  0.00    +0.000 NA
ATOM     12  C   UNL     1       7.045   5.180  18.404  0.00  0.00    +0.000 A 
ATOM     13  N   UNL     1       5.657   5.078  18.593  0.00  0.00    +0.000 N 
ATOM     14  N   UNL     1       5.007   5.245  19.770  0.00  0.00    +0.000 NA
ENDROOT
BRANCH   1  15
ATOM     15  C   UNL     1       2.603   5.181  20.417  0.00  0.00    +0.000 C 
ATOM     16  O   UNL     1       1.845   6.151  20.399  0.00  0.00    +0.000 OA
BRANCH  15  17
ATOM     17  O   UNL     1       2.590   4.219  21.387  0.00  0.00    +0.000 OA
BRANCH  17  19
ATOM     18  C   UNL     1       0.999   2.790  20.336  0.00  0.00    +0.000 C 
ATOM     19  C   UNL     1       2.405   2.882  20.905  0.00  0.00    +0.000 C 
ENDBRANCH  17  19
ENDBRANCH  15  17
ENDBRANCH   1  15
BRANCH  12  20
ATOM     20  O   UNL     1       7.741   5.426  19.528  0.00  0.00    +0.000 OA
ATOM     21  H   UNL     1       8.399   6.109  19.324  0.00  0.00    +0.000 HD
ENDBRANCH  12  20
TORSDOF 4
ENDMDL
