MODEL 1
REMARK VINA RESULT:      -8.4      0.000      0.000
REMARK  Name = 
REMARK  11 active torsions:
REMARK  status: ('A' for Active; 'I' for Inactive)
REMARK    1  A    between atoms: C_1  and  C_2
REMARK    2  A    between atoms: C_2  and  C_4
REMARK    3  A    between atoms: C_5  and  O_6
REMARK    4  A    between atoms: C_8  and  O_9
REMARK    5  A    between atoms: C_8  and  N_10
REMARK    6  A    between atoms: N_10  and  C_11
REMARK    7  A    between atoms: C_14  and  O_15
REMARK    8  A    between atoms: C_16  and  N_17
REMARK    9  A    between atoms: C_18  and  C_20
REMARK   10  A    between atoms: C_20  and  C_21
REMARK   11  A    between atoms: C_20  and  C_22
REMARK                            x       y       z     vdW  Elec       q    Type
REMARK                         _______ _______ _______ _____ _____    ______ ____
ROOT
ATOM      1  N   UNL     1       3.070   6.365  18.468  0.00  0.00    +0.000 N 
ATOM      2  H   UNL     1       2.491   5.854  19.138  0.00  0.00    +0.000 HD
ENDROOT
BRANCH   1   6
ATOM      3  C   UNL     1       0.623  10.480  19.461  0.00  0.00    +0.000 C 
ATOM      4  C   UNL     1       1.415   9.766  18.648  0.00  0.00    +0.000 C 
ATOM      5  C   UNL     1       1.883   8.437  19.000  0.00  0.00    +0.000 C 
ATOM      6  C   UNL     1       2.658   7.655  18.197  0.00  0.00    +0.000 C 
ATOM      7  C   UNL     1       1.460   7.900  20.324  0.00  0.00    +0.000 C 
ATOM      8  O   UNL     1       1.806   6.797  20.727  0.00  0.00    +0.000 OA
ATOM      9  O   UNL     1       0.659   8.673  21.091  0.00  0.00    +0.000 OA
ATOM     10  C   UNL     1       0.215   9.895  20.737  0.00  0.00    +0.000 C 
ATOM     11  O   UNL     1      -0.537  10.509  21.488  0.00  0.00    +0.000 OA
BRANCH   3  13
ATOM     12  C   UNL     1      -1.182  12.092  18.497  0.00  0.00    +0.000 C 
ATOM     13  C   UNL     1       0.209  11.847  19.014  0.00  0.00    +0.000 C 
ATOM     14  O   UNL     1       0.991  12.790  19.165  0.00  0.00    +0.000 OA
ENDBRANCH   3  13
BRANCH   4  15
ATOM     15  O   UNL     1       1.853  10.232  17.411  0.00  0.00    +0.000 OA
ATOM     16  H   UNL     1       1.676  11.204  17.348  0.00  0.00    +0.000 HD
ENDBRANCH   4  15
BRANCH   6  17
ATOM     17  O   UNL     1       3.053   8.102  16.942  0.00  0.00    +0.000 OA
ATOM     18  H   UNL     1       3.043   9.077  16.945  0.00  0.00    +0.000 HD
ENDBRANCH   6  17
ENDBRANCH   1   6
BRANCH   1  19
ATOM     19  C   UNL     1       4.262   5.700  18.113  0.00  0.00    +0.000 A 
ATOM     20  C   UNL     1       5.251   5.552  19.091  0.00  0.00    +0.000 A 
ATOM     21  C   UNL     1       6.474   4.956  18.784  0.00  0.00    +0.000 A 
ATOM     22  C   UNL     1       6.715   4.484  17.492  0.00  0.00    +0.000 A 
ATOM     23  C   UNL     1       5.705   4.483  16.525  0.00  0.00    +0.000 A 
ATOM     24  C   UNL     1       4.491   5.117  16.852  0.00  0.00    +0.000 A 
BRANCH  23  25
ATOM     25  N   UNL     1       5.801   3.910  15.227  0.00  0.00    +0.000 N 
ATOM     26  C   UNL     1       6.426   4.446  14.110  0.00  0.00    +0.000 C 
ATOM     27  O   UNL     1       7.098   5.475  14.067  0.00  0.00    +0.000 OA
ATOM     28  H   UNL     1       5.540   2.935  15.167  0.00  0.00    +0.000 HD
BRANCH  26  29
ATOM     29  C   UNL     1       6.343   3.569  12.851  0.00  0.00    +0.000 C 
ATOM     30  C   UNL     1       4.908   3.453  12.345  0.00  0.00    +0.000 C 
ATOM     31  C   UNL     1       7.286   4.018  11.739  0.00  0.00    +0.000 C 
ENDBRANCH  26  29
ENDBRANCH  23  25
BRANCH  22  32
ATOM     32  O   UNL     1       8.003   4.171  17.173  0.00  0.00    +0.000 OA
ATOM     33  H   UNL     1       8.073   3.205  17.107  0.00  0.00    +0.000 HD
ENDBRANCH  22  32
ENDBRANCH   1  19
TORSDOF 8
ENDMDL
MODEL 2
REMARK VINA RESULT:      -8.2      1.030      2.334
REMARK  Name = 
REMARK  11 active torsions:
REMARK  status: ('A' for Active; 'I' for Inactive)
REMARK    1  A    between atoms: C_1  and  C_2
REMARK    2  A    between atoms: C_2  and  C_4
REMARK    3  A    between atoms: C_5  and  O_6
REMARK    4  A    between atoms: C_8  and  O_9
REMARK    5  A    between atoms: C_8  and  N_10
REMARK    6  A    between atoms: N_10  and  C_11
REMARK    7  A    between atoms: C_14  and  O_15
REMARK    8  A    between atoms: C_16  and  N_17
REMARK    9  A    between atoms: C_18  and  C_20
REMARK   10  A    between atoms: C_20  and  C_21
REMARK   11  A    between atoms: C_20  and  C_22
REMARK                            x       y       z     vdW  Elec       q    Type
REMARK                         _______ _______ _______ _____ _____    ______ ____
ROOT
ATOM      1  N   UNL     1       3.084   6.619  18.039  0.00  0.00    +0.000 N 
ATOM      2  H   UNL     1       2.504   6.794  17.215  0.00  0.00    +0.000 HD
ENDROOT
BRANCH   1   6
ATOM      3  C   UNL     1       0.838   9.744  21.055  0.00  0.00    +0.000 C 
ATOM      4  C   UNL     1       1.391   8.545  20.825  0.00  0.00    +0.000 C 
ATOM      5  C   UNL     1       1.915   8.174  19.523  0.00  0.00    +0.000 C 
ATOM      6  C   UNL     1       2.519   6.985  19.245  0.00  0.00    +0.000 C 
ATOM      7  C   UNL     1       1.794   9.184  18.434  0.00  0.00    +0.000 C 
ATOM      8  O   UNL     1       2.190   8.972  17.294  0.00  0.00    +0.000 OA
ATOM      9  O   UNL     1       1.229  10.373  18.737  0.00  0.00    +0.000 OA
ATOM     10  C   UNL     1       0.769  10.709  19.958  0.00  0.00    +0.000 C 
ATOM     11  O   UNL     1       0.300  11.827  20.144  0.00  0.00    +0.000 OA
BRANCH   3  13
ATOM     12  C   UNL     1      -1.081  10.561  22.616  0.00  0.00    +0.000 C 
ATOM     13  C   UNL     1       0.311  10.024  22.427  0.00  0.00    +0.000 C 
ATOM     14  O   UNL     1       0.998   9.718  23.407  0.00  0.00    +0.000 OA
ENDBRANCH   3  13
BRANCH   4  15
ATOM     15  O   UNL     1       1.508   7.562  21.805  0.00  0.00    +0.000 OA
ATOM     16  H   UNL     1       0.845   7.733  22.518  0.00  0.00    +0.000 HD
ENDBRANCH   4  15
BRANCH   6  17
ATOM     17  O   UNL     1       2.679   6.024  20.236  0.00  0.00    +0.000 OA
ATOM     18  H   UNL     1       3.464   6.255  20.766  0.00  0.00    +0.000 HD
ENDBRANCH   6  17
ENDBRANCH   1   6
BRANCH   1  19
ATOM     19  C   UNL     1       4.255   5.879  17.772  0.00  0.00    +0.000 A 
ATOM     20  C   UNL     1       5.173   5.700  18.812  0.00  0.00    +0.000 A 
ATOM     21  C   UNL     1       6.376   5.029  18.593  0.00  0.00    +0.000 A 
ATOM     22  C   UNL     1       6.666   4.513  17.329  0.00  0.00    +0.000 A 
ATOM     23  C   UNL     1       5.719   4.545  16.302  0.00  0.00    +0.000 A 
ATOM     24  C   UNL     1       4.525   5.255  16.540  0.00  0.00    +0.000 A 
BRANCH  23  25
ATOM     25  N   UNL     1       5.860   3.936  15.024  0.00  0.00    +0.000 N 
ATOM     26  C   UNL     1       6.529   4.439  13.918  0.00  0.00    +0.000 C 
ATOM     27  O   UNL     1       7.209   5.462  13.872  0.00  0.00    +0.000 OA
ATOM     28  H   UNL     1       5.595   2.962  14.981  0.00  0.00    +0.000 HD
BRANCH  26  29
ATOM     29  C   UNL     1       6.489   3.528  12.681  0.00  0.00    +0.000 C 
ATOM     30  C   UNL     1       5.059   3.325  12.184  0.00  0.00    +0.000 C 
ATOM     31  C   UNL     1       7.403   3.998  11.554  0.00  0.00    +0.000 C 
ENDBRANCH  26  29
ENDBRANCH  23  25
BRANCH  22  32
ATOM     32  O   UNL     1       7.951   4.120  17.097  0.00  0.00    +0.000 OA
ATOM     33  H   UNL     1       8.260   4.552  16.285  0.00  0.00    +0.000 HD
ENDBRANCH  22  32
ENDBRANCH   1  19
TORSDOF 8
ENDMDL
MODEL 3
REMARK VINA RESULT:      -7.8      2.460      4.003
REMARK  Name = 
REMARK  11 active torsions:
REMARK  status: ('A' for Active; 'I' for Inactive)
REMARK    1  A    between atoms: C_1  and  C_2
REMARK    2  A    between atoms: C_2  and  C_4
REMARK    3  A    between atoms: C_5  and  O_6
REMARK    4  A    between atoms: C_8  and  O_9
REMARK    5  A    between atoms: C_8  and  N_10
REMARK    6  A    between atoms: N_10  and  C_11
REMARK    7  A    between atoms: C_14  and  O_15
REMARK    8  A    between atoms: C_16  and  N_17
REMARK    9  A    between atoms: C_18  and  C_20
REMARK   10  A    between atoms: C_20  and  C_21
REMARK   11  A    between atoms: C_20  and  C_22
REMARK                            x       y       z     vdW  Elec       q    Type
REMARK                         _______ _______ _______ _____ _____    ______ ____
ROOT
ATOM      1  N   UNL     1       1.759   8.197  19.888  0.00  0.00    +0.000 N 
ATOM      2  H   UNL     1       1.716   8.645  18.969  0.00  0.00    +0.000 HD
ENDROOT
BRANCH   1   6
ATOM      3  C   UNL     1      -1.104  11.713  21.717  0.00  0.00    +0.000 C 
ATOM      4  C   UNL     1      -0.241  10.704  21.901  0.00  0.00    +0.000 C 
ATOM      5  C   UNL     1       0.284   9.927  20.793  0.00  0.00    +0.000 C 
ATOM      6  C   UNL     1       1.190   8.917  20.920  0.00  0.00    +0.000 C 
ATOM      7  C   UNL     1      -0.194  10.288  19.428  0.00  0.00    +0.000 C 
ATOM      8  O   UNL     1       0.173   9.691  18.424  0.00  0.00    +0.000 OA
ATOM      9  O   UNL     1      -1.061  11.319  19.316  0.00  0.00    +0.000 OA
ATOM     10  C   UNL     1      -1.519  12.044  20.355  0.00  0.00    +0.000 C 
ATOM     11  O   UNL     1      -2.281  12.984  20.150  0.00  0.00    +0.000 OA
BRANCH   3  13
ATOM     12  C   UNL     1      -2.975  12.166  23.473  0.00  0.00    +0.000 C 
ATOM     13  C   UNL     1      -1.600  12.442  22.926  0.00  0.00    +0.000 C 
ATOM     14  O   UNL     1      -0.834  13.202  23.526  0.00  0.00    +0.000 OA
ENDBRANCH   3  13
BRANCH   4  15
ATOM     15  O   UNL     1       0.220  10.317  23.157  0.00  0.00    +0.000 OA
ATOM     16  H   UNL     1      -0.210   9.463  23.412  0.00  0.00    +0.000 HD
ENDBRANCH   4  15
BRANCH   6  17
ATOM     17  O   UNL     1       1.685   8.564  22.169  0.00  0.00    +0.000 OA
ATOM     18  H   UNL     1       1.143   7.835  22.522  0.00  0.00    +0.000 HD
ENDBRANCH   6  17
ENDBRANCH   1   6
BRANCH   1  19
ATOM     19  C   UNL     1       2.228   6.868  19.858  0.00  0.00    +0.000 A 
ATOM     20  C   UNL     1       1.531   5.906  20.597  0.00  0.00    +0.000 A 
ATOM     21  C   UNL     1       1.981   4.587  20.655  0.00  0.00    +0.000 A 
ATOM     22  C   UNL     1       3.131   4.212  19.958  0.00  0.00    +0.000 A 
ATOM     23  C   UNL     1       3.775   5.104  19.096  0.00  0.00    +0.000 A 
ATOM     24  C   UNL     1       3.319   6.436  19.079  0.00  0.00    +0.000 A 
BRANCH  23  25
ATOM     25  N   UNL     1       4.869   4.789  18.242  0.00  0.00    +0.000 N 
ATOM     26  C   UNL     1       4.825   4.146  17.014  0.00  0.00    +0.000 C 
ATOM     27  O   UNL     1       3.816   3.818  16.392  0.00  0.00    +0.000 OA
ATOM     28  H   UNL     1       5.742   5.241  18.479  0.00  0.00    +0.000 HD
BRANCH  26  29
ATOM     29  C   UNL     1       6.195   3.954  16.346  0.00  0.00    +0.000 C 
ATOM     30  C   UNL     1       6.153   4.335  14.869  0.00  0.00    +0.000 C 
ATOM     31  C   UNL     1       7.326   4.676  17.070  0.00  0.00    +0.000 C 
ENDBRANCH  26  29
ENDBRANCH  23  25
BRANCH  22  32
ATOM     32  O   UNL     1       3.679   3.002  20.266  0.00  0.00    +0.000 OA
ATOM     33  H   UNL     1       4.179   2.690  19.495  0.00  0.00    +0.000 HD
ENDBRANCH  22  32
ENDBRANCH   1  19
TORSDOF 8
ENDMDL
MODEL 4
REMARK VINA RESULT:      -7.7      2.164      3.132
REMARK  Name = 
REMARK  11 active torsions:
REMARK  status: ('A' for Active; 'I' for Inactive)
REMARK    1  A    between atoms: C_1  and  C_2
REMARK    2  A    between atoms: C_2  and  C_4
REMARK    3  A    between atoms: C_5  and  O_6
REMARK    4  A    between atoms: C_8  and  O_9
REMARK    5  A    between atoms: C_8  and  N_10
REMARK    6  A    between atoms: N_10  and  C_11
REMARK    7  A    between atoms: C_14  and  O_15
REMARK    8  A    between atoms: C_16  and  N_17
REMARK    9  A    between atoms: C_18  and  C_20
REMARK   10  A    between atoms: C_20  and  C_21
REMARK   11  A    between atoms: C_20  and  C_22
REMARK                            x       y       z     vdW  Elec       q    Type
REMARK                         _______ _______ _______ _____ _____    ______ ____
ROOT
ATOM      1  N   UNL     1       1.983   7.397  20.519  0.00  0.00    +0.000 N 
ATOM      2  H   UNL     1       2.116   7.655  21.501  0.00  0.00    +0.000 HD
ENDROOT
BRANCH   1   6
ATOM      3  C   UNL     1      -0.506  11.488  19.532  0.00  0.00    +0.000 C 
ATOM      4  C   UNL     1       0.301  10.493  19.135  0.00  0.00    +0.000 C 
ATOM      5  C   UNL     1       0.774   9.472  20.051  0.00  0.00    +0.000 C 
ATOM      6  C   UNL     1       1.565   8.421  19.693  0.00  0.00    +0.000 C 
ATOM      7  C   UNL     1       0.337   9.583  21.471  0.00  0.00    +0.000 C 
ATOM      8  O   UNL     1       0.687   8.784  22.331  0.00  0.00    +0.000 OA
ATOM      9  O   UNL     1      -0.479  10.609  21.801  0.00  0.00    +0.000 OA
ATOM     10  C   UNL     1      -0.927  11.535  20.931  0.00  0.00    +0.000 C 
ATOM     11  O   UNL     1      -1.692  12.412  21.319  0.00  0.00    +0.000 OA
BRANCH   3  13
ATOM     12  C   UNL     1      -0.299  13.871  18.500  0.00  0.00    +0.000 C 
ATOM     13  C   UNL     1      -0.924  12.502  18.514  0.00  0.00    +0.000 C 
ATOM     14  O   UNL     1      -1.717  12.171  17.628  0.00  0.00    +0.000 OA
ENDBRANCH   3  13
BRANCH   4  15
ATOM     15  O   UNL     1       0.752  10.358  17.824  0.00  0.00    +0.000 OA
ATOM     16  H   UNL     1       1.146  11.215  17.525  0.00  0.00    +0.000 HD
ENDBRANCH   4  15
BRANCH   6  17
ATOM     17  O   UNL     1       1.973   8.260  18.375  0.00  0.00    +0.000 OA
ATOM     18  H   UNL     1       2.280   7.342  18.256  0.00  0.00    +0.000 HD
ENDBRANCH   6  17
ENDBRANCH   1   6
BRANCH   1  19
ATOM     19  C   UNL     1       2.432   6.098  20.200  0.00  0.00    +0.000 A 
ATOM     20  C   UNL     1       1.632   5.014  20.576  0.00  0.00    +0.000 A 
ATOM     21  C   UNL     1       2.051   3.704  20.341  0.00  0.00    +0.000 A 
ATOM     22  C   UNL     1       3.273   3.465  19.711  0.00  0.00    +0.000 A 
ATOM     23  C   UNL     1       4.035   4.517  19.194  0.00  0.00    +0.000 A 
ATOM     24  C   UNL     1       3.605   5.830  19.470  0.00  0.00    +0.000 A 
BRANCH  23  25
ATOM     25  N   UNL     1       5.223   4.379  18.423  0.00  0.00    +0.000 N 
ATOM     26  C   UNL     1       5.331   4.303  17.042  0.00  0.00    +0.000 C 
ATOM     27  O   UNL     1       4.422   4.441  16.225  0.00  0.00    +0.000 OA
ATOM     28  H   UNL     1       6.083   4.532  18.931  0.00  0.00    +0.000 HD
BRANCH  26  29
ATOM     29  C   UNL     1       6.769   4.152  16.523  0.00  0.00    +0.000 C 
ATOM     30  C   UNL     1       6.975   4.919  15.219  0.00  0.00    +0.000 C 
ATOM     31  C   UNL     1       7.826   4.526  17.556  0.00  0.00    +0.000 C 
ENDBRANCH  26  29
ENDBRANCH  23  25
BRANCH  22  32
ATOM     32  O   UNL     1       3.759   2.192  19.756  0.00  0.00    +0.000 OA
ATOM     33  H   UNL     1       4.376   2.128  20.503  0.00  0.00    +0.000 HD
ENDBRANCH  22  32
ENDBRANCH   1  19
TORSDOF 8
ENDMDL
MODEL 5
REMARK VINA RESULT:      -7.6      1.161      1.477
REMARK  Name = 
REMARK  11 active torsions:
REMARK  status: ('A' for Active; 'I' for Inactive)
REMARK    1  A    between atoms: C_1  and  C_2
REMARK    2  A    between atoms: C_2  and  C_4
REMARK    3  A    between atoms: C_5  and  O_6
REMARK    4  A    between atoms: C_8  and  O_9
REMARK    5  A    between atoms: C_8  and  N_10
REMARK    6  A    between atoms: N_10  and  C_11
REMARK    7  A    between atoms: C_14  and  O_15
REMARK    8  A    between atoms: C_16  and  N_17
REMARK    9  A    between atoms: C_18  and  C_20
REMARK   10  A    between atoms: C_20  and  C_21
REMARK   11  A    between atoms: C_20  and  C_22
REMARK                            x       y       z     vdW  Elec       q    Type
REMARK                         _______ _______ _______ _____ _____    ______ ____
ROOT
ATOM      1  N   UNL     1       2.285   6.896  18.747  0.00  0.00    +0.000 N 
ATOM      2  H   UNL     1       1.572   6.424  19.309  0.00  0.00    +0.000 HD
ENDROOT
BRANCH   1   6
ATOM      3  C   UNL     1       0.726  11.339  20.064  0.00  0.00    +0.000 C 
ATOM      4  C   UNL     1       1.278  10.523  19.155  0.00  0.00    +0.000 C 
ATOM      5  C   UNL     1       1.548   9.124  19.436  0.00  0.00    +0.000 C 
ATOM      6  C   UNL     1       2.072   8.244  18.538  0.00  0.00    +0.000 C 
ATOM      7  C   UNL     1       1.201   8.631  20.799  0.00  0.00    +0.000 C 
ATOM      8  O   UNL     1       1.397   7.473  21.148  0.00  0.00    +0.000 OA
ATOM      9  O   UNL     1       0.644   9.507  21.664  0.00  0.00    +0.000 OA
ATOM     10  C   UNL     1       0.379  10.797  21.377  0.00  0.00    +0.000 C 
ATOM     11  O   UNL     1      -0.158  11.508  22.220  0.00  0.00    +0.000 OA
BRANCH   3  13
ATOM     12  C   UNL     1       1.446  13.841  20.159  0.00  0.00    +0.000 C 
ATOM     13  C   UNL     1       0.504  12.769  19.682  0.00  0.00    +0.000 C 
ATOM     14  O   UNL     1      -0.404  13.045  18.893  0.00  0.00    +0.000 OA
ENDBRANCH   3  13
BRANCH   4  15
ATOM     15  O   UNL     1       1.637  10.942  17.876  0.00  0.00    +0.000 OA
ATOM     16  H   UNL     1       1.595  10.172  17.257  0.00  0.00    +0.000 HD
ENDBRANCH   4  15
BRANCH   6  17
ATOM     17  O   UNL     1       2.384   8.653  17.247  0.00  0.00    +0.000 OA
ATOM     18  H   UNL     1       1.579   9.017  16.835  0.00  0.00    +0.000 HD
ENDBRANCH   6  17
ENDBRANCH   1   6
BRANCH   1  19
ATOM     19  C   UNL     1       3.415   6.101  18.466  0.00  0.00    +0.000 A 
ATOM     20  C   UNL     1       4.058   5.468  19.535  0.00  0.00    +0.000 A 
ATOM     21  C   UNL     1       5.215   4.717  19.329  0.00  0.00    +0.000 A 
ATOM     22  C   UNL     1       5.735   4.578  18.040  0.00  0.00    +0.000 A 
ATOM     23  C   UNL     1       5.048   5.073  16.929  0.00  0.00    +0.000 A 
ATOM     24  C   UNL     1       3.899   5.852  17.167  0.00  0.00    +0.000 A 
BRANCH  23  25
ATOM     25  N   UNL     1       5.417   4.874  15.569  0.00  0.00    +0.000 N 
ATOM     26  C   UNL     1       6.593   5.266  14.947  0.00  0.00    +0.000 C 
ATOM     27  O   UNL     1       7.577   5.771  15.485  0.00  0.00    +0.000 OA
ATOM     28  H   UNL     1       4.835   4.226  15.057  0.00  0.00    +0.000 HD
BRANCH  26  29
ATOM     29  C   UNL     1       6.678   4.900  13.456  0.00  0.00    +0.000 C 
ATOM     30  C   UNL     1       8.064   5.194  12.888  0.00  0.00    +0.000 C 
ATOM     31  C   UNL     1       6.253   3.465  13.162  0.00  0.00    +0.000 C 
ENDBRANCH  26  29
ENDBRANCH  23  25
BRANCH  22  32
ATOM     32  O   UNL     1       6.999   4.079  17.929  0.00  0.00    +0.000 OA
ATOM     33  H   UNL     1       7.263   3.725  18.792  0.00  0.00    +0.000 HD
ENDBRANCH  22  32
ENDBRANCH   1  19
TORSDOF 8
ENDMDL
MODEL 6
REMARK VINA RESULT:      -7.5      1.162      1.404
REMARK  Name = 
REMARK  11 active torsions:
REMARK  status: ('A' for Active; 'I' for Inactive)
REMARK    1  A    between atoms: C_1  and  C_2
REMARK    2  A    between atoms: C_2  and  C_4
REMARK    3  A    between atoms: C_5  and  O_6
REMARK    4  A    between atoms: C_8  and  O_9
REMARK    5  A    between atoms: C_8  and  N_10
REMARK    6  A    between atoms: N_10  and  C_11
REMARK    7  A    between atoms: C_14  and  O_15
REMARK    8  A    between atoms: C_16  and  N_17
REMARK    9  A    between atoms: C_18  and  C_20
REMARK   10  A    between atoms: C_20  and  C_21
REMARK   11  A    between atoms: C_20  and  C_22
REMARK                            x       y       z     vdW  Elec       q    Type
REMARK                         _______ _______ _______ _____ _____    ______ ____
ROOT
ATOM      1  N   UNL     1       2.691   6.726  18.351  0.00  0.00    +0.000 N 
ATOM      2  H   UNL     1       2.021   6.050  18.728  0.00  0.00    +0.000 HD
ENDROOT
BRANCH   1   6
ATOM      3  C   UNL     1       0.497  10.593  20.382  0.00  0.00    +0.000 C 
ATOM      4  C   UNL     1       1.153  10.036  19.355  0.00  0.00    +0.000 C 
ATOM      5  C   UNL     1       1.635   8.668  19.399  0.00  0.00    +0.000 C 
ATOM      6  C   UNL     1       2.274   8.042  18.371  0.00  0.00    +0.000 C 
ATOM      7  C   UNL     1       1.385   7.903  20.653  0.00  0.00    +0.000 C 
ATOM      8  O   UNL     1       1.759   6.747  20.804  0.00  0.00    +0.000 OA
ATOM      9  O   UNL     1       0.715   8.526  21.648  0.00  0.00    +0.000 OA
ATOM     10  C   UNL     1       0.254   9.791  21.580  0.00  0.00    +0.000 C 
ATOM     11  O   UNL     1      -0.373  10.259  22.524  0.00  0.00    +0.000 OA
BRANCH   3  13
ATOM     12  C   UNL     1       0.833  13.123  20.905  0.00  0.00    +0.000 C 
ATOM     13  C   UNL     1       0.056  12.017  20.245  0.00  0.00    +0.000 C 
ATOM     14  O   UNL     1      -0.897  12.282  19.507  0.00  0.00    +0.000 OA
ENDBRANCH   3  13
BRANCH   4  15
ATOM     15  O   UNL     1       1.427  10.716  18.170  0.00  0.00    +0.000 OA
ATOM     16  H   UNL     1       2.392  10.635  17.965  0.00  0.00    +0.000 HD
ENDBRANCH   4  15
BRANCH   6  17
ATOM     17  O   UNL     1       2.504   8.705  17.172  0.00  0.00    +0.000 OA
ATOM     18  H   UNL     1       1.649   9.024  16.827  0.00  0.00    +0.000 HD
ENDBRANCH   6  17
ENDBRANCH   1   6
BRANCH   1  19
ATOM     19  C   UNL     1       3.960   6.179  18.065  0.00  0.00    +0.000 A 
ATOM     20  C   UNL     1       4.665   5.570  19.108  0.00  0.00    +0.000 A 
ATOM     21  C   UNL     1       5.949   5.065  18.901  0.00  0.00    +0.000 A 
ATOM     22  C   UNL     1       6.536   5.150  17.637  0.00  0.00    +0.000 A 
ATOM     23  C   UNL     1       5.813   5.619  16.537  0.00  0.00    +0.000 A 
ATOM     24  C   UNL     1       4.532   6.151  16.779  0.00  0.00    +0.000 A 
BRANCH  23  25
ATOM     25  N   UNL     1       6.267   5.625  15.189  0.00  0.00    +0.000 N 
ATOM     26  C   UNL     1       6.431   4.535  14.347  0.00  0.00    +0.000 C 
ATOM     27  O   UNL     1       6.119   3.370  14.584  0.00  0.00    +0.000 OA
ATOM     28  H   UNL     1       6.301   6.536  14.751  0.00  0.00    +0.000 HD
BRANCH  26  29
ATOM     29  C   UNL     1       6.947   4.886  12.942  0.00  0.00    +0.000 C 
ATOM     30  C   UNL     1       8.314   5.561  13.003  0.00  0.00    +0.000 C 
ATOM     31  C   UNL     1       6.960   3.696  11.989  0.00  0.00    +0.000 C 
ENDBRANCH  26  29
ENDBRANCH  23  25
BRANCH  22  32
ATOM     32  O   UNL     1       7.874   4.901  17.554  0.00  0.00    +0.000 OA
ATOM     33  H   UNL     1       8.320   5.395  18.260  0.00  0.00    +0.000 HD
ENDBRANCH  22  32
ENDBRANCH   1  19
TORSDOF 8
ENDMDL
MODEL 7
REMARK VINA RESULT:      -7.5      2.292      3.502
REMARK  Name = 
REMARK  11 active torsions:
REMARK  status: ('A' for Active; 'I' for Inactive)
REMARK    1  A    between atoms: C_1  and  C_2
REMARK    2  A    between atoms: C_2  and  C_4
REMARK    3  A    between atoms: C_5  and  O_6
REMARK    4  A    between atoms: C_8  and  O_9
REMARK    5  A    between atoms: C_8  and  N_10
REMARK    6  A    between atoms: N_10  and  C_11
REMARK    7  A    between atoms: C_14  and  O_15
REMARK    8  A    between atoms: C_16  and  N_17
REMARK    9  A    between atoms: C_18  and  C_20
REMARK   10  A    between atoms: C_20  and  C_21
REMARK   11  A    between atoms: C_20  and  C_22
REMARK                            x       y       z     vdW  Elec       q    Type
REMARK                         _______ _______ _______ _____ _____    ______ ____
ROOT
ATOM      1  N   UNL     1       1.971   7.954  20.656  0.00  0.00    +0.000 N 
ATOM      2  H   UNL     1       2.568   8.222  21.443  0.00  0.00    +0.000 HD
ENDROOT
BRANCH   1   6
ATOM      3  C   UNL     1      -1.036  11.795  20.979  0.00  0.00    +0.000 C 
ATOM      4  C   UNL     1      -0.343  10.921  20.236  0.00  0.00    +0.000 C 
ATOM      5  C   UNL     1       0.507   9.906  20.832  0.00  0.00    +0.000 C 
ATOM      6  C   UNL     1       1.204   8.972  20.126  0.00  0.00    +0.000 C 
ATOM      7  C   UNL     1       0.594   9.886  22.319  0.00  0.00    +0.000 C 
ATOM      8  O   UNL     1       1.290   9.081  22.926  0.00  0.00    +0.000 OA
ATOM      9  O   UNL     1      -0.134  10.794  23.006  0.00  0.00    +0.000 OA
ATOM     10  C   UNL     1      -0.937  11.714  22.436  0.00  0.00    +0.000 C 
ATOM     11  O   UNL     1      -1.585  12.477  23.145  0.00  0.00    +0.000 OA
BRANCH   3  13
ATOM     12  C   UNL     1      -3.369  12.687  20.239  0.00  0.00    +0.000 C 
ATOM     13  C   UNL     1      -1.870  12.815  20.269  0.00  0.00    +0.000 C 
ATOM     14  O   UNL     1      -1.321  13.812  19.791  0.00  0.00    +0.000 OA
ENDBRANCH   3  13
BRANCH   4  15
ATOM     15  O   UNL     1      -0.376  10.913  18.844  0.00  0.00    +0.000 OA
ATOM     16  H   UNL     1      -1.057  10.263  18.538  0.00  0.00    +0.000 HD
ENDBRANCH   4  15
BRANCH   6  17
ATOM     17  O   UNL     1       1.130   8.934  18.739  0.00  0.00    +0.000 OA
ATOM     18  H   UNL     1       1.977   9.253  18.376  0.00  0.00    +0.000 HD
ENDBRANCH   6  17
ENDBRANCH   1   6
BRANCH   1  19
ATOM     19  C   UNL     1       2.203   6.648  20.177  0.00  0.00    +0.000 A 
ATOM     20  C   UNL     1       1.372   5.620  20.635  0.00  0.00    +0.000 A 
ATOM     21  C   UNL     1       1.590   4.299  20.244  0.00  0.00    +0.000 A 
ATOM     22  C   UNL     1       2.638   3.993  19.374  0.00  0.00    +0.000 A 
ATOM     23  C   UNL     1       3.401   5.004  18.782  0.00  0.00    +0.000 A 
ATOM     24  C   UNL     1       3.181   6.325  19.217  0.00  0.00    +0.000 A 
BRANCH  23  25
ATOM     25  N   UNL     1       4.400   4.813  17.787  0.00  0.00    +0.000 N 
ATOM     26  C   UNL     1       5.745   4.536  17.982  0.00  0.00    +0.000 C 
ATOM     27  O   UNL     1       6.301   4.306  19.054  0.00  0.00    +0.000 OA
ATOM     28  H   UNL     1       4.051   4.693  16.846  0.00  0.00    +0.000 HD
BRANCH  26  29
ATOM     29  C   UNL     1       6.560   4.393  16.686  0.00  0.00    +0.000 C 
ATOM     30  C   UNL     1       5.726   3.771  15.570  0.00  0.00    +0.000 C 
ATOM     31  C   UNL     1       7.206   5.698  16.232  0.00  0.00    +0.000 C 
ENDBRANCH  26  29
ENDBRANCH  23  25
BRANCH  22  32
ATOM     32  O   UNL     1       2.978   2.679  19.245  0.00  0.00    +0.000 OA
ATOM     33  H   UNL     1       3.582   2.594  18.491  0.00  0.00    +0.000 HD
ENDBRANCH  22  32
ENDBRANCH   1  19
TORSDOF 8
ENDMDL
MODEL 8
REMARK VINA RESULT:      -7.4      2.101      2.634
REMARK  Name = 
REMARK  11 active torsions:
REMARK  status: ('A' for Active; 'I' for Inactive)
REMARK    1  A    between atoms: C_1  and  C_2
REMARK    2  A    between atoms: C_2  and  C_4
REMARK    3  A    between atoms: C_5  and  O_6
REMARK    4  A    between atoms: C_8  and  O_9
REMARK    5  A    between atoms: C_8  and  N_10
REMARK    6  A    between atoms: N_10  and  C_11
REMARK    7  A    between atoms: C_14  and  O_15
REMARK    8  A    between atoms: C_16  and  N_17
REMARK    9  A    between atoms: C_18  and  C_20
REMARK   10  A    between atoms: C_20  and  C_21
REMARK   11  A    between atoms: C_20  and  C_22
REMARK                            x       y       z     vdW  Elec       q    Type
REMARK                         _______ _______ _______ _____ _____    ______ ____
ROOT
ATOM      1  N   UNL     1       2.010   6.808  20.404  0.00  0.00    +0.000 N 
ATOM      2  H   UNL     1       1.717   6.924  21.378  0.00  0.00    +0.000 HD
ENDROOT
BRANCH   1   6
ATOM      3  C   UNL     1       0.778  11.468  19.583  0.00  0.00    +0.000 C 
ATOM      4  C   UNL     1       1.214  10.284  19.130  0.00  0.00    +0.000 C 
ATOM      5  C   UNL     1       1.439   9.155  20.016  0.00  0.00    +0.000 C 
ATOM      6  C   UNL     1       1.846   7.922  19.604  0.00  0.00    +0.000 C 
ATOM      7  C   UNL     1       1.181   9.373  21.467  0.00  0.00    +0.000 C 
ATOM      8  O   UNL     1       1.349   8.495  22.304  0.00  0.00    +0.000 OA
ATOM      9  O   UNL     1       0.739  10.591  21.852  0.00  0.00    +0.000 OA
ATOM     10  C   UNL     1       0.514  11.620  21.012  0.00  0.00    +0.000 C 
ATOM     11  O   UNL     1       0.081  12.680  21.454  0.00  0.00    +0.000 OA
BRANCH   3  13
ATOM     12  C   UNL     1      -0.785  13.003  18.174  0.00  0.00    +0.000 C 
ATOM     13  C   UNL     1       0.595  12.574  18.592  0.00  0.00    +0.000 C 
ATOM     14  O   UNL     1       1.585  13.194  18.195  0.00  0.00    +0.000 OA
ENDBRANCH   3  13
BRANCH   4  15
ATOM     15  O   UNL     1       1.489  10.038  17.787  0.00  0.00    +0.000 OA
ATOM     16  H   UNL     1       2.242   9.399  17.720  0.00  0.00    +0.000 HD
ENDBRANCH   4  15
BRANCH   6  17
ATOM     17  O   UNL     1       2.072   7.664  18.257  0.00  0.00    +0.000 OA
ATOM     18  H   UNL     1       1.260   7.879  17.762  0.00  0.00    +0.000 HD
ENDBRANCH   6  17
ENDBRANCH   1   6
BRANCH   1  19
ATOM     19  C   UNL     1       2.684   5.596  20.147  0.00  0.00    +0.000 A 
ATOM     20  C   UNL     1       2.266   4.452  20.834  0.00  0.00    +0.000 A 
ATOM     21  C   UNL     1       2.931   3.237  20.667  0.00  0.00    +0.000 A 
ATOM     22  C   UNL     1       4.017   3.151  19.794  0.00  0.00    +0.000 A 
ATOM     23  C   UNL     1       4.377   4.231  18.983  0.00  0.00    +0.000 A 
ATOM     24  C   UNL     1       3.709   5.454  19.193  0.00  0.00    +0.000 A 
BRANCH  23  25
ATOM     25  N   UNL     1       5.376   4.212  17.971  0.00  0.00    +0.000 N 
ATOM     26  C   UNL     1       5.194   4.037  16.606  0.00  0.00    +0.000 C 
ATOM     27  O   UNL     1       4.121   3.966  16.011  0.00  0.00    +0.000 OA
ATOM     28  H   UNL     1       6.289   4.535  18.262  0.00  0.00    +0.000 HD
BRANCH  26  29
ATOM     29  C   UNL     1       6.491   4.062  15.782  0.00  0.00    +0.000 C 
ATOM     30  C   UNL     1       6.205   3.932  14.289  0.00  0.00    +0.000 C 
ATOM     31  C   UNL     1       7.367   5.277  16.073  0.00  0.00    +0.000 C 
ENDBRANCH  26  29
ENDBRANCH  23  25
BRANCH  22  32
ATOM     32  O   UNL     1       4.795   2.035  19.875  0.00  0.00    +0.000 OA
ATOM     33  H   UNL     1       4.310   1.361  20.376  0.00  0.00    +0.000 HD
ENDBRANCH  22  32
ENDBRANCH   1  19
TORSDOF 8
ENDMDL
MODEL 9
REMARK VINA RESULT:      -7.3      3.006      8.941
REMARK  Name = 
REMARK  11 active torsions:
REMARK  status: ('A' for Active; 'I' for Inactive)
REMARK    1  A    between atoms: C_1  and  C_2
REMARK    2  A    between atoms: C_2  and  C_4
REMARK    3  A    between atoms: C_5  and  O_6
REMARK    4  A    between atoms: C_8  and  O_9
REMARK    5  A    between atoms: C_8  and  N_10
REMARK    6  A    between atoms: N_10  and  C_11
REMARK    7  A    between atoms: C_14  and  O_15
REMARK    8  A    between atoms: C_16  and  N_17
REMARK    9  A    between atoms: C_18  and  C_20
REMARK   10  A    between atoms: C_20  and  C_21
REMARK   11  A    between atoms: C_20  and  C_22
REMARK                            x       y       z     vdW  Elec       q    Type
REMARK                         _______ _______ _______ _____ _____    ______ ____
ROOT
ATOM      1  N   UNL     1       2.117   8.538  19.259  0.00  0.00    +0.000 N 
ATOM      2  H   UNL     1       2.889   8.970  18.745  0.00  0.00    +0.000 HD
ENDROOT
BRANCH   1   6
ATOM      3  C   UNL     1       3.892   4.019  18.685  0.00  0.00    +0.000 C 
ATOM      4  C   UNL     1       3.199   4.913  19.405  0.00  0.00    +0.000 C 
ATOM      5  C   UNL     1       3.053   6.295  18.984  0.00  0.00    +0.000 C 
ATOM      6  C   UNL     1       2.331   7.233  19.658  0.00  0.00    +0.000 C 
ATOM      7  C   UNL     1       3.727   6.689  17.715  0.00  0.00    +0.000 C 
ATOM      8  O   UNL     1       3.680   7.830  17.273  0.00  0.00    +0.000 OA
ATOM      9  O   UNL     1       4.405   5.736  17.039  0.00  0.00    +0.000 OA
ATOM     10  C   UNL     1       4.511   4.451  17.433  0.00  0.00    +0.000 C 
ATOM     11  O   UNL     1       5.122   3.650  16.734  0.00  0.00    +0.000 OA
BRANCH   3  13
ATOM     12  C   UNL     1       3.251   1.497  18.553  0.00  0.00    +0.000 C 
ATOM     13  C   UNL     1       3.999   2.623  19.214  0.00  0.00    +0.000 C 
ATOM     14  O   UNL     1       4.783   2.390  20.139  0.00  0.00    +0.000 OA
ENDBRANCH   3  13
BRANCH   4  15
ATOM     15  O   UNL     1       2.569   4.597  20.607  0.00  0.00    +0.000 OA
ATOM     16  H   UNL     1       3.217   4.691  21.348  0.00  0.00    +0.000 HD
ENDBRANCH   4  15
BRANCH   6  17
ATOM     17  O   UNL     1       1.662   6.904  20.830  0.00  0.00    +0.000 OA
ATOM     18  H   UNL     1       2.228   7.147  21.587  0.00  0.00    +0.000 HD
ENDBRANCH   6  17
ENDBRANCH   1   6
BRANCH   1  19
ATOM     19  C   UNL     1       1.081   9.433  19.599  0.00  0.00    +0.000 A 
ATOM     20  C   UNL     1       1.045   9.932  20.906  0.00  0.00    +0.000 A 
ATOM     21  C   UNL     1       0.012  10.774  21.319  0.00  0.00    +0.000 A 
ATOM     22  C   UNL     1      -0.991  11.140  20.420  0.00  0.00    +0.000 A 
ATOM     23  C   UNL     1      -0.916  10.781  19.071  0.00  0.00    +0.000 A 
ATOM     24  C   UNL     1       0.120   9.906  18.687  0.00  0.00    +0.000 A 
BRANCH  23  25
ATOM     25  N   UNL     1      -1.808  11.208  18.048  0.00  0.00    +0.000 N 
ATOM     26  C   UNL     1      -2.863  10.497  17.496  0.00  0.00    +0.000 C 
ATOM     27  O   UNL     1      -3.282   9.400  17.862  0.00  0.00    +0.000 OA
ATOM     28  H   UNL     1      -1.773  12.195  17.834  0.00  0.00    +0.000 HD
BRANCH  26  29
ATOM     29  C   UNL     1      -3.633  11.249  16.399  0.00  0.00    +0.000 C 
ATOM     30  C   UNL     1      -3.654  10.460  15.092  0.00  0.00    +0.000 C 
ATOM     31  C   UNL     1      -5.041  11.656  16.820  0.00  0.00    +0.000 C 
ENDBRANCH  26  29
ENDBRANCH  23  25
BRANCH  22  32
ATOM     32  O   UNL     1      -2.109  11.724  20.937  0.00  0.00    +0.000 OA
ATOM     33  H   UNL     1      -2.536  11.089  21.533  0.00  0.00    +0.000 HD
ENDBRANCH  22  32
ENDBRANCH   1  19
TORSDOF 8
ENDMDL
