MODEL 1
REMARK VINA RESULT:      -7.9      0.000      0.000
REMARK  Name = 
REMARK  7 active torsions:
REMARK  status: ('A' for Active; 'I' for Inactive)
REMARK    1  A    between atoms: C_1  and  C_2
REMARK    2  A    between atoms: C_6  and  C_7
REMARK    3  A    between atoms: C_7  and  N_8
REMARK    4  A    between atoms: N_8  and  C_9
REMARK    5  A    between atoms: N_8  and  C_16
REMARK    6  A    between atoms: C_9  and  C_10
REMARK    7  A    between atoms: C_21  and  C_22
REMARK                            x       y       z     vdW  Elec       q    Type
REMARK                         _______ _______ _______ _____ _____    ______ ____
ROOT
ATOM      1  N   UNL     1       3.104   4.957  19.275  0.00  0.00    +0.000 NA
ENDROOT
BRANCH   1   2
ATOM      2  C   UNL     1       2.036   4.315  18.512  0.00  0.00    +0.000 C 
ATOM      3  C   UNL     1       2.636   3.533  17.323  0.00  0.00    +0.000 C 
ATOM      4  C   UNL     1       2.432   2.054  17.613  0.00  0.00    +0.000 C 
ATOM      5  N   UNL     1       1.785   1.942  18.924  0.00  0.00    +0.000 NA
ATOM      6  C   UNL     1       1.145   3.242  19.162  0.00  0.00    +0.000 C 
ATOM      7  H   UNL     1       2.507   1.806  19.628  0.00  0.00    +0.000 HD
ENDBRANCH   1   2
BRANCH   1   8
ATOM      8  C   UNL     1       2.680   5.981  20.233  0.00  0.00    +0.000 C 
BRANCH   8  14
ATOM      9  C   UNL     1       0.373  10.566  20.134  0.00  0.00    +0.000 C 
ATOM     10  C   UNL     1       1.143   9.445  19.491  0.00  0.00    +0.000 A 
ATOM     11  C   UNL     1       1.577   9.623  18.167  0.00  0.00    +0.000 A 
ATOM     12  C   UNL     1       2.328   8.654  17.530  0.00  0.00    +0.000 A 
ATOM     13  C   UNL     1       2.669   7.506  18.225  0.00  0.00    +0.000 A 
ATOM     14  C   UNL     1       2.252   7.279  19.552  0.00  0.00    +0.000 A 
ATOM     15  C   UNL     1       1.423   8.237  20.179  0.00  0.00    +0.000 A 
ATOM     16  C   UNL     1       0.845   8.030  21.557  0.00  0.00    +0.000 C 
ENDBRANCH   8  14
ENDBRANCH   1   8
BRANCH   1  17
ATOM     17  C   UNL     1       4.432   4.374  19.482  0.00  0.00    +0.000 C 
BRANCH  17  18
ATOM     18  C   UNL     1       5.602   5.144  18.887  0.00  0.00    +0.000 A 
ATOM     19  C   UNL     1       5.442   5.845  17.686  0.00  0.00    +0.000 A 
ATOM     20  C   UNL     1       6.459   6.690  17.253  0.00  0.00    +0.000 A 
ATOM     21  C   UNL     1       7.626   6.779  18.000  0.00  0.00    +0.000 A 
ATOM     22  C   UNL     1       7.732   6.004  19.143  0.00  0.00    +0.000 A 
ATOM     23  N   UNL     1       6.749   5.199  19.608  0.00  0.00    +0.000 NA
ENDBRANCH  17  18
ENDBRANCH   1  17
TORSDOF 5
ENDMDL
MODEL 2
REMARK VINA RESULT:      -7.5      3.451      5.650
REMARK  Name = 
REMARK  7 active torsions:
REMARK  status: ('A' for Active; 'I' for Inactive)
REMARK    1  A    between atoms: C_1  and  C_2
REMARK    2  A    between atoms: C_6  and  C_7
REMARK    3  A    between atoms: C_7  and  N_8
REMARK    4  A    between atoms: N_8  and  C_9
REMARK    5  A    between atoms: N_8  and  C_16
REMARK    6  A    between atoms: C_9  and  C_10
REMARK    7  A    between atoms: C_21  and  C_22
REMARK                            x       y       z     vdW  Elec       q    Type
REMARK                         _______ _______ _______ _____ _____    ______ ____
ROOT
ATOM      1  N   UNL     1       5.152   4.617  16.819  0.00  0.00    +0.000 NA
ENDROOT
BRANCH   1   2
ATOM      2  C   UNL     1       5.430   5.700  17.760  0.00  0.00    +0.000 C 
ATOM      3  C   UNL     1       6.650   5.336  18.635  0.00  0.00    +0.000 C 
ATOM      4  C   UNL     1       7.782   6.270  18.232  0.00  0.00    +0.000 C 
ATOM      5  N   UNL     1       7.292   7.121  17.144  0.00  0.00    +0.000 NA
ATOM      6  C   UNL     1       5.827   7.097  17.252  0.00  0.00    +0.000 C 
ATOM      7  H   UNL     1       7.555   6.696  16.259  0.00  0.00    +0.000 HD
ENDBRANCH   1   2
BRANCH   1   8
ATOM      8  C   UNL     1       4.844   3.316  17.414  0.00  0.00    +0.000 C 
BRANCH   8  14
ATOM      9  C   UNL     1       1.988   2.603  21.621  0.00  0.00    +0.000 C 
ATOM     10  C   UNL     1       2.163   2.965  20.171  0.00  0.00    +0.000 A 
ATOM     11  C   UNL     1       1.034   3.419  19.468  0.00  0.00    +0.000 A 
ATOM     12  C   UNL     1       1.130   3.812  18.148  0.00  0.00    +0.000 A 
ATOM     13  C   UNL     1       2.367   3.773  17.526  0.00  0.00    +0.000 A 
ATOM     14  C   UNL     1       3.527   3.320  18.186  0.00  0.00    +0.000 A 
ATOM     15  C   UNL     1       3.415   2.850  19.514  0.00  0.00    +0.000 A 
ATOM     16  C   UNL     1       4.579   2.251  20.264  0.00  0.00    +0.000 C 
ENDBRANCH   8  14
ENDBRANCH   1   8
BRANCH   1  17
ATOM     17  C   UNL     1       4.727   4.822  15.431  0.00  0.00    +0.000 C 
BRANCH  17  18
ATOM     18  C   UNL     1       5.781   4.566  14.364  0.00  0.00    +0.000 A 
ATOM     19  C   UNL     1       5.539   3.632  13.350  0.00  0.00    +0.000 A 
ATOM     20  C   UNL     1       6.428   3.542  12.283  0.00  0.00    +0.000 A 
ATOM     21  C   UNL     1       7.557   4.351  12.276  0.00  0.00    +0.000 A 
ATOM     22  C   UNL     1       7.757   5.204  13.349  0.00  0.00    +0.000 A 
ATOM     23  N   UNL     1       6.896   5.338  14.383  0.00  0.00    +0.000 NA
ENDBRANCH  17  18
ENDBRANCH   1  17
TORSDOF 5
ENDMDL
MODEL 3
REMARK VINA RESULT:      -7.5      0.671      1.052
REMARK  Name = 
REMARK  7 active torsions:
REMARK  status: ('A' for Active; 'I' for Inactive)
REMARK    1  A    between atoms: C_1  and  C_2
REMARK    2  A    between atoms: C_6  and  C_7
REMARK    3  A    between atoms: C_7  and  N_8
REMARK    4  A    between atoms: N_8  and  C_9
REMARK    5  A    between atoms: N_8  and  C_16
REMARK    6  A    between atoms: C_9  and  C_10
REMARK    7  A    between atoms: C_21  and  C_22
REMARK                            x       y       z     vdW  Elec       q    Type
REMARK                         _______ _______ _______ _____ _____    ______ ____
ROOT
ATOM      1  N   UNL     1       3.012   5.073  19.295  0.00  0.00    +0.000 NA
ENDROOT
BRANCH   1   2
ATOM      2  C   UNL     1       1.917   4.358  18.642  0.00  0.00    +0.000 C 
ATOM      3  C   UNL     1       2.439   3.636  17.380  0.00  0.00    +0.000 C 
ATOM      4  C   UNL     1       2.379   2.143  17.664  0.00  0.00    +0.000 C 
ATOM      5  N   UNL     1       1.892   1.969  19.035  0.00  0.00    +0.000 NA
ATOM      6  C   UNL     1       1.187   3.214  19.365  0.00  0.00    +0.000 C 
ATOM      7  H   UNL     1       2.695   1.882  19.653  0.00  0.00    +0.000 HD
ENDBRANCH   1   2
BRANCH   1   8
ATOM      8  C   UNL     1       2.620   6.091  20.271  0.00  0.00    +0.000 C 
BRANCH   8  14
ATOM      9  C   UNL     1       0.350  10.696  20.291  0.00  0.00    +0.000 C 
ATOM     10  C   UNL     1       1.071   9.566  19.609  0.00  0.00    +0.000 A 
ATOM     11  C   UNL     1       1.426   9.735  18.260  0.00  0.00    +0.000 A 
ATOM     12  C   UNL     1       2.129   8.757  17.583  0.00  0.00    +0.000 A 
ATOM     13  C   UNL     1       2.501   7.609  18.261  0.00  0.00    +0.000 A 
ATOM     14  C   UNL     1       2.163   7.390  19.612  0.00  0.00    +0.000 A 
ATOM     15  C   UNL     1       1.381   8.357  20.283  0.00  0.00    +0.000 A 
ATOM     16  C   UNL     1       0.885   8.162  21.695  0.00  0.00    +0.000 C 
ENDBRANCH   8  14
ENDBRANCH   1   8
BRANCH   1  17
ATOM     17  C   UNL     1       4.384   4.567  19.388  0.00  0.00    +0.000 C 
BRANCH  17  18
ATOM     18  C   UNL     1       5.465   5.443  18.774  0.00  0.00    +0.000 A 
ATOM     19  C   UNL     1       6.726   5.528  19.375  0.00  0.00    +0.000 A 
ATOM     20  C   UNL     1       7.755   6.182  18.705  0.00  0.00    +0.000 A 
ATOM     21  C   UNL     1       7.491   6.775  17.478  0.00  0.00    +0.000 A 
ATOM     22  C   UNL     1       6.200   6.702  16.980  0.00  0.00    +0.000 A 
ATOM     23  N   UNL     1       5.188   6.045  17.590  0.00  0.00    +0.000 NA
ENDBRANCH  17  18
ENDBRANCH   1  17
TORSDOF 5
ENDMDL
MODEL 4
REMARK VINA RESULT:      -7.5      2.613      5.204
REMARK  Name = 
REMARK  7 active torsions:
REMARK  status: ('A' for Active; 'I' for Inactive)
REMARK    1  A    between atoms: C_1  and  C_2
REMARK    2  A    between atoms: C_6  and  C_7
REMARK    3  A    between atoms: C_7  and  N_8
REMARK    4  A    between atoms: N_8  and  C_9
REMARK    5  A    between atoms: N_8  and  C_16
REMARK    6  A    between atoms: C_9  and  C_10
REMARK    7  A    between atoms: C_21  and  C_22
REMARK                            x       y       z     vdW  Elec       q    Type
REMARK                         _______ _______ _______ _____ _____    ______ ____
ROOT
ATOM      1  N   UNL     1       4.644   5.938  17.246  0.00  0.00    +0.000 NA
ENDROOT
BRANCH   1   2
ATOM      2  C   UNL     1       5.651   5.874  18.303  0.00  0.00    +0.000 C 
ATOM      3  C   UNL     1       6.254   4.453  18.370  0.00  0.00    +0.000 C 
ATOM      4  C   UNL     1       7.696   4.559  17.897  0.00  0.00    +0.000 C 
ATOM      5  N   UNL     1       7.942   5.954  17.523  0.00  0.00    +0.000 NA
ATOM      6  C   UNL     1       6.921   6.739  18.229  0.00  0.00    +0.000 C 
ATOM      7  H   UNL     1       7.786   6.051  16.522  0.00  0.00    +0.000 HD
ENDBRANCH   1   2
BRANCH   1   8
ATOM      8  C   UNL     1       3.249   5.961  17.692  0.00  0.00    +0.000 C 
BRANCH   8  14
ATOM      9  C   UNL     1       1.206   2.841  21.220  0.00  0.00    +0.000 C 
ATOM     10  C   UNL     1       1.823   3.114  19.875  0.00  0.00    +0.000 A 
ATOM     11  C   UNL     1       1.910   2.047  18.966  0.00  0.00    +0.000 A 
ATOM     12  C   UNL     1       2.424   2.234  17.698  0.00  0.00    +0.000 A 
ATOM     13  C   UNL     1       2.834   3.503  17.322  0.00  0.00    +0.000 A 
ATOM     14  C   UNL     1       2.772   4.604  18.201  0.00  0.00    +0.000 A 
ATOM     15  C   UNL     1       2.315   4.396  19.522  0.00  0.00    +0.000 A 
ATOM     16  C   UNL     1       2.312   5.491  20.560  0.00  0.00    +0.000 C 
ENDBRANCH   8  14
ENDBRANCH   1   8
BRANCH   1  17
ATOM     17  C   UNL     1       4.907   6.417  15.887  0.00  0.00    +0.000 C 
BRANCH  17  18
ATOM     18  C   UNL     1       5.602   5.435  14.954  0.00  0.00    +0.000 A 
ATOM     19  C   UNL     1       4.875   4.397  14.361  0.00  0.00    +0.000 A 
ATOM     20  C   UNL     1       5.478   3.624  13.372  0.00  0.00    +0.000 A 
ATOM     21  C   UNL     1       6.800   3.875  13.034  0.00  0.00    +0.000 A 
ATOM     22  C   UNL     1       7.471   4.880  13.713  0.00  0.00    +0.000 A 
ATOM     23  N   UNL     1       6.904   5.669  14.653  0.00  0.00    +0.000 NA
ENDBRANCH  17  18
ENDBRANCH   1  17
TORSDOF 5
ENDMDL
MODEL 5
REMARK VINA RESULT:      -7.4      1.650      4.799
REMARK  Name = 
REMARK  7 active torsions:
REMARK  status: ('A' for Active; 'I' for Inactive)
REMARK    1  A    between atoms: C_1  and  C_2
REMARK    2  A    between atoms: C_6  and  C_7
REMARK    3  A    between atoms: C_7  and  N_8
REMARK    4  A    between atoms: N_8  and  C_9
REMARK    5  A    between atoms: N_8  and  C_16
REMARK    6  A    between atoms: C_9  and  C_10
REMARK    7  A    between atoms: C_21  and  C_22
REMARK                            x       y       z     vdW  Elec       q    Type
REMARK                         _______ _______ _______ _____ _____    ______ ____
ROOT
ATOM      1  N   UNL     1       3.130   3.386  18.433  0.00  0.00    +0.000 NA
ENDROOT
BRANCH   1   2
ATOM      2  C   UNL     1       2.515   2.436  19.358  0.00  0.00    +0.000 C 
ATOM      3  C   UNL     1       3.092   2.636  20.777  0.00  0.00    +0.000 C 
ATOM      4  C   UNL     1       1.973   3.202  21.638  0.00  0.00    +0.000 C 
ATOM      5  N   UNL     1       0.797   3.378  20.781  0.00  0.00    +0.000 NA
ATOM      6  C   UNL     1       1.003   2.480  19.637  0.00  0.00    +0.000 C 
ATOM      7  H   UNL     1       0.788   4.335  20.439  0.00  0.00    +0.000 HD
ENDBRANCH   1   2
BRANCH   1   8
ATOM      8  C   UNL     1       4.419   2.984  17.866  0.00  0.00    +0.000 C 
BRANCH   8  14
ATOM      9  C   UNL     1       7.431   7.140  17.745  0.00  0.00    +0.000 C 
ATOM     10  C   UNL     1       6.542   6.116  17.094  0.00  0.00    +0.000 A 
ATOM     11  C   UNL     1       6.401   6.164  15.697  0.00  0.00    +0.000 A 
ATOM     12  C   UNL     1       5.638   5.227  15.028  0.00  0.00    +0.000 A 
ATOM     13  C   UNL     1       5.025   4.219  15.754  0.00  0.00    +0.000 A 
ATOM     14  C   UNL     1       5.131   4.133  17.157  0.00  0.00    +0.000 A 
ATOM     15  C   UNL     1       5.852   5.132  17.848  0.00  0.00    +0.000 A 
ATOM     16  C   UNL     1       5.932   5.179  19.355  0.00  0.00    +0.000 C 
ENDBRANCH   8  14
ENDBRANCH   1   8
BRANCH   1  17
ATOM     17  C   UNL     1       2.392   4.428  17.715  0.00  0.00    +0.000 C 
BRANCH  17  18
ATOM     18  C   UNL     1       2.397   5.811  18.350  0.00  0.00    +0.000 A 
ATOM     19  C   UNL     1       2.627   6.945  17.562  0.00  0.00    +0.000 A 
ATOM     20  C   UNL     1       2.447   8.207  18.119  0.00  0.00    +0.000 A 
ATOM     21  C   UNL     1       2.088   8.309  19.456  0.00  0.00    +0.000 A 
ATOM     22  C   UNL     1       1.942   7.140  20.185  0.00  0.00    +0.000 A 
ATOM     23  N   UNL     1       2.078   5.899  19.665  0.00  0.00    +0.000 NA
ENDBRANCH  17  18
ENDBRANCH   1  17
TORSDOF 5
ENDMDL
MODEL 6
REMARK VINA RESULT:      -7.4      1.322      1.573
REMARK  Name = 
REMARK  7 active torsions:
REMARK  status: ('A' for Active; 'I' for Inactive)
REMARK    1  A    between atoms: C_1  and  C_2
REMARK    2  A    between atoms: C_6  and  C_7
REMARK    3  A    between atoms: C_7  and  N_8
REMARK    4  A    between atoms: N_8  and  C_9
REMARK    5  A    between atoms: N_8  and  C_16
REMARK    6  A    between atoms: C_9  and  C_10
REMARK    7  A    between atoms: C_21  and  C_22
REMARK                            x       y       z     vdW  Elec       q    Type
REMARK                         _______ _______ _______ _____ _____    ______ ____
ROOT
ATOM      1  N   UNL     1       3.282   5.157  19.527  0.00  0.00    +0.000 NA
ENDROOT
BRANCH   1   2
ATOM      2  C   UNL     1       2.714   3.849  19.206  0.00  0.00    +0.000 C 
ATOM      3  C   UNL     1       2.982   2.861  20.363  0.00  0.00    +0.000 C 
ATOM      4  C   UNL     1       1.640   2.560  21.012  0.00  0.00    +0.000 C 
ATOM      5  N   UNL     1       0.621   3.354  20.318  0.00  0.00    +0.000 NA
ATOM      6  C   UNL     1       1.198   3.680  19.008  0.00  0.00    +0.000 C 
ATOM      7  H   UNL     1       0.483   4.221  20.832  0.00  0.00    +0.000 HD
ENDBRANCH   1   2
BRANCH   1   8
ATOM      8  C   UNL     1       2.442   6.036  20.343  0.00  0.00    +0.000 C 
BRANCH   8  14
ATOM      9  C   UNL     1       0.630  10.837  20.188  0.00  0.00    +0.000 C 
ATOM     10  C   UNL     1       1.212   9.608  19.544  0.00  0.00    +0.000 A 
ATOM     11  C   UNL     1       1.531   9.672  18.178  0.00  0.00    +0.000 A 
ATOM     12  C   UNL     1       2.110   8.597  17.532  0.00  0.00    +0.000 A 
ATOM     13  C   UNL     1       2.395   7.453  18.259  0.00  0.00    +0.000 A 
ATOM     14  C   UNL     1       2.088   7.338  19.630  0.00  0.00    +0.000 A 
ATOM     15  C   UNL     1       1.430   8.410  20.273  0.00  0.00    +0.000 A 
ATOM     16  C   UNL     1       0.970   8.336  21.709  0.00  0.00    +0.000 C 
ENDBRANCH   8  14
ENDBRANCH   1   8
BRANCH   1  17
ATOM     17  C   UNL     1       4.714   5.462  19.491  0.00  0.00    +0.000 C 
BRANCH  17  18
ATOM     18  C   UNL     1       5.434   5.147  18.189  0.00  0.00    +0.000 A 
ATOM     19  C   UNL     1       4.861   5.510  16.964  0.00  0.00    +0.000 A 
ATOM     20  C   UNL     1       5.611   5.383  15.799  0.00  0.00    +0.000 A 
ATOM     21  C   UNL     1       6.893   4.856  15.876  0.00  0.00    +0.000 A 
ATOM     22  C   UNL     1       7.364   4.461  17.118  0.00  0.00    +0.000 A 
ATOM     23  N   UNL     1       6.674   4.602  18.272  0.00  0.00    +0.000 NA
ENDBRANCH  17  18
ENDBRANCH   1  17
TORSDOF 5
ENDMDL
MODEL 7
REMARK VINA RESULT:      -7.4      2.873      5.349
REMARK  Name = 
REMARK  7 active torsions:
REMARK  status: ('A' for Active; 'I' for Inactive)
REMARK    1  A    between atoms: C_1  and  C_2
REMARK    2  A    between atoms: C_6  and  C_7
REMARK    3  A    between atoms: C_7  and  N_8
REMARK    4  A    between atoms: N_8  and  C_9
REMARK    5  A    between atoms: N_8  and  C_16
REMARK    6  A    between atoms: C_9  and  C_10
REMARK    7  A    between atoms: C_21  and  C_22
REMARK                            x       y       z     vdW  Elec       q    Type
REMARK                         _______ _______ _______ _____ _____    ______ ____
ROOT
ATOM      1  N   UNL     1       5.219   5.280  16.787  0.00  0.00    +0.000 NA
ENDROOT
BRANCH   1   2
ATOM      2  C   UNL     1       6.314   4.637  17.510  0.00  0.00    +0.000 C 
ATOM      3  C   UNL     1       7.549   5.564  17.526  0.00  0.00    +0.000 C 
ATOM      4  C   UNL     1       7.739   6.028  18.963  0.00  0.00    +0.000 C 
ATOM      5  N   UNL     1       6.655   5.453  19.764  0.00  0.00    +0.000 NA
ATOM      6  C   UNL     1       6.172   4.293  19.003  0.00  0.00    +0.000 C 
ATOM      7  H   UNL     1       5.901   6.134  19.823  0.00  0.00    +0.000 HD
ENDBRANCH   1   2
BRANCH   1   8
ATOM      8  C   UNL     1       4.061   5.671  17.594  0.00  0.00    +0.000 C 
BRANCH   8  14
ATOM      9  C   UNL     1       0.860   3.213  20.766  0.00  0.00    +0.000 C 
ATOM     10  C   UNL     1       1.708   3.297  19.526  0.00  0.00    +0.000 A 
ATOM     11  C   UNL     1       1.670   2.215  18.631  0.00  0.00    +0.000 A 
ATOM     12  C   UNL     1       2.388   2.243  17.452  0.00  0.00    +0.000 A 
ATOM     13  C   UNL     1       3.135   3.369  17.149  0.00  0.00    +0.000 A 
ATOM     14  C   UNL     1       3.210   4.477  18.018  0.00  0.00    +0.000 A 
ATOM     15  C   UNL     1       2.535   4.418  19.257  0.00  0.00    +0.000 A 
ATOM     16  C   UNL     1       2.642   5.510  20.293  0.00  0.00    +0.000 C 
ENDBRANCH   8  14
ENDBRANCH   1   8
BRANCH   1  17
ATOM     17  C   UNL     1       5.368   5.940  15.487  0.00  0.00    +0.000 C 
BRANCH  17  18
ATOM     18  C   UNL     1       6.005   5.110  14.383  0.00  0.00    +0.000 A 
ATOM     19  C   UNL     1       5.300   4.046  13.809  0.00  0.00    +0.000 A 
ATOM     20  C   UNL     1       5.819   3.417  12.681  0.00  0.00    +0.000 A 
ATOM     21  C   UNL     1       7.046   3.832  12.183  0.00  0.00    +0.000 A 
ATOM     22  C   UNL     1       7.713   4.849  12.847  0.00  0.00    +0.000 A 
ATOM     23  N   UNL     1       7.220   5.502  13.924  0.00  0.00    +0.000 NA
ENDBRANCH  17  18
ENDBRANCH   1  17
TORSDOF 5
ENDMDL
MODEL 8
REMARK VINA RESULT:      -7.3      2.114      5.307
REMARK  Name = 
REMARK  7 active torsions:
REMARK  status: ('A' for Active; 'I' for Inactive)
REMARK    1  A    between atoms: C_1  and  C_2
REMARK    2  A    between atoms: C_6  and  C_7
REMARK    3  A    between atoms: C_7  and  N_8
REMARK    4  A    between atoms: N_8  and  C_9
REMARK    5  A    between atoms: N_8  and  C_16
REMARK    6  A    between atoms: C_9  and  C_10
REMARK    7  A    between atoms: C_21  and  C_22
REMARK                            x       y       z     vdW  Elec       q    Type
REMARK                         _______ _______ _______ _____ _____    ______ ____
ROOT
ATOM      1  N   UNL     1       5.293   4.212  17.802  0.00  0.00    +0.000 NA
ENDROOT
BRANCH   1   2
ATOM      2  C   UNL     1       6.377   4.345  16.830  0.00  0.00    +0.000 C 
ATOM      3  C   UNL     1       5.958   3.712  15.485  0.00  0.00    +0.000 C 
ATOM      4  C   UNL     1       5.798   4.850  14.488  0.00  0.00    +0.000 C 
ATOM      5  N   UNL     1       6.061   6.105  15.198  0.00  0.00    +0.000 NA
ATOM      6  C   UNL     1       6.855   5.734  16.376  0.00  0.00    +0.000 C 
ATOM      7  H   UNL     1       5.174   6.487  15.517  0.00  0.00    +0.000 HD
ENDBRANCH   1   2
BRANCH   1   8
ATOM      8  C   UNL     1       4.694   2.880  17.914  0.00  0.00    +0.000 C 
BRANCH   8  14
ATOM      9  C   UNL     1       1.519   2.499  21.930  0.00  0.00    +0.000 C 
ATOM     10  C   UNL     1       1.803   2.710  20.468  0.00  0.00    +0.000 A 
ATOM     11  C   UNL     1       0.723   3.035  19.631  0.00  0.00    +0.000 A 
ATOM     12  C   UNL     1       0.917   3.288  18.287  0.00  0.00    +0.000 A 
ATOM     13  C   UNL     1       2.203   3.238  17.775  0.00  0.00    +0.000 A 
ATOM     14  C   UNL     1       3.318   2.910  18.573  0.00  0.00    +0.000 A 
ATOM     15  C   UNL     1       3.110   2.580  19.931  0.00  0.00    +0.000 A 
ATOM     16  C   UNL     1       4.227   2.117  20.833  0.00  0.00    +0.000 C 
ENDBRANCH   8  14
ENDBRANCH   1   8
BRANCH   1  17
ATOM     17  C   UNL     1       5.083   5.125  18.929  0.00  0.00    +0.000 C 
BRANCH  17  18
ATOM     18  C   UNL     1       3.952   6.131  18.774  0.00  0.00    +0.000 A 
ATOM     19  C   UNL     1       2.995   6.273  19.785  0.00  0.00    +0.000 A 
ATOM     20  C   UNL     1       2.080   7.319  19.713  0.00  0.00    +0.000 A 
ATOM     21  C   UNL     1       2.112   8.167  18.614  0.00  0.00    +0.000 A 
ATOM     22  C   UNL     1       3.049   7.921  17.623  0.00  0.00    +0.000 A 
ATOM     23  N   UNL     1       3.972   6.934  17.681  0.00  0.00    +0.000 NA
ENDBRANCH  17  18
ENDBRANCH   1  17
TORSDOF 5
ENDMDL
MODEL 9
REMARK VINA RESULT:      -7.3      1.430      4.564
REMARK  Name = 
REMARK  7 active torsions:
REMARK  status: ('A' for Active; 'I' for Inactive)
REMARK    1  A    between atoms: C_1  and  C_2
REMARK    2  A    between atoms: C_6  and  C_7
REMARK    3  A    between atoms: C_7  and  N_8
REMARK    4  A    between atoms: N_8  and  C_9
REMARK    5  A    between atoms: N_8  and  C_16
REMARK    6  A    between atoms: C_9  and  C_10
REMARK    7  A    between atoms: C_21  and  C_22
REMARK                            x       y       z     vdW  Elec       q    Type
REMARK                         _______ _______ _______ _____ _____    ______ ____
ROOT
ATOM      1  N   UNL     1       4.263   5.705  17.720  0.00  0.00    +0.000 NA
ENDROOT
BRANCH   1   2
ATOM      2  C   UNL     1       5.633   6.050  18.095  0.00  0.00    +0.000 C 
ATOM      3  C   UNL     1       6.471   4.764  18.265  0.00  0.00    +0.000 C 
ATOM      4  C   UNL     1       7.481   4.736  17.128  0.00  0.00    +0.000 C 
ATOM      5  N   UNL     1       7.241   5.913  16.289  0.00  0.00    +0.000 NA
ATOM      6  C   UNL     1       6.524   6.868  17.144  0.00  0.00    +0.000 C 
ATOM      7  H   UNL     1       6.627   5.644  15.524  0.00  0.00    +0.000 HD
ENDBRANCH   1   2
BRANCH   1   8
ATOM      8  C   UNL     1       3.372   6.834  17.445  0.00  0.00    +0.000 C 
BRANCH   8  14
ATOM      9  C   UNL     1       0.412  10.098  20.080  0.00  0.00    +0.000 C 
ATOM     10  C   UNL     1       1.191   8.819  19.938  0.00  0.00    +0.000 A 
ATOM     11  C   UNL     1       1.135   7.897  20.996  0.00  0.00    +0.000 A 
ATOM     12  C   UNL     1       1.789   6.682  20.915  0.00  0.00    +0.000 A 
ATOM     13  C   UNL     1       2.487   6.373  19.760  0.00  0.00    +0.000 A 
ATOM     14  C   UNL     1       2.578   7.268  18.674  0.00  0.00    +0.000 A 
ATOM     15  C   UNL     1       1.970   8.538  18.786  0.00  0.00    +0.000 A 
ATOM     16  C   UNL     1       2.102   9.598  17.719  0.00  0.00    +0.000 C 
ENDBRANCH   8  14
ENDBRANCH   1   8
BRANCH   1  17
ATOM     17  C   UNL     1       3.861   4.404  17.180  0.00  0.00    +0.000 C 
BRANCH  17  18
ATOM     18  C   UNL     1       2.955   3.562  18.067  0.00  0.00    +0.000 A 
ATOM     19  C   UNL     1       3.453   3.002  19.249  0.00  0.00    +0.000 A 
ATOM     20  C   UNL     1       2.570   2.394  20.137  0.00  0.00    +0.000 A 
ATOM     21  C   UNL     1       1.225   2.319  19.804  0.00  0.00    +0.000 A 
ATOM     22  C   UNL     1       0.821   2.841  18.586  0.00  0.00    +0.000 A 
ATOM     23  N   UNL     1       1.648   3.467  17.718  0.00  0.00    +0.000 NA
ENDBRANCH  17  18
ENDBRANCH   1  17
TORSDOF 5
ENDMDL
