MODEL 1
REMARK VINA RESULT:      -7.8      0.000      0.000
REMARK  Name = 
REMARK  6 active torsions:
REMARK  status: ('A' for Active; 'I' for Inactive)
REMARK    1  A    between atoms: C_1  and  C_2
REMARK    2  A    between atoms: C_2  and  C_3
REMARK    3  A    between atoms: C_3  and  N_4
REMARK    4  A    between atoms: C_5  and  C_7
REMARK    5  A    between atoms: C_8  and  N_9
REMARK    6  A    between atoms: C_10  and  C_12
REMARK                            x       y       z     vdW  Elec       q    Type
REMARK                         _______ _______ _______ _____ _____    ______ ____
ROOT
ATOM      1  C   UNL     1       3.069   5.604  17.902  0.00  0.00    +0.000 A 
ATOM      2  C   UNL     1       3.083   6.963  18.166  0.00  0.00    +0.000 A 
ATOM      3  S   UNL     1       4.507   7.726  17.645  0.00  0.00    +0.000 S 
ATOM      4  C   UNL     1       5.148   6.271  17.022  0.00  0.00    +0.000 A 
ATOM      5  C   UNL     1       4.284   5.199  17.208  0.00  0.00    +0.000 A 
ATOM      6  C   UNL     1       4.540   3.797  16.706  0.00  0.00    +0.000 C 
ATOM      7  C   UNL     1       5.140   3.783  15.302  0.00  0.00    +0.000 C 
ATOM      8  C   UNL     1       6.654   3.997  15.278  0.00  0.00    +0.000 C 
ATOM      9  C   UNL     1       7.210   4.982  16.308  0.00  0.00    +0.000 C 
ATOM     10  C   UNL     1       6.484   6.323  16.333  0.00  0.00    +0.000 C 
ENDROOT
BRANCH   1  12
ATOM     11  N   UNL     1       1.895   4.305  19.521  0.00  0.00    +0.000 N 
ATOM     12  C   UNL     1       1.953   4.706  18.205  0.00  0.00    +0.000 C 
ATOM     13  O   UNL     1       1.118   4.379  17.370  0.00  0.00    +0.000 OA
ATOM     14  H   UNL     1       2.387   4.898  20.182  0.00  0.00    +0.000 HD
BRANCH  11  15
ATOM     15  C   UNL     1       0.814   3.481  20.013  0.00  0.00    +0.000 C 
BRANCH  15  17
ATOM     16  C   UNL     1       2.656   2.624  21.529  0.00  0.00    +0.000 C 
ATOM     17  C   UNL     1       1.161   2.852  21.357  0.00  0.00    +0.000 C 
ENDBRANCH  15  17
ENDBRANCH  11  15
ENDBRANCH   1  12
BRANCH   2  18
ATOM     18  N   UNL     1       2.175   7.753  18.862  0.00  0.00    +0.000 N 
ATOM     19  C   UNL     1       1.771   8.956  18.303  0.00  0.00    +0.000 C 
ATOM     20  O   UNL     1       2.175   9.386  17.222  0.00  0.00    +0.000 OA
ATOM     21  H   UNL     1       1.538   7.289  19.500  0.00  0.00    +0.000 HD
BRANCH  19  22
ATOM     22  C   UNL     1       0.706   9.737  18.983  0.00  0.00    +0.000 A 
ATOM     23  C   UNL     1       0.965  10.202  20.283  0.00  0.00    +0.000 A 
ATOM     24  C   UNL     1       0.024  10.965  20.975  0.00  0.00    +0.000 A 
ATOM     25  C   UNL     1      -1.195  11.270  20.375  0.00  0.00    +0.000 A 
ATOM     26  C   UNL     1      -1.468  10.809  19.088  0.00  0.00    +0.000 A 
ATOM     27  C   UNL     1      -0.518  10.056  18.391  0.00  0.00    +0.000 A 
ATOM     28  F   UNL     1      -0.810   9.652  17.152  0.00  0.00    +0.000 F 
ENDBRANCH  19  22
ENDBRANCH   2  18
TORSDOF 5
ENDMDL
MODEL 2
REMARK VINA RESULT:      -7.7      0.982      1.337
REMARK  Name = 
REMARK  6 active torsions:
REMARK  status: ('A' for Active; 'I' for Inactive)
REMARK    1  A    between atoms: C_1  and  C_2
REMARK    2  A    between atoms: C_2  and  C_3
REMARK    3  A    between atoms: C_3  and  N_4
REMARK    4  A    between atoms: C_5  and  C_7
REMARK    5  A    between atoms: C_8  and  N_9
REMARK    6  A    between atoms: C_10  and  C_12
REMARK                            x       y       z     vdW  Elec       q    Type
REMARK                         _______ _______ _______ _____ _____    ______ ____
ROOT
ATOM      1  C   UNL     1       3.104   5.499  17.902  0.00  0.00    +0.000 A 
ATOM      2  C   UNL     1       3.152   6.849  18.205  0.00  0.00    +0.000 A 
ATOM      3  S   UNL     1       4.574   7.601  17.664  0.00  0.00    +0.000 S 
ATOM      4  C   UNL     1       5.169   6.154  16.981  0.00  0.00    +0.000 A 
ATOM      5  C   UNL     1       4.290   5.093  17.161  0.00  0.00    +0.000 A 
ATOM      6  C   UNL     1       4.506   3.702  16.611  0.00  0.00    +0.000 C 
ATOM      7  C   UNL     1       5.065   3.719  15.190  0.00  0.00    +0.000 C 
ATOM      8  C   UNL     1       6.581   3.906  15.128  0.00  0.00    +0.000 C 
ATOM      9  C   UNL     1       7.185   4.850  16.169  0.00  0.00    +0.000 C 
ATOM     10  C   UNL     1       6.486   6.203  16.255  0.00  0.00    +0.000 C 
ENDROOT
BRANCH   1  12
ATOM     11  N   UNL     1       1.888   4.264  19.539  0.00  0.00    +0.000 N 
ATOM     12  C   UNL     1       1.980   4.613  18.211  0.00  0.00    +0.000 C 
ATOM     13  O   UNL     1       1.167   4.253  17.368  0.00  0.00    +0.000 OA
ATOM     14  H   UNL     1       2.364   4.882  20.189  0.00  0.00    +0.000 HD
BRANCH  11  15
ATOM     15  C   UNL     1       0.795   3.458  20.035  0.00  0.00    +0.000 C 
BRANCH  15  17
ATOM     16  C   UNL     1       2.682   2.692  21.544  0.00  0.00    +0.000 C 
ATOM     17  C   UNL     1       1.177   2.730  21.319  0.00  0.00    +0.000 C 
ENDBRANCH  15  17
ENDBRANCH  11  15
ENDBRANCH   1  12
BRANCH   2  18
ATOM     18  N   UNL     1       2.279   7.634  18.949  0.00  0.00    +0.000 N 
ATOM     19  C   UNL     1       1.822   8.825  18.405  0.00  0.00    +0.000 C 
ATOM     20  O   UNL     1       2.151   9.249  17.296  0.00  0.00    +0.000 OA
ATOM     21  H   UNL     1       1.690   7.169  19.631  0.00  0.00    +0.000 HD
BRANCH  19  22
ATOM     22  C   UNL     1       0.792   9.600  19.144  0.00  0.00    +0.000 A 
ATOM     23  C   UNL     1      -0.189  10.267  18.392  0.00  0.00    +0.000 A 
ATOM     24  C   UNL     1      -1.204  10.993  19.016  0.00  0.00    +0.000 A 
ATOM     25  C   UNL     1      -1.249  11.063  20.406  0.00  0.00    +0.000 A 
ATOM     26  C   UNL     1      -0.277  10.412  21.164  0.00  0.00    +0.000 A 
ATOM     27  C   UNL     1       0.732   9.674  20.537  0.00  0.00    +0.000 A 
ATOM     28  F   UNL     1       1.630   9.047  21.301  0.00  0.00    +0.000 F 
ENDBRANCH  19  22
ENDBRANCH   2  18
TORSDOF 5
ENDMDL
MODEL 3
REMARK VINA RESULT:      -7.7      3.162      7.651
REMARK  Name = 
REMARK  6 active torsions:
REMARK  status: ('A' for Active; 'I' for Inactive)
REMARK    1  A    between atoms: C_1  and  C_2
REMARK    2  A    between atoms: C_2  and  C_3
REMARK    3  A    between atoms: C_3  and  N_4
REMARK    4  A    between atoms: C_5  and  C_7
REMARK    5  A    between atoms: C_8  and  N_9
REMARK    6  A    between atoms: C_10  and  C_12
REMARK                            x       y       z     vdW  Elec       q    Type
REMARK                         _______ _______ _______ _____ _____    ______ ____
ROOT
ATOM      1  C   UNL     1       3.549   5.028  17.963  0.00  0.00    +0.000 A 
ATOM      2  C   UNL     1       3.854   4.104  16.978  0.00  0.00    +0.000 A 
ATOM      3  S   UNL     1       3.590   2.501  17.469  0.00  0.00    +0.000 S 
ATOM      4  C   UNL     1       3.033   2.984  19.009  0.00  0.00    +0.000 A 
ATOM      5  C   UNL     1       3.045   4.366  19.157  0.00  0.00    +0.000 A 
ATOM      6  C   UNL     1       2.547   5.098  20.382  0.00  0.00    +0.000 C 
ATOM      7  C   UNL     1       1.257   4.497  20.934  0.00  0.00    +0.000 C 
ATOM      8  C   UNL     1       1.480   3.282  21.834  0.00  0.00    +0.000 C 
ATOM      9  C   UNL     1       2.616   2.342  21.425  0.00  0.00    +0.000 C 
ATOM     10  C   UNL     1       2.566   1.917  19.961  0.00  0.00    +0.000 C 
ENDROOT
BRANCH   1  12
ATOM     11  N   UNL     1       2.443   7.141  17.946  0.00  0.00    +0.000 N 
ATOM     12  C   UNL     1       3.643   6.481  17.802  0.00  0.00    +0.000 C 
ATOM     13  O   UNL     1       4.705   7.060  17.602  0.00  0.00    +0.000 OA
ATOM     14  H   UNL     1       1.723   6.637  18.454  0.00  0.00    +0.000 HD
BRANCH  11  15
ATOM     15  C   UNL     1       2.364   8.584  17.896  0.00  0.00    +0.000 C 
BRANCH  15  17
ATOM     16  C   UNL     1       1.480   8.441  20.267  0.00  0.00    +0.000 C 
ATOM     17  C   UNL     1       1.363   9.122  18.911  0.00  0.00    +0.000 C 
ENDBRANCH  15  17
ENDBRANCH  11  15
ENDBRANCH   1  12
BRANCH   2  18
ATOM     18  N   UNL     1       4.421   4.283  15.722  0.00  0.00    +0.000 N 
ATOM     19  C   UNL     1       5.801   4.238  15.599  0.00  0.00    +0.000 C 
ATOM     20  O   UNL     1       6.573   4.060  16.542  0.00  0.00    +0.000 OA
ATOM     21  H   UNL     1       3.865   4.029  14.913  0.00  0.00    +0.000 HD
BRANCH  19  22
ATOM     22  C   UNL     1       6.400   4.301  14.241  0.00  0.00    +0.000 A 
ATOM     23  C   UNL     1       5.861   3.463  13.250  0.00  0.00    +0.000 A 
ATOM     24  C   UNL     1       6.354   3.485  11.945  0.00  0.00    +0.000 A 
ATOM     25  C   UNL     1       7.397   4.345  11.614  0.00  0.00    +0.000 A 
ATOM     26  C   UNL     1       7.947   5.176  12.589  0.00  0.00    +0.000 A 
ATOM     27  C   UNL     1       7.443   5.162  13.894  0.00  0.00    +0.000 A 
ATOM     28  F   UNL     1       7.982   5.989  14.793  0.00  0.00    +0.000 F 
ENDBRANCH  19  22
ENDBRANCH   2  18
TORSDOF 5
ENDMDL
MODEL 4
REMARK VINA RESULT:      -7.6      1.105      1.220
REMARK  Name = 
REMARK  6 active torsions:
REMARK  status: ('A' for Active; 'I' for Inactive)
REMARK    1  A    between atoms: C_1  and  C_2
REMARK    2  A    between atoms: C_2  and  C_3
REMARK    3  A    between atoms: C_3  and  N_4
REMARK    4  A    between atoms: C_5  and  C_7
REMARK    5  A    between atoms: C_8  and  N_9
REMARK    6  A    between atoms: C_10  and  C_12
REMARK                            x       y       z     vdW  Elec       q    Type
REMARK                         _______ _______ _______ _____ _____    ______ ____
ROOT
ATOM      1  C   UNL     1       3.474   5.169  17.656  0.00  0.00    +0.000 A 
ATOM      2  C   UNL     1       3.618   6.441  18.181  0.00  0.00    +0.000 A 
ATOM      3  S   UNL     1       5.006   7.238  17.617  0.00  0.00    +0.000 S 
ATOM      4  C   UNL     1       5.454   5.920  16.629  0.00  0.00    +0.000 A 
ATOM      5  C   UNL     1       4.551   4.868  16.723  0.00  0.00    +0.000 A 
ATOM      6  C   UNL     1       4.639   3.592  15.919  0.00  0.00    +0.000 C 
ATOM      7  C   UNL     1       5.038   3.846  14.467  0.00  0.00    +0.000 C 
ATOM      8  C   UNL     1       6.545   4.000  14.262  0.00  0.00    +0.000 C 
ATOM      9  C   UNL     1       7.304   4.727  15.374  0.00  0.00    +0.000 C 
ATOM     10  C   UNL     1       6.683   6.062  15.774  0.00  0.00    +0.000 C 
ENDROOT
BRANCH   1  12
ATOM     11  N   UNL     1       2.621   3.309  18.882  0.00  0.00    +0.000 N 
ATOM     12  C   UNL     1       2.350   4.272  17.936  0.00  0.00    +0.000 C 
ATOM     13  O   UNL     1       1.251   4.399  17.407  0.00  0.00    +0.000 OA
ATOM     14  H   UNL     1       3.399   3.509  19.501  0.00  0.00    +0.000 HD
BRANCH  11  15
ATOM     15  C   UNL     1       1.602   2.389  19.336  0.00  0.00    +0.000 C 
BRANCH  15  17
ATOM     16  C   UNL     1       2.098   3.358  21.625  0.00  0.00    +0.000 C 
ATOM     17  C   UNL     1       1.033   2.811  20.686  0.00  0.00    +0.000 C 
ENDBRANCH  15  17
ENDBRANCH  11  15
ENDBRANCH   1  12
BRANCH   2  18
ATOM     18  N   UNL     1       2.870   7.105  19.147  0.00  0.00    +0.000 N 
ATOM     19  C   UNL     1       2.103   8.195  18.766  0.00  0.00    +0.000 C 
ATOM     20  O   UNL     1       2.047   8.632  17.615  0.00  0.00    +0.000 OA
ATOM     21  H   UNL     1       2.569   6.575  19.958  0.00  0.00    +0.000 HD
BRANCH  19  22
ATOM     22  C   UNL     1       1.206   8.824  19.769  0.00  0.00    +0.000 A 
ATOM     23  C   UNL     1       1.251   8.332  21.085  0.00  0.00    +0.000 A 
ATOM     24  C   UNL     1       0.457   8.889  22.088  0.00  0.00    +0.000 A 
ATOM     25  C   UNL     1      -0.396   9.947  21.787  0.00  0.00    +0.000 A 
ATOM     26  C   UNL     1      -0.456  10.440  20.484  0.00  0.00    +0.000 A 
ATOM     27  C   UNL     1       0.350   9.889  19.483  0.00  0.00    +0.000 A 
ATOM     28  F   UNL     1       0.279  10.404  18.252  0.00  0.00    +0.000 F 
ENDBRANCH  19  22
ENDBRANCH   2  18
TORSDOF 5
ENDMDL
MODEL 5
REMARK VINA RESULT:      -7.6      1.261      1.378
REMARK  Name = 
REMARK  6 active torsions:
REMARK  status: ('A' for Active; 'I' for Inactive)
REMARK    1  A    between atoms: C_1  and  C_2
REMARK    2  A    between atoms: C_2  and  C_3
REMARK    3  A    between atoms: C_3  and  N_4
REMARK    4  A    between atoms: C_5  and  C_7
REMARK    5  A    between atoms: C_8  and  N_9
REMARK    6  A    between atoms: C_10  and  C_12
REMARK                            x       y       z     vdW  Elec       q    Type
REMARK                         _______ _______ _______ _____ _____    ______ ____
ROOT
ATOM      1  C   UNL     1       2.971   5.600  17.838  0.00  0.00    +0.000 A 
ATOM      2  C   UNL     1       2.933   6.978  17.962  0.00  0.00    +0.000 A 
ATOM      3  S   UNL     1       4.350   7.734  17.413  0.00  0.00    +0.000 S 
ATOM      4  C   UNL     1       5.059   6.247  16.964  0.00  0.00    +0.000 A 
ATOM      5  C   UNL     1       4.222   5.170  17.229  0.00  0.00    +0.000 A 
ATOM      6  C   UNL     1       4.542   3.734  16.882  0.00  0.00    +0.000 C 
ATOM      7  C   UNL     1       5.192   3.600  15.507  0.00  0.00    +0.000 C 
ATOM      8  C   UNL     1       6.698   3.863  15.511  0.00  0.00    +0.000 C 
ATOM      9  C   UNL     1       7.185   4.966  16.453  0.00  0.00    +0.000 C 
ATOM     10  C   UNL     1       6.417   6.277  16.317  0.00  0.00    +0.000 C 
ENDROOT
BRANCH   1  12
ATOM     11  N   UNL     1       1.823   4.374  19.531  0.00  0.00    +0.000 N 
ATOM     12  C   UNL     1       1.874   4.699  18.194  0.00  0.00    +0.000 C 
ATOM     13  O   UNL     1       1.046   4.306  17.379  0.00  0.00    +0.000 OA
ATOM     14  H   UNL     1       2.303   5.014  20.155  0.00  0.00    +0.000 HD
BRANCH  11  15
ATOM     15  C   UNL     1       0.759   3.557  20.070  0.00  0.00    +0.000 C 
BRANCH  15  17
ATOM     16  C   UNL     1       2.740   2.769  21.443  0.00  0.00    +0.000 C 
ATOM     17  C   UNL     1       1.225   2.772  21.291  0.00  0.00    +0.000 C 
ENDBRANCH  15  17
ENDBRANCH  11  15
ENDBRANCH   1  12
BRANCH   2  18
ATOM     18  N   UNL     1       1.975   7.802  18.543  0.00  0.00    +0.000 N 
ATOM     19  C   UNL     1       1.865   7.825  19.925  0.00  0.00    +0.000 C 
ATOM     20  O   UNL     1       2.558   7.148  20.685  0.00  0.00    +0.000 OA
ATOM     21  H   UNL     1       1.691   8.629  18.032  0.00  0.00    +0.000 HD
BRANCH  19  22
ATOM     22  C   UNL     1       0.933   8.798  20.551  0.00  0.00    +0.000 A 
ATOM     23  C   UNL     1       0.570   8.586  21.891  0.00  0.00    +0.000 A 
ATOM     24  C   UNL     1      -0.281   9.471  22.555  0.00  0.00    +0.000 A 
ATOM     25  C   UNL     1      -0.783  10.582  21.882  0.00  0.00    +0.000 A 
ATOM     26  C   UNL     1      -0.437  10.800  20.550  0.00  0.00    +0.000 A 
ATOM     27  C   UNL     1       0.427   9.919  19.891  0.00  0.00    +0.000 A 
ATOM     28  F   UNL     1       0.751  10.177  18.621  0.00  0.00    +0.000 F 
ENDBRANCH  19  22
ENDBRANCH   2  18
TORSDOF 5
ENDMDL
MODEL 6
REMARK VINA RESULT:      -7.5      2.412      6.853
REMARK  Name = 
REMARK  6 active torsions:
REMARK  status: ('A' for Active; 'I' for Inactive)
REMARK    1  A    between atoms: C_1  and  C_2
REMARK    2  A    between atoms: C_2  and  C_3
REMARK    3  A    between atoms: C_3  and  N_4
REMARK    4  A    between atoms: C_5  and  C_7
REMARK    5  A    between atoms: C_8  and  N_9
REMARK    6  A    between atoms: C_10  and  C_12
REMARK                            x       y       z     vdW  Elec       q    Type
REMARK                         _______ _______ _______ _____ _____    ______ ____
ROOT
ATOM      1  C   UNL     1       2.113   6.817  19.554  0.00  0.00    +0.000 A 
ATOM      2  C   UNL     1       2.520   7.163  18.277  0.00  0.00    +0.000 A 
ATOM      3  S   UNL     1       2.088   8.748  17.850  0.00  0.00    +0.000 S 
ATOM      4  C   UNL     1       1.363   9.040  19.368  0.00  0.00    +0.000 A 
ATOM      5  C   UNL     1       1.445   7.935  20.206  0.00  0.00    +0.000 A 
ATOM      6  C   UNL     1       0.954   7.908  21.635  0.00  0.00    +0.000 C 
ATOM      7  C   UNL     1       1.284   9.195  22.387  0.00  0.00    +0.000 C 
ATOM      8  C   UNL     1       0.287  10.327  22.137  0.00  0.00    +0.000 C 
ATOM      9  C   UNL     1      -0.275  10.426  20.717  0.00  0.00    +0.000 C 
ATOM     10  C   UNL     1       0.793  10.408  19.628  0.00  0.00    +0.000 C 
ENDROOT
BRANCH   1  12
ATOM     11  N   UNL     1       1.256   4.807  20.511  0.00  0.00    +0.000 N 
ATOM     12  C   UNL     1       2.385   5.530  20.198  0.00  0.00    +0.000 C 
ATOM     13  O   UNL     1       3.521   5.114  20.396  0.00  0.00    +0.000 OA
ATOM     14  H   UNL     1       0.418   5.057  19.994  0.00  0.00    +0.000 HD
BRANCH  11  15
ATOM     15  C   UNL     1       1.341   3.481  21.080  0.00  0.00    +0.000 C 
BRANCH  15  17
ATOM     16  C   UNL     1       0.797   2.516  18.800  0.00  0.00    +0.000 C 
ATOM     17  C   UNL     1       1.701   2.444  20.022  0.00  0.00    +0.000 C 
ENDBRANCH  15  17
ENDBRANCH  11  15
ENDBRANCH   1  12
BRANCH   2  18
ATOM     18  N   UNL     1       3.124   6.395  17.288  0.00  0.00    +0.000 N 
ATOM     19  C   UNL     1       4.508   6.368  17.216  0.00  0.00    +0.000 C 
ATOM     20  O   UNL     1       5.252   6.995  17.972  0.00  0.00    +0.000 OA
ATOM     21  H   UNL     1       2.616   5.591  16.938  0.00  0.00    +0.000 HD
BRANCH  19  22
ATOM     22  C   UNL     1       5.155   5.449  16.244  0.00  0.00    +0.000 A 
ATOM     23  C   UNL     1       5.953   6.019  15.238  0.00  0.00    +0.000 A 
ATOM     24  C   UNL     1       6.614   5.219  14.305  0.00  0.00    +0.000 A 
ATOM     25  C   UNL     1       6.481   3.835  14.364  0.00  0.00    +0.000 A 
ATOM     26  C   UNL     1       5.686   3.257  15.353  0.00  0.00    +0.000 A 
ATOM     27  C   UNL     1       5.036   4.059  16.295  0.00  0.00    +0.000 A 
ATOM     28  F   UNL     1       4.301   3.464  17.239  0.00  0.00    +0.000 F 
ENDBRANCH  19  22
ENDBRANCH   2  18
TORSDOF 5
ENDMDL
MODEL 7
REMARK VINA RESULT:      -7.5      1.465      1.705
REMARK  Name = 
REMARK  6 active torsions:
REMARK  status: ('A' for Active; 'I' for Inactive)
REMARK    1  A    between atoms: C_1  and  C_2
REMARK    2  A    between atoms: C_2  and  C_3
REMARK    3  A    between atoms: C_3  and  N_4
REMARK    4  A    between atoms: C_5  and  C_7
REMARK    5  A    between atoms: C_8  and  N_9
REMARK    6  A    between atoms: C_10  and  C_12
REMARK                            x       y       z     vdW  Elec       q    Type
REMARK                         _______ _______ _______ _____ _____    ______ ____
ROOT
ATOM      1  C   UNL     1       3.520   5.202  17.544  0.00  0.00    +0.000 A 
ATOM      2  C   UNL     1       3.684   6.471  18.070  0.00  0.00    +0.000 A 
ATOM      3  S   UNL     1       5.082   7.249  17.503  0.00  0.00    +0.000 S 
ATOM      4  C   UNL     1       5.507   5.926  16.511  0.00  0.00    +0.000 A 
ATOM      5  C   UNL     1       4.589   4.887  16.606  0.00  0.00    +0.000 A 
ATOM      6  C   UNL     1       4.656   3.611  15.801  0.00  0.00    +0.000 C 
ATOM      7  C   UNL     1       5.054   3.861  14.348  0.00  0.00    +0.000 C 
ATOM      8  C   UNL     1       6.563   3.993  14.138  0.00  0.00    +0.000 C 
ATOM      9  C   UNL     1       7.336   4.708  15.248  0.00  0.00    +0.000 C 
ATOM     10  C   UNL     1       6.735   6.051  15.652  0.00  0.00    +0.000 C 
ENDROOT
BRANCH   1  12
ATOM     11  N   UNL     1       2.653   3.333  18.746  0.00  0.00    +0.000 N 
ATOM     12  C   UNL     1       2.384   4.321  17.826  0.00  0.00    +0.000 C 
ATOM     13  O   UNL     1       1.278   4.481  17.321  0.00  0.00    +0.000 OA
ATOM     14  H   UNL     1       3.447   3.505  19.355  0.00  0.00    +0.000 HD
BRANCH  11  15
ATOM     15  C   UNL     1       1.626   2.423  19.200  0.00  0.00    +0.000 C 
BRANCH  15  17
ATOM     16  C   UNL     1       1.746   2.744  21.712  0.00  0.00    +0.000 C 
ATOM     17  C   UNL     1       0.926   2.952  20.447  0.00  0.00    +0.000 C 
ENDBRANCH  15  17
ENDBRANCH  11  15
ENDBRANCH   1  12
BRANCH   2  18
ATOM     18  N   UNL     1       2.949   7.144  19.040  0.00  0.00    +0.000 N 
ATOM     19  C   UNL     1       2.171   8.226  18.657  0.00  0.00    +0.000 C 
ATOM     20  O   UNL     1       2.093   8.647  17.502  0.00  0.00    +0.000 OA
ATOM     21  H   UNL     1       2.665   6.624  19.862  0.00  0.00    +0.000 HD
BRANCH  19  22
ATOM     22  C   UNL     1       1.288   8.864  19.667  0.00  0.00    +0.000 A 
ATOM     23  C   UNL     1       0.765  10.134  19.369  0.00  0.00    +0.000 A 
ATOM     24  C   UNL     1      -0.092  10.784  20.257  0.00  0.00    +0.000 A 
ATOM     25  C   UNL     1      -0.437  10.172  21.459  0.00  0.00    +0.000 A 
ATOM     26  C   UNL     1       0.081   8.916  21.770  0.00  0.00    +0.000 A 
ATOM     27  C   UNL     1       0.929   8.259  20.873  0.00  0.00    +0.000 A 
ATOM     28  F   UNL     1       1.385   7.047  21.199  0.00  0.00    +0.000 F 
ENDBRANCH  19  22
ENDBRANCH   2  18
TORSDOF 5
ENDMDL
MODEL 8
REMARK VINA RESULT:      -7.4      3.202      7.589
REMARK  Name = 
REMARK  6 active torsions:
REMARK  status: ('A' for Active; 'I' for Inactive)
REMARK    1  A    between atoms: C_1  and  C_2
REMARK    2  A    between atoms: C_2  and  C_3
REMARK    3  A    between atoms: C_3  and  N_4
REMARK    4  A    between atoms: C_5  and  C_7
REMARK    5  A    between atoms: C_8  and  N_9
REMARK    6  A    between atoms: C_10  and  C_12
REMARK                            x       y       z     vdW  Elec       q    Type
REMARK                         _______ _______ _______ _____ _____    ______ ____
ROOT
ATOM      1  C   UNL     1       3.657   5.166  17.897  0.00  0.00    +0.000 A 
ATOM      2  C   UNL     1       3.998   4.268  16.900  0.00  0.00    +0.000 A 
ATOM      3  S   UNL     1       3.774   2.650  17.360  0.00  0.00    +0.000 S 
ATOM      4  C   UNL     1       3.186   3.090  18.902  0.00  0.00    +0.000 A 
ATOM      5  C   UNL     1       3.158   4.468  19.074  0.00  0.00    +0.000 A 
ATOM      6  C   UNL     1       2.626   5.165  20.305  0.00  0.00    +0.000 C 
ATOM      7  C   UNL     1       1.347   4.518  20.832  0.00  0.00    +0.000 C 
ATOM      8  C   UNL     1       1.595   3.294  21.713  0.00  0.00    +0.000 C 
ATOM      9  C   UNL     1       2.761   2.393  21.301  0.00  0.00    +0.000 C 
ATOM     10  C   UNL     1       2.740   1.993  19.829  0.00  0.00    +0.000 C 
ENDROOT
BRANCH   1  12
ATOM     11  N   UNL     1       2.498   7.250  17.940  0.00  0.00    +0.000 N 
ATOM     12  C   UNL     1       3.711   6.623  17.762  0.00  0.00    +0.000 C 
ATOM     13  O   UNL     1       4.754   7.233  17.556  0.00  0.00    +0.000 OA
ATOM     14  H   UNL     1       1.800   6.719  18.451  0.00  0.00    +0.000 HD
BRANCH  11  15
ATOM     15  C   UNL     1       2.383   8.691  17.919  0.00  0.00    +0.000 C 
BRANCH  15  17
ATOM     16  C   UNL     1       1.485   8.386  20.270  0.00  0.00    +0.000 C 
ATOM     17  C   UNL     1       1.404   9.186  18.978  0.00  0.00    +0.000 C 
ENDBRANCH  15  17
ENDBRANCH  11  15
ENDBRANCH   1  12
BRANCH   2  18
ATOM     18  N   UNL     1       4.573   4.485  15.654  0.00  0.00    +0.000 N 
ATOM     19  C   UNL     1       5.953   4.416  15.533  0.00  0.00    +0.000 C 
ATOM     20  O   UNL     1       6.718   4.184  16.471  0.00  0.00    +0.000 OA
ATOM     21  H   UNL     1       4.016   4.275  14.833  0.00  0.00    +0.000 HD
BRANCH  19  22
ATOM     22  C   UNL     1       6.559   4.520  14.181  0.00  0.00    +0.000 A 
ATOM     23  C   UNL     1       7.585   5.461  13.995  0.00  0.00    +0.000 A 
ATOM     24  C   UNL     1       8.220   5.598  12.760  0.00  0.00    +0.000 A 
ATOM     25  C   UNL     1       7.832   4.795  11.690  0.00  0.00    +0.000 A 
ATOM     26  C   UNL     1       6.810   3.863  11.859  0.00  0.00    +0.000 A 
ATOM     27  C   UNL     1       6.184   3.717  13.102  0.00  0.00    +0.000 A 
ATOM     28  F   UNL     1       5.224   2.797  13.227  0.00  0.00    +0.000 F 
ENDBRANCH  19  22
ENDBRANCH   2  18
TORSDOF 5
ENDMDL
MODEL 9
REMARK VINA RESULT:      -7.4      4.165      7.907
REMARK  Name = 
REMARK  6 active torsions:
REMARK  status: ('A' for Active; 'I' for Inactive)
REMARK    1  A    between atoms: C_1  and  C_2
REMARK    2  A    between atoms: C_2  and  C_3
REMARK    3  A    between atoms: C_3  and  N_4
REMARK    4  A    between atoms: C_5  and  C_7
REMARK    5  A    between atoms: C_8  and  N_9
REMARK    6  A    between atoms: C_10  and  C_12
REMARK                            x       y       z     vdW  Elec       q    Type
REMARK                         _______ _______ _______ _____ _____    ______ ____
ROOT
ATOM      1  C   UNL     1       3.749   4.917  17.876  0.00  0.00    +0.000 A 
ATOM      2  C   UNL     1       3.750   4.042  16.803  0.00  0.00    +0.000 A 
ATOM      3  S   UNL     1       3.060   2.537  17.174  0.00  0.00    +0.000 S 
ATOM      4  C   UNL     1       2.710   3.007  18.777  0.00  0.00    +0.000 A 
ATOM      5  C   UNL     1       3.116   4.310  19.038  0.00  0.00    +0.000 A 
ATOM      6  C   UNL     1       2.884   5.032  20.345  0.00  0.00    +0.000 C 
ATOM      7  C   UNL     1       1.494   4.764  20.918  0.00  0.00    +0.000 C 
ATOM      8  C   UNL     1       1.393   3.455  21.701  0.00  0.00    +0.000 C 
ATOM      9  C   UNL     1       2.204   2.279  21.151  0.00  0.00    +0.000 C 
ATOM     10  C   UNL     1       1.991   2.026  19.662  0.00  0.00    +0.000 C 
ENDROOT
BRANCH   1  12
ATOM     11  N   UNL     1       5.606   6.398  17.657  0.00  0.00    +0.000 N 
ATOM     12  C   UNL     1       4.244   6.294  17.831  0.00  0.00    +0.000 C 
ATOM     13  O   UNL     1       3.503   7.269  17.895  0.00  0.00    +0.000 OA
ATOM     14  H   UNL     1       6.061   5.581  17.260  0.00  0.00    +0.000 HD
BRANCH  11  15
ATOM     15  C   UNL     1       6.254   7.682  17.512  0.00  0.00    +0.000 C 
BRANCH  15  17
ATOM     16  C   UNL     1       8.055   6.416  18.769  0.00  0.00    +0.000 C 
ATOM     17  C   UNL     1       7.733   7.602  17.872  0.00  0.00    +0.000 C 
ENDBRANCH  15  17
ENDBRANCH  11  15
ENDBRANCH   1  12
BRANCH   2  18
ATOM     18  N   UNL     1       4.305   4.175  15.536  0.00  0.00    +0.000 N 
ATOM     19  C   UNL     1       5.683   4.098  15.398  0.00  0.00    +0.000 C 
ATOM     20  O   UNL     1       6.463   3.930  16.337  0.00  0.00    +0.000 OA
ATOM     21  H   UNL     1       3.735   3.911  14.740  0.00  0.00    +0.000 HD
BRANCH  19  22
ATOM     22  C   UNL     1       6.267   4.112  14.032  0.00  0.00    +0.000 A 
ATOM     23  C   UNL     1       5.691   3.267  13.067  0.00  0.00    +0.000 A 
ATOM     24  C   UNL     1       6.168   3.244  11.756  0.00  0.00    +0.000 A 
ATOM     25  C   UNL     1       7.232   4.066  11.393  0.00  0.00    +0.000 A 
ATOM     26  C   UNL     1       7.817   4.902  12.342  0.00  0.00    +0.000 A 
ATOM     27  C   UNL     1       7.329   4.934  13.652  0.00  0.00    +0.000 A 
ATOM     28  F   UNL     1       7.903   5.766  14.525  0.00  0.00    +0.000 F 
ENDBRANCH  19  22
ENDBRANCH   2  18
TORSDOF 5
ENDMDL
