MODEL 1
REMARK VINA RESULT:      -8.1      0.000      0.000
REMARK  Name = 
REMARK  10 active torsions:
REMARK  status: ('A' for Active; 'I' for Inactive)
REMARK    1  A    between atoms: C_1  and  C_2
REMARK    2  A    between atoms: C_2  and  C_3
REMARK    3  A    between atoms: N_5  and  C_6
REMARK    4  A    between atoms: C_8  and  C_9
REMARK    5  A    between atoms: C_9  and  N_10
REMARK    6  A    between atoms: N_10  and  C_11
REMARK    7  A    between atoms: C_12  and  C_13
REMARK    8  A    between atoms: C_15  and  C_16
REMARK    9  A    between atoms: N_18  and  C_19
REMARK   10  A    between atoms: C_28  and  O_29
REMARK                            x       y       z     vdW  Elec       q    Type
REMARK                         _______ _______ _______ _____ _____    ______ ____
ROOT
ATOM      1  C   UNL     1       3.752   7.751  17.461  0.00  0.00    +0.000 C 
ENDROOT
BRANCH   1   4
ATOM      2  C   UNL     1       6.071   5.211  15.813  0.00  0.00    +0.000 A 
ATOM      3  C   UNL     1       5.037   6.118  16.048  0.00  0.00    +0.000 A 
ATOM      4  C   UNL     1       4.936   6.832  17.254  0.00  0.00    +0.000 A 
ATOM      5  C   UNL     1       5.917   6.644  18.234  0.00  0.00    +0.000 A 
ATOM      6  C   UNL     1       6.941   5.718  18.020  0.00  0.00    +0.000 A 
ATOM      7 CL   UNL     1       8.120   5.466  19.259  0.00  0.00    +0.000 Cl
ATOM      8  C   UNL     1       7.012   4.994  16.824  0.00  0.00    +0.000 A 
BRANCH   2  11
ATOM      9  C   UNL     1       7.103   4.737  13.601  0.00  0.00    +0.000 C 
ATOM     10  O   UNL     1       7.999   5.576  13.657  0.00  0.00    +0.000 OA
ATOM     11  N   UNL     1       6.185   4.488  14.600  0.00  0.00    +0.000 N 
ATOM     12  H   UNL     1       5.616   3.646  14.554  0.00  0.00    +0.000 HD
BRANCH   9  14
ATOM     13  C   UNL     1       5.520   3.289  12.325  0.00  0.00    +0.000 C 
ATOM     14  C   UNL     1       6.930   3.862  12.379  0.00  0.00    +0.000 C 
ENDBRANCH   9  14
ENDBRANCH   2  11
BRANCH   8  15
ATOM     15  O   UNL     1       8.008   4.069  16.602  0.00  0.00    +0.000 OA
ATOM     16  H   UNL     1       7.634   3.195  16.833  0.00  0.00    +0.000 HD
ENDBRANCH   8  15
ENDBRANCH   1   4
BRANCH   1  17
ATOM     17  N   UNL     1       2.534   6.979  17.686  0.00  0.00    +0.000 N 
ATOM     18  H   UNL     1       2.270   6.473  16.837  0.00  0.00    +0.000 HD
BRANCH  17  19
ATOM     19  C   UNL     1       2.360   6.270  18.857  0.00  0.00    +0.000 A 
ATOM     20  C   UNL     1       2.559   4.929  19.159  0.00  0.00    +0.000 A 
ATOM     21  C   UNL     1       2.208   4.765  20.510  0.00  0.00    +0.000 A 
ATOM     22  C   UNL     1       2.175   3.527  21.331  0.00  0.00    +0.000 C 
ATOM     23  N   UNL     1       1.841   5.918  21.061  0.00  0.00    +0.000 NA
ATOM     24  N   UNL     1       1.870   6.843  20.055  0.00  0.00    +0.000 N 
BRANCH  24  25
ATOM     25  C   UNL     1       1.421   8.172  20.355  0.00  0.00    +0.000 A 
ATOM     26  C   UNL     1       1.184   8.518  21.700  0.00  0.00    +0.000 A 
ATOM     27  C   UNL     1       0.713   9.788  22.046  0.00  0.00    +0.000 A 
ATOM     28  C   UNL     1       0.466  10.729  21.052  0.00  0.00    +0.000 A 
ATOM     29  C   UNL     1       0.702  10.403  19.720  0.00  0.00    +0.000 A 
ATOM     30  C   UNL     1       1.185   9.137  19.369  0.00  0.00    +0.000 A 
ENDBRANCH  24  25
BRANCH  20  31
ATOM     31  C   UNL     1       2.968   3.884  18.284  0.00  0.00    +0.000 C 
ATOM     32  N   UNL     1       3.307   3.036  17.564  0.00  0.00    +0.000 NA
ENDBRANCH  20  31
ENDBRANCH  17  19
ENDBRANCH   1  17
TORSDOF 8
ENDMDL
MODEL 2
REMARK VINA RESULT:      -8.1      4.338      7.522
REMARK  Name = 
REMARK  10 active torsions:
REMARK  status: ('A' for Active; 'I' for Inactive)
REMARK    1  A    between atoms: C_1  and  C_2
REMARK    2  A    between atoms: C_2  and  C_3
REMARK    3  A    between atoms: N_5  and  C_6
REMARK    4  A    between atoms: C_8  and  C_9
REMARK    5  A    between atoms: C_9  and  N_10
REMARK    6  A    between atoms: N_10  and  C_11
REMARK    7  A    between atoms: C_12  and  C_13
REMARK    8  A    between atoms: C_15  and  C_16
REMARK    9  A    between atoms: N_18  and  C_19
REMARK   10  A    between atoms: C_28  and  O_29
REMARK                            x       y       z     vdW  Elec       q    Type
REMARK                         _______ _______ _______ _____ _____    ______ ____
ROOT
ATOM      1  C   UNL     1       2.673   7.407  18.570  0.00  0.00    +0.000 C 
ENDROOT
BRANCH   1   4
ATOM      2  C   UNL     1      -0.116  10.007  18.566  0.00  0.00    +0.000 A 
ATOM      3  C   UNL     1       0.838   9.074  18.160  0.00  0.00    +0.000 A 
ATOM      4  C   UNL     1       1.614   8.356  19.086  0.00  0.00    +0.000 A 
ATOM      5  C   UNL     1       1.401   8.568  20.453  0.00  0.00    +0.000 A 
ATOM      6  C   UNL     1       0.468   9.520  20.869  0.00  0.00    +0.000 A 
ATOM      7 CL   UNL     1       0.249   9.800  22.561  0.00  0.00    +0.000 Cl
ATOM      8  C   UNL     1      -0.278  10.247  19.934  0.00  0.00    +0.000 A 
BRANCH   2  11
ATOM      9  C   UNL     1      -2.164  10.374  17.203  0.00  0.00    +0.000 C 
ATOM     10  O   UNL     1      -2.805   9.408  17.610  0.00  0.00    +0.000 OA
ATOM     11  N   UNL     1      -0.907  10.734  17.642  0.00  0.00    +0.000 N 
ATOM     12  H   UNL     1      -0.543  11.654  17.405  0.00  0.00    +0.000 HD
BRANCH   9  14
ATOM     13  C   UNL     1      -3.329  10.490  14.998  0.00  0.00    +0.000 C 
ATOM     14  C   UNL     1      -2.731  11.295  16.146  0.00  0.00    +0.000 C 
ENDBRANCH   9  14
ENDBRANCH   2  11
BRANCH   8  15
ATOM     15  O   UNL     1      -1.194  11.198  20.327  0.00  0.00    +0.000 OA
ATOM     16  H   UNL     1      -1.213  11.875  19.623  0.00  0.00    +0.000 HD
ENDBRANCH   8  15
ENDBRANCH   1   4
BRANCH   1  17
ATOM     17  N   UNL     1       2.972   6.379  19.562  0.00  0.00    +0.000 N 
ATOM     18  H   UNL     1       2.270   6.386  20.306  0.00  0.00    +0.000 HD
BRANCH  17  19
ATOM     19  C   UNL     1       3.379   5.121  19.166  0.00  0.00    +0.000 A 
ATOM     20  C   UNL     1       2.727   3.895  19.182  0.00  0.00    +0.000 A 
ATOM     21  C   UNL     1       3.632   2.952  18.668  0.00  0.00    +0.000 A 
ATOM     22  C   UNL     1       3.476   1.482  18.516  0.00  0.00    +0.000 C 
ATOM     23  N   UNL     1       4.778   3.522  18.308  0.00  0.00    +0.000 NA
ATOM     24  N   UNL     1       4.670   4.840  18.657  0.00  0.00    +0.000 N 
BRANCH  24  25
ATOM     25  C   UNL     1       5.817   5.679  18.467  0.00  0.00    +0.000 A 
ATOM     26  C   UNL     1       5.806   6.607  17.406  0.00  0.00    +0.000 A 
ATOM     27  C   UNL     1       6.910   7.427  17.154  0.00  0.00    +0.000 A 
ATOM     28  C   UNL     1       8.044   7.327  17.955  0.00  0.00    +0.000 A 
ATOM     29  C   UNL     1       8.065   6.420  19.010  0.00  0.00    +0.000 A 
ATOM     30  C   UNL     1       6.957   5.605  19.274  0.00  0.00    +0.000 A 
ENDBRANCH  24  25
BRANCH  20  31
ATOM     31  C   UNL     1       1.426   3.600  19.678  0.00  0.00    +0.000 C 
ATOM     32  N   UNL     1       0.363   3.353  20.079  0.00  0.00    +0.000 NA
ENDBRANCH  20  31
ENDBRANCH  17  19
ENDBRANCH   1  17
TORSDOF 8
ENDMDL
MODEL 3
REMARK VINA RESULT:      -7.9      1.188      3.906
REMARK  Name = 
REMARK  10 active torsions:
REMARK  status: ('A' for Active; 'I' for Inactive)
REMARK    1  A    between atoms: C_1  and  C_2
REMARK    2  A    between atoms: C_2  and  C_3
REMARK    3  A    between atoms: N_5  and  C_6
REMARK    4  A    between atoms: C_8  and  C_9
REMARK    5  A    between atoms: C_9  and  N_10
REMARK    6  A    between atoms: N_10  and  C_11
REMARK    7  A    between atoms: C_12  and  C_13
REMARK    8  A    between atoms: C_15  and  C_16
REMARK    9  A    between atoms: N_18  and  C_19
REMARK   10  A    between atoms: C_28  and  O_29
REMARK                            x       y       z     vdW  Elec       q    Type
REMARK                         _______ _______ _______ _____ _____    ______ ____
ROOT
ATOM      1  C   UNL     1       4.017   8.155  17.111  0.00  0.00    +0.000 C 
ENDROOT
BRANCH   1   4
ATOM      2  C   UNL     1       5.950   5.111  15.869  0.00  0.00    +0.000 A 
ATOM      3  C   UNL     1       5.044   6.168  15.966  0.00  0.00    +0.000 A 
ATOM      4  C   UNL     1       5.071   7.072  17.042  0.00  0.00    +0.000 A 
ATOM      5  C   UNL     1       6.053   6.919  18.027  0.00  0.00    +0.000 A 
ATOM      6  C   UNL     1       6.948   5.848  17.954  0.00  0.00    +0.000 A 
ATOM      7 CL   UNL     1       8.126   5.650  19.203  0.00  0.00    +0.000 Cl
ATOM      8  C   UNL     1       6.890   4.940  16.890  0.00  0.00    +0.000 A 
BRANCH   2  11
ATOM      9  C   UNL     1       6.592   4.361  13.586  0.00  0.00    +0.000 C 
ATOM     10  O   UNL     1       7.343   5.295  13.314  0.00  0.00    +0.000 OA
ATOM     11  N   UNL     1       5.935   4.196  14.788  0.00  0.00    +0.000 N 
ATOM     12  H   UNL     1       5.503   3.299  14.999  0.00  0.00    +0.000 HD
BRANCH   9  14
ATOM     13  C   UNL     1       4.983   3.489  11.889  0.00  0.00    +0.000 C 
ATOM     14  C   UNL     1       6.320   3.263  12.583  0.00  0.00    +0.000 C 
ENDBRANCH   9  14
ENDBRANCH   2  11
BRANCH   8  15
ATOM     15  O   UNL     1       7.756   3.873  16.809  0.00  0.00    +0.000 OA
ATOM     16  H   UNL     1       8.595   4.220  16.446  0.00  0.00    +0.000 HD
ENDBRANCH   8  15
ENDBRANCH   1   4
BRANCH   1  17
ATOM     17  N   UNL     1       2.702   7.578  17.374  0.00  0.00    +0.000 N 
ATOM     18  H   UNL     1       2.567   6.730  16.818  0.00  0.00    +0.000 HD
BRANCH  17  19
ATOM     19  C   UNL     1       2.214   7.506  18.663  0.00  0.00    +0.000 A 
ATOM     20  C   UNL     1       1.656   8.471  19.492  0.00  0.00    +0.000 A 
ATOM     21  C   UNL     1       1.348   7.829  20.704  0.00  0.00    +0.000 A 
ATOM     22  C   UNL     1       0.789   8.401  21.956  0.00  0.00    +0.000 C 
ATOM     23  N   UNL     1       1.648   6.535  20.660  0.00  0.00    +0.000 NA
ATOM     24  N   UNL     1       2.233   6.324  19.442  0.00  0.00    +0.000 N 
BRANCH  24  25
ATOM     25  C   UNL     1       2.748   5.014  19.164  0.00  0.00    +0.000 A 
ATOM     26  C   UNL     1       3.941   4.610  19.797  0.00  0.00    +0.000 A 
ATOM     27  C   UNL     1       4.505   3.358  19.537  0.00  0.00    +0.000 A 
ATOM     28  C   UNL     1       3.890   2.494  18.637  0.00  0.00    +0.000 A 
ATOM     29  C   UNL     1       2.708   2.878  18.010  0.00  0.00    +0.000 A 
ATOM     30  C   UNL     1       2.132   4.126  18.276  0.00  0.00    +0.000 A 
ENDBRANCH  24  25
BRANCH  20  31
ATOM     31  C   UNL     1       1.479   9.858  19.228  0.00  0.00    +0.000 C 
ATOM     32  N   UNL     1       1.342  10.992  19.013  0.00  0.00    +0.000 NA
ENDBRANCH  20  31
ENDBRANCH  17  19
ENDBRANCH   1  17
TORSDOF 8
ENDMDL
MODEL 4
REMARK VINA RESULT:      -7.8      4.334      7.707
REMARK  Name = 
REMARK  10 active torsions:
REMARK  status: ('A' for Active; 'I' for Inactive)
REMARK    1  A    between atoms: C_1  and  C_2
REMARK    2  A    between atoms: C_2  and  C_3
REMARK    3  A    between atoms: N_5  and  C_6
REMARK    4  A    between atoms: C_8  and  C_9
REMARK    5  A    between atoms: C_9  and  N_10
REMARK    6  A    between atoms: N_10  and  C_11
REMARK    7  A    between atoms: C_12  and  C_13
REMARK    8  A    between atoms: C_15  and  C_16
REMARK    9  A    between atoms: N_18  and  C_19
REMARK   10  A    between atoms: C_28  and  O_29
REMARK                            x       y       z     vdW  Elec       q    Type
REMARK                         _______ _______ _______ _____ _____    ______ ____
ROOT
ATOM      1  C   UNL     1       2.806   7.713  17.844  0.00  0.00    +0.000 C 
ENDROOT
BRANCH   1   4
ATOM      2  C   UNL     1      -0.128  10.091  18.376  0.00  0.00    +0.000 A 
ATOM      3  C   UNL     1       0.838   9.273  17.787  0.00  0.00    +0.000 A 
ATOM      4  C   UNL     1       1.747   8.527  18.554  0.00  0.00    +0.000 A 
ATOM      5  C   UNL     1       1.662   8.588  19.949  0.00  0.00    +0.000 A 
ATOM      6  C   UNL     1       0.718   9.425  20.550  0.00  0.00    +0.000 A 
ATOM      7 CL   UNL     1       0.656   9.521  22.275  0.00  0.00    +0.000 Cl
ATOM      8  C   UNL     1      -0.164  10.183  19.771  0.00  0.00    +0.000 A 
BRANCH   2  11
ATOM      9  C   UNL     1      -2.330  10.447  17.277  0.00  0.00    +0.000 C 
ATOM     10  O   UNL     1      -2.870   9.411  17.657  0.00  0.00    +0.000 OA
ATOM     11  N   UNL     1      -1.053  10.845  17.612  0.00  0.00    +0.000 N 
ATOM     12  H   UNL     1      -0.765  11.803  17.425  0.00  0.00    +0.000 HD
BRANCH   9  14
ATOM     13  C   UNL     1      -4.536  11.486  16.740  0.00  0.00    +0.000 C 
ATOM     14  C   UNL     1      -3.058  11.420  16.376  0.00  0.00    +0.000 C 
ENDBRANCH   9  14
ENDBRANCH   2  11
BRANCH   8  15
ATOM     15  O   UNL     1      -1.093  11.022  20.347  0.00  0.00    +0.000 OA
ATOM     16  H   UNL     1      -1.891  10.483  20.512  0.00  0.00    +0.000 HD
ENDBRANCH   8  15
ENDBRANCH   1   4
BRANCH   1  17
ATOM     17  N   UNL     1       3.749   7.145  18.801  0.00  0.00    +0.000 N 
ATOM     18  H   UNL     1       3.298   7.012  19.710  0.00  0.00    +0.000 HD
BRANCH  17  19
ATOM     19  C   UNL     1       4.599   6.125  18.426  0.00  0.00    +0.000 A 
ATOM     20  C   UNL     1       5.865   6.144  17.855  0.00  0.00    +0.000 A 
ATOM     21  C   UNL     1       6.248   4.803  17.680  0.00  0.00    +0.000 A 
ATOM     22  C   UNL     1       7.479   4.249  17.060  0.00  0.00    +0.000 C 
ATOM     23  N   UNL     1       5.318   3.969  18.135  0.00  0.00    +0.000 NA
ATOM     24  N   UNL     1       4.275   4.752  18.543  0.00  0.00    +0.000 N 
BRANCH  24  25
ATOM     25  C   UNL     1       3.082   4.095  18.995  0.00  0.00    +0.000 A 
ATOM     26  C   UNL     1       2.336   3.338  18.070  0.00  0.00    +0.000 A 
ATOM     27  C   UNL     1       1.148   2.706  18.449  0.00  0.00    +0.000 A 
ATOM     28  C   UNL     1       0.685   2.826  19.755  0.00  0.00    +0.000 A 
ATOM     29  C   UNL     1       1.416   3.565  20.680  0.00  0.00    +0.000 A 
ATOM     30  C   UNL     1       2.612   4.190  20.310  0.00  0.00    +0.000 A 
ENDBRANCH  24  25
BRANCH  20  31
ATOM     31  C   UNL     1       6.627   7.276  17.450  0.00  0.00    +0.000 C 
ATOM     32  N   UNL     1       7.255   8.196  17.119  0.00  0.00    +0.000 NA
ENDBRANCH  20  31
ENDBRANCH  17  19
ENDBRANCH   1  17
TORSDOF 8
ENDMDL
MODEL 5
REMARK VINA RESULT:      -7.7      4.309      7.509
REMARK  Name = 
REMARK  10 active torsions:
REMARK  status: ('A' for Active; 'I' for Inactive)
REMARK    1  A    between atoms: C_1  and  C_2
REMARK    2  A    between atoms: C_2  and  C_3
REMARK    3  A    between atoms: N_5  and  C_6
REMARK    4  A    between atoms: C_8  and  C_9
REMARK    5  A    between atoms: C_9  and  N_10
REMARK    6  A    between atoms: N_10  and  C_11
REMARK    7  A    between atoms: C_12  and  C_13
REMARK    8  A    between atoms: C_15  and  C_16
REMARK    9  A    between atoms: N_18  and  C_19
REMARK   10  A    between atoms: C_28  and  O_29
REMARK                            x       y       z     vdW  Elec       q    Type
REMARK                         _______ _______ _______ _____ _____    ______ ____
ROOT
ATOM      1  C   UNL     1       2.638   7.061  18.875  0.00  0.00    +0.000 C 
ENDROOT
BRANCH   1   4
ATOM      2  C   UNL     1       0.075   9.882  18.976  0.00  0.00    +0.000 A 
ATOM      3  C   UNL     1       0.952   8.891  18.533  0.00  0.00    +0.000 A 
ATOM      4  C   UNL     1       1.657   8.070  19.429  0.00  0.00    +0.000 A 
ATOM      5  C   UNL     1       1.451   8.237  20.802  0.00  0.00    +0.000 A 
ATOM      6  C   UNL     1       0.595   9.244  21.258  0.00  0.00    +0.000 A 
ATOM      7 CL   UNL     1       0.386   9.464  22.959  0.00  0.00    +0.000 Cl
ATOM      8  C   UNL     1      -0.079  10.072  20.352  0.00  0.00    +0.000 A 
BRANCH   2  11
ATOM      9  C   UNL     1      -1.893  10.442  17.561  0.00  0.00    +0.000 C 
ATOM     10  O   UNL     1      -2.587   9.473  17.858  0.00  0.00    +0.000 OA
ATOM     11  N   UNL     1      -0.644  10.713  18.082  0.00  0.00    +0.000 N 
ATOM     12  H   UNL     1      -0.235  11.634  17.938  0.00  0.00    +0.000 HD
BRANCH   9  14
ATOM     13  C   UNL     1      -3.679  11.016  15.915  0.00  0.00    +0.000 C 
ATOM     14  C   UNL     1      -2.375  11.468  16.560  0.00  0.00    +0.000 C 
ENDBRANCH   9  14
ENDBRANCH   2  11
BRANCH   8  15
ATOM     15  O   UNL     1      -0.916  11.077  20.784  0.00  0.00    +0.000 OA
ATOM     16  H   UNL     1      -1.824  10.806  20.546  0.00  0.00    +0.000 HD
ENDBRANCH   8  15
ENDBRANCH   1   4
BRANCH   1  17
ATOM     17  N   UNL     1       3.177   6.224  19.944  0.00  0.00    +0.000 N 
ATOM     18  H   UNL     1       2.565   6.255  20.764  0.00  0.00    +0.000 HD
BRANCH  17  19
ATOM     19  C   UNL     1       3.700   4.979  19.663  0.00  0.00    +0.000 A 
ATOM     20  C   UNL     1       3.232   3.700  19.936  0.00  0.00    +0.000 A 
ATOM     21  C   UNL     1       4.186   2.805  19.424  0.00  0.00    +0.000 A 
ATOM     22  C   UNL     1       4.217   1.321  19.493  0.00  0.00    +0.000 C 
ATOM     23  N   UNL     1       5.186   3.448  18.829  0.00  0.00    +0.000 NA
ATOM     24  N   UNL     1       4.942   4.780  19.012  0.00  0.00    +0.000 N 
BRANCH  24  25
ATOM     25  C   UNL     1       5.927   5.712  18.547  0.00  0.00    +0.000 A 
ATOM     26  C   UNL     1       7.176   5.756  19.199  0.00  0.00    +0.000 A 
ATOM     27  C   UNL     1       8.161   6.668  18.809  0.00  0.00    +0.000 A 
ATOM     28  C   UNL     1       7.910   7.554  17.765  0.00  0.00    +0.000 A 
ATOM     29  C   UNL     1       6.684   7.516  17.108  0.00  0.00    +0.000 A 
ATOM     30  C   UNL     1       5.699   6.597  17.487  0.00  0.00    +0.000 A 
ENDBRANCH  24  25
BRANCH  20  31
ATOM     31  C   UNL     1       2.058   3.331  20.651  0.00  0.00    +0.000 C 
ATOM     32  N   UNL     1       1.096   3.028  21.229  0.00  0.00    +0.000 NA
ENDBRANCH  20  31
ENDBRANCH  17  19
ENDBRANCH   1  17
TORSDOF 8
ENDMDL
MODEL 6
REMARK VINA RESULT:      -7.7      1.156      3.824
REMARK  Name = 
REMARK  10 active torsions:
REMARK  status: ('A' for Active; 'I' for Inactive)
REMARK    1  A    between atoms: C_1  and  C_2
REMARK    2  A    between atoms: C_2  and  C_3
REMARK    3  A    between atoms: N_5  and  C_6
REMARK    4  A    between atoms: C_8  and  C_9
REMARK    5  A    between atoms: C_9  and  N_10
REMARK    6  A    between atoms: N_10  and  C_11
REMARK    7  A    between atoms: C_12  and  C_13
REMARK    8  A    between atoms: C_15  and  C_16
REMARK    9  A    between atoms: N_18  and  C_19
REMARK   10  A    between atoms: C_28  and  O_29
REMARK                            x       y       z     vdW  Elec       q    Type
REMARK                         _______ _______ _______ _____ _____    ______ ____
ROOT
ATOM      1  C   UNL     1       3.723   7.973  17.369  0.00  0.00    +0.000 C 
ENDROOT
BRANCH   1   4
ATOM      2  C   UNL     1       5.844   5.104  16.025  0.00  0.00    +0.000 A 
ATOM      3  C   UNL     1       4.857   6.079  16.170  0.00  0.00    +0.000 A 
ATOM      4  C   UNL     1       4.861   6.985  17.244  0.00  0.00    +0.000 A 
ATOM      5  C   UNL     1       5.902   6.920  18.177  0.00  0.00    +0.000 A 
ATOM      6  C   UNL     1       6.880   5.930  18.057  0.00  0.00    +0.000 A 
ATOM      7 CL   UNL     1       8.134   5.837  19.243  0.00  0.00    +0.000 Cl
ATOM      8  C   UNL     1       6.846   5.017  16.996  0.00  0.00    +0.000 A 
BRANCH   2  11
ATOM      9  C   UNL     1       6.550   4.343  13.765  0.00  0.00    +0.000 C 
ATOM     10  O   UNL     1       7.321   5.267  13.516  0.00  0.00    +0.000 OA
ATOM     11  N   UNL     1       5.852   4.187  14.944  0.00  0.00    +0.000 N 
ATOM     12  H   UNL     1       5.403   3.296  15.142  0.00  0.00    +0.000 HD
BRANCH   9  14
ATOM     13  C   UNL     1       7.085   3.502  11.476  0.00  0.00    +0.000 C 
ATOM     14  C   UNL     1       6.296   3.246  12.754  0.00  0.00    +0.000 C 
ENDBRANCH   9  14
ENDBRANCH   2  11
BRANCH   8  15
ATOM     15  O   UNL     1       7.796   4.028  16.869  0.00  0.00    +0.000 OA
ATOM     16  H   UNL     1       7.326   3.176  16.963  0.00  0.00    +0.000 HD
ENDBRANCH   8  15
ENDBRANCH   1   4
BRANCH   1  17
ATOM     17  N   UNL     1       2.511   7.308  17.837  0.00  0.00    +0.000 N 
ATOM     18  H   UNL     1       2.534   6.314  17.595  0.00  0.00    +0.000 HD
BRANCH  17  19
ATOM     19  C   UNL     1       1.999   7.584  19.088  0.00  0.00    +0.000 A 
ATOM     20  C   UNL     1       1.537   8.765  19.654  0.00  0.00    +0.000 A 
ATOM     21  C   UNL     1       1.143   8.454  20.967  0.00  0.00    +0.000 A 
ATOM     22  C   UNL     1       0.630   9.353  22.034  0.00  0.00    +0.000 C 
ATOM     23  N   UNL     1       1.300   7.160  21.229  0.00  0.00    +0.000 NA
ATOM     24  N   UNL     1       1.876   6.617  20.115  0.00  0.00    +0.000 N 
BRANCH  24  25
ATOM     25  C   UNL     1       2.249   5.232  20.162  0.00  0.00    +0.000 A 
ATOM     26  C   UNL     1       1.308   4.295  20.634  0.00  0.00    +0.000 A 
ATOM     27  C   UNL     1       1.630   2.938  20.732  0.00  0.00    +0.000 A 
ATOM     28  C   UNL     1       2.898   2.499  20.367  0.00  0.00    +0.000 A 
ATOM     29  C   UNL     1       3.835   3.413  19.893  0.00  0.00    +0.000 A 
ATOM     30  C   UNL     1       3.514   4.771  19.781  0.00  0.00    +0.000 A 
ENDBRANCH  24  25
BRANCH  20  31
ATOM     31  C   UNL     1       1.517  10.065  19.076  0.00  0.00    +0.000 C 
ATOM     32  N   UNL     1       1.506  11.129  18.609  0.00  0.00    +0.000 NA
ENDBRANCH  20  31
ENDBRANCH  17  19
ENDBRANCH   1  17
TORSDOF 8
ENDMDL
MODEL 7
REMARK VINA RESULT:      -7.6      4.047      7.706
REMARK  Name = 
REMARK  10 active torsions:
REMARK  status: ('A' for Active; 'I' for Inactive)
REMARK    1  A    between atoms: C_1  and  C_2
REMARK    2  A    between atoms: C_2  and  C_3
REMARK    3  A    between atoms: N_5  and  C_6
REMARK    4  A    between atoms: C_8  and  C_9
REMARK    5  A    between atoms: C_9  and  N_10
REMARK    6  A    between atoms: N_10  and  C_11
REMARK    7  A    between atoms: C_12  and  C_13
REMARK    8  A    between atoms: C_15  and  C_16
REMARK    9  A    between atoms: N_18  and  C_19
REMARK   10  A    between atoms: C_28  and  O_29
REMARK                            x       y       z     vdW  Elec       q    Type
REMARK                         _______ _______ _______ _____ _____    ______ ____
ROOT
ATOM      1  C   UNL     1       3.148   7.429  17.551  0.00  0.00    +0.000 C 
ENDROOT
BRANCH   1   4
ATOM      2  C   UNL     1       0.216   9.756  18.279  0.00  0.00    +0.000 A 
ATOM      3  C   UNL     1       1.177   8.985  17.623  0.00  0.00    +0.000 A 
ATOM      4  C   UNL     1       2.095   8.188  18.327  0.00  0.00    +0.000 A 
ATOM      5  C   UNL     1       2.024   8.150  19.724  0.00  0.00    +0.000 A 
ATOM      6  C   UNL     1       1.084   8.940  20.392  0.00  0.00    +0.000 A 
ATOM      7 CL   UNL     1       1.039   8.914  22.120  0.00  0.00    +0.000 Cl
ATOM      8  C   UNL     1       0.194   9.750  19.677  0.00  0.00    +0.000 A 
BRANCH   2  11
ATOM      9  C   UNL     1      -2.069  10.311  17.470  0.00  0.00    +0.000 C 
ATOM     10  O   UNL     1      -2.666   9.392  18.028  0.00  0.00    +0.000 OA
ATOM     11  N   UNL     1      -0.717  10.561  17.579  0.00  0.00    +0.000 N 
ATOM     12  H   UNL     1      -0.349  11.452  17.256  0.00  0.00    +0.000 HD
BRANCH   9  14
ATOM     13  C   UNL     1      -2.957  10.734  15.176  0.00  0.00    +0.000 C 
ATOM     14  C   UNL     1      -2.804  11.293  16.585  0.00  0.00    +0.000 C 
ENDBRANCH   9  14
ENDBRANCH   2  11
BRANCH   8  15
ATOM     15  O   UNL     1      -0.730  10.543  20.319  0.00  0.00    +0.000 OA
ATOM     16  H   UNL     1      -1.611  10.175  20.108  0.00  0.00    +0.000 HD
ENDBRANCH   8  15
ENDBRANCH   1   4
BRANCH   1  17
ATOM     17  N   UNL     1       3.788   6.425  18.395  0.00  0.00    +0.000 N 
ATOM     18  H   UNL     1       3.844   6.755  19.362  0.00  0.00    +0.000 HD
BRANCH  17  19
ATOM     19  C   UNL     1       3.468   5.089  18.260  0.00  0.00    +0.000 A 
ATOM     20  C   UNL     1       2.549   4.290  18.928  0.00  0.00    +0.000 A 
ATOM     21  C   UNL     1       2.664   3.001  18.379  0.00  0.00    +0.000 A 
ATOM     22  C   UNL     1       1.961   1.750  18.762  0.00  0.00    +0.000 C 
ATOM     23  N   UNL     1       3.565   2.967  17.402  0.00  0.00    +0.000 NA
ATOM     24  N   UNL     1       4.113   4.218  17.348  0.00  0.00    +0.000 N 
BRANCH  24  25
ATOM     25  C   UNL     1       5.195   4.436  16.433  0.00  0.00    +0.000 A 
ATOM     26  C   UNL     1       4.952   4.288  15.052  0.00  0.00    +0.000 A 
ATOM     27  C   UNL     1       5.978   4.456  14.118  0.00  0.00    +0.000 A 
ATOM     28  C   UNL     1       7.263   4.769  14.549  0.00  0.00    +0.000 A 
ATOM     29  C   UNL     1       7.515   4.925  15.909  0.00  0.00    +0.000 A 
ATOM     30  C   UNL     1       6.488   4.770  16.848  0.00  0.00    +0.000 A 
ENDBRANCH  24  25
BRANCH  20  31
ATOM     31  C   UNL     1       1.693   4.652  20.005  0.00  0.00    +0.000 C 
ATOM     32  N   UNL     1       0.995   4.940  20.889  0.00  0.00    +0.000 NA
ENDBRANCH  20  31
ENDBRANCH  17  19
ENDBRANCH   1  17
TORSDOF 8
ENDMDL
MODEL 8
REMARK VINA RESULT:      -7.5      4.143      7.717
REMARK  Name = 
REMARK  10 active torsions:
REMARK  status: ('A' for Active; 'I' for Inactive)
REMARK    1  A    between atoms: C_1  and  C_2
REMARK    2  A    between atoms: C_2  and  C_3
REMARK    3  A    between atoms: N_5  and  C_6
REMARK    4  A    between atoms: C_8  and  C_9
REMARK    5  A    between atoms: C_9  and  N_10
REMARK    6  A    between atoms: N_10  and  C_11
REMARK    7  A    between atoms: C_12  and  C_13
REMARK    8  A    between atoms: C_15  and  C_16
REMARK    9  A    between atoms: N_18  and  C_19
REMARK   10  A    between atoms: C_28  and  O_29
REMARK                            x       y       z     vdW  Elec       q    Type
REMARK                         _______ _______ _______ _____ _____    ______ ____
ROOT
ATOM      1  C   UNL     1       2.251   7.262  18.877  0.00  0.00    +0.000 C 
ENDROOT
BRANCH   1   4
ATOM      2  C   UNL     1       0.999  10.763  19.721  0.00  0.00    +0.000 A 
ATOM      3  C   UNL     1       1.489   9.650  19.037  0.00  0.00    +0.000 A 
ATOM      4  C   UNL     1       1.655   8.405  19.667  0.00  0.00    +0.000 A 
ATOM      5  C   UNL     1       1.293   8.277  21.012  0.00  0.00    +0.000 A 
ATOM      6  C   UNL     1       0.828   9.391  21.715  0.00  0.00    +0.000 A 
ATOM      7 CL   UNL     1       0.427   9.224  23.388  0.00  0.00    +0.000 Cl
ATOM      8  C   UNL     1       0.694  10.632  21.079  0.00  0.00    +0.000 A 
BRANCH   2  11
ATOM      9  C   UNL     1       1.579  13.151  19.338  0.00  0.00    +0.000 C 
ATOM     10  O   UNL     1       2.558  13.201  20.079  0.00  0.00    +0.000 OA
ATOM     11  N   UNL     1       0.824  12.022  19.096  0.00  0.00    +0.000 N 
ATOM     12  H   UNL     1       0.167  12.021  18.319  0.00  0.00    +0.000 HD
BRANCH   9  14
ATOM     13  C   UNL     1       1.933  15.596  18.978  0.00  0.00    +0.000 C 
ATOM     14  C   UNL     1       1.105  14.377  18.590  0.00  0.00    +0.000 C 
ENDBRANCH   9  14
ENDBRANCH   2  11
BRANCH   8  15
ATOM     15  O   UNL     1       0.248  11.743  21.760  0.00  0.00    +0.000 OA
ATOM     16  H   UNL     1      -0.246  12.286  21.115  0.00  0.00    +0.000 HD
ENDBRANCH   8  15
ENDBRANCH   1   4
BRANCH   1  17
ATOM     17  N   UNL     1       2.983   6.354  19.754  0.00  0.00    +0.000 N 
ATOM     18  H   UNL     1       2.574   6.358  20.692  0.00  0.00    +0.000 HD
BRANCH  17  19
ATOM     19  C   UNL     1       3.378   5.111  19.304  0.00  0.00    +0.000 A 
ATOM     20  C   UNL     1       2.738   3.879  19.319  0.00  0.00    +0.000 A 
ATOM     21  C   UNL     1       3.623   2.958  18.734  0.00  0.00    +0.000 A 
ATOM     22  C   UNL     1       3.470   1.491  18.550  0.00  0.00    +0.000 C 
ATOM     23  N   UNL     1       4.744   3.549  18.332  0.00  0.00    +0.000 NA
ATOM     24  N   UNL     1       4.644   4.855  18.722  0.00  0.00    +0.000 N 
BRANCH  24  25
ATOM     25  C   UNL     1       5.773   5.710  18.496  0.00  0.00    +0.000 A 
ATOM     26  C   UNL     1       5.697   6.673  17.469  0.00  0.00    +0.000 A 
ATOM     27  C   UNL     1       6.780   7.509  17.184  0.00  0.00    +0.000 A 
ATOM     28  C   UNL     1       7.957   7.392  17.916  0.00  0.00    +0.000 A 
ATOM     29  C   UNL     1       8.043   6.451  18.938  0.00  0.00    +0.000 A 
ATOM     30  C   UNL     1       6.957   5.619  19.235  0.00  0.00    +0.000 A 
ENDBRANCH  24  25
BRANCH  20  31
ATOM     31  C   UNL     1       1.466   3.559  19.873  0.00  0.00    +0.000 C 
ATOM     32  N   UNL     1       0.431   3.294  20.330  0.00  0.00    +0.000 NA
ENDBRANCH  20  31
ENDBRANCH  17  19
ENDBRANCH   1  17
TORSDOF 8
ENDMDL
MODEL 9
REMARK VINA RESULT:      -7.5      4.049      7.694
REMARK  Name = 
REMARK  10 active torsions:
REMARK  status: ('A' for Active; 'I' for Inactive)
REMARK    1  A    between atoms: C_1  and  C_2
REMARK    2  A    between atoms: C_2  and  C_3
REMARK    3  A    between atoms: N_5  and  C_6
REMARK    4  A    between atoms: C_8  and  C_9
REMARK    5  A    between atoms: C_9  and  N_10
REMARK    6  A    between atoms: N_10  and  C_11
REMARK    7  A    between atoms: C_12  and  C_13
REMARK    8  A    between atoms: C_15  and  C_16
REMARK    9  A    between atoms: N_18  and  C_19
REMARK   10  A    between atoms: C_28  and  O_29
REMARK                            x       y       z     vdW  Elec       q    Type
REMARK                         _______ _______ _______ _____ _____    ______ ____
ROOT
ATOM      1  C   UNL     1       2.389   7.338  18.876  0.00  0.00    +0.000 C 
ENDROOT
BRANCH   1   4
ATOM      2  C   UNL     1       0.565  10.580  19.716  0.00  0.00    +0.000 A 
ATOM      3  C   UNL     1       1.205   9.549  19.027  0.00  0.00    +0.000 A 
ATOM      4  C   UNL     1       1.646   8.384  19.677  0.00  0.00    +0.000 A 
ATOM      5  C   UNL     1       1.411   8.247  21.050  0.00  0.00    +0.000 A 
ATOM      6  C   UNL     1       0.795   9.284  21.755  0.00  0.00    +0.000 A 
ATOM      7 CL   UNL     1       0.553   9.116  23.458  0.00  0.00    +0.000 Cl
ATOM      8  C   UNL     1       0.386  10.451  21.097  0.00  0.00    +0.000 A 
BRANCH   2  11
ATOM      9  C   UNL     1       0.883  12.866  18.792  0.00  0.00    +0.000 C 
ATOM     10  O   UNL     1       2.091  12.959  19.001  0.00  0.00    +0.000 OA
ATOM     11  N   UNL     1       0.112  11.757  19.071  0.00  0.00    +0.000 N 
ATOM     12  H   UNL     1      -0.825  11.692  18.680  0.00  0.00    +0.000 HD
BRANCH   9  14
ATOM     13  C   UNL     1      -0.405  14.953  19.260  0.00  0.00    +0.000 C 
ATOM     14  C   UNL     1       0.109  14.011  18.178  0.00  0.00    +0.000 C 
ENDBRANCH   9  14
ENDBRANCH   2  11
BRANCH   8  15
ATOM     15  O   UNL     1      -0.211  11.488  21.779  0.00  0.00    +0.000 OA
ATOM     16  H   UNL     1      -0.816  11.925  21.148  0.00  0.00    +0.000 HD
ENDBRANCH   8  15
ENDBRANCH   1   4
BRANCH   1  17
ATOM     17  N   UNL     1       3.014   6.358  19.759  0.00  0.00    +0.000 N 
ATOM     18  H   UNL     1       2.537   6.339  20.664  0.00  0.00    +0.000 HD
BRANCH  17  19
ATOM     19  C   UNL     1       3.388   5.120  19.278  0.00  0.00    +0.000 A 
ATOM     20  C   UNL     1       2.745   3.889  19.306  0.00  0.00    +0.000 A 
ATOM     21  C   UNL     1       3.604   2.974  18.674  0.00  0.00    +0.000 A 
ATOM     22  C   UNL     1       3.441   1.509  18.480  0.00  0.00    +0.000 C 
ATOM     23  N   UNL     1       4.709   3.567  18.233  0.00  0.00    +0.000 NA
ATOM     24  N   UNL     1       4.627   4.869  18.642  0.00  0.00    +0.000 N 
BRANCH  24  25
ATOM     25  C   UNL     1       5.749   5.725  18.380  0.00  0.00    +0.000 A 
ATOM     26  C   UNL     1       6.907   5.580  19.169  0.00  0.00    +0.000 A 
ATOM     27  C   UNL     1       8.016   6.409  18.979  0.00  0.00    +0.000 A 
ATOM     28  C   UNL     1       7.982   7.400  18.003  0.00  0.00    +0.000 A 
ATOM     29  C   UNL     1       6.846   7.549  17.213  0.00  0.00    +0.000 A 
ATOM     30  C   UNL     1       5.737   6.713  17.390  0.00  0.00    +0.000 A 
ENDBRANCH  24  25
BRANCH  20  31
ATOM     31  C   UNL     1       1.497   3.565  19.907  0.00  0.00    +0.000 C 
ATOM     32  N   UNL     1       0.479   3.293  20.399  0.00  0.00    +0.000 NA
ENDBRANCH  20  31
ENDBRANCH  17  19
ENDBRANCH   1  17
TORSDOF 8
ENDMDL
