MODEL 1
REMARK VINA RESULT:      -7.8      0.000      0.000
REMARK  Name = 
REMARK  5 active torsions:
REMARK  status: ('A' for Active; 'I' for Inactive)
REMARK    1  A    between atoms: C_1  and  O_2
REMARK    2  A    between atoms: O_2  and  C_3
REMARK    3  A    between atoms: C_6  and  C_7
REMARK    4  A    between atoms: C_7  and  C_9
REMARK    5  A    between atoms: C_10  and  C_11
REMARK                            x       y       z     vdW  Elec       q    Type
REMARK                         _______ _______ _______ _____ _____    ______ ____
ROOT
ATOM      1  C   UNL     1       2.450   5.297  20.154  0.00  0.00    +0.000 C 
ATOM      2  C   UNL     1       2.553   6.491  19.548  0.00  0.00    +0.000 C 
ENDROOT
BRANCH   2   3
ATOM      3  C   UNL     1       1.838   7.703  19.931  0.00  0.00    +0.000 C 
ATOM      4  C   UNL     1       1.202   7.794  21.115  0.00  0.00    +0.000 C 
ATOM      5  C   UNL     1       0.483   9.039  21.401  0.00  0.00    +0.000 A 
ATOM      6  C   UNL     1       0.105   9.404  22.694  0.00  0.00    +0.000 A 
ATOM      7  C   UNL     1      -0.621  10.582  22.901  0.00  0.00    +0.000 A 
ATOM      8  C   UNL     1      -1.006  11.377  21.818  0.00  0.00    +0.000 A 
ATOM      9  C   UNL     1      -0.639  11.016  20.526  0.00  0.00    +0.000 A 
ATOM     10  C   UNL     1       0.133   9.875  20.331  0.00  0.00    +0.000 A 
ATOM     11  O   UNL     1       0.521   9.597  19.047  0.00  0.00    +0.000 OA
ATOM     12  C   UNL     1       1.781   8.906  19.008  0.00  0.00    +0.000 C 
ENDBRANCH   2   3
BRANCH   1  13
ATOM     13  C   UNL     1       3.259   4.131  19.708  0.00  0.00    +0.000 C 
ATOM     14  O   UNL     1       2.983   2.984  20.042  0.00  0.00    +0.000 OA
BRANCH  13  18
ATOM     15  C   UNL     1       6.488   4.847  16.946  0.00  0.00    +0.000 A 
ATOM     16  C   UNL     1       5.309   4.221  16.535  0.00  0.00    +0.000 A 
ATOM     17  C   UNL     1       4.269   3.998  17.442  0.00  0.00    +0.000 A 
ATOM     18  C   UNL     1       4.401   4.390  18.779  0.00  0.00    +0.000 A 
ATOM     19  C   UNL     1       5.600   4.985  19.197  0.00  0.00    +0.000 A 
ATOM     20  C   UNL     1       6.635   5.217  18.283  0.00  0.00    +0.000 A 
BRANCH  15  22
ATOM     21  C   UNL     1       6.993   4.824  14.632  0.00  0.00    +0.000 C 
ATOM     22  O   UNL     1       7.437   4.995  15.974  0.00  0.00    +0.000 OA
ENDBRANCH  15  22
ENDBRANCH  13  18
ENDBRANCH   1  13
TORSDOF 4
ENDMDL
MODEL 2
REMARK VINA RESULT:      -7.7      0.249      1.055
REMARK  Name = 
REMARK  5 active torsions:
REMARK  status: ('A' for Active; 'I' for Inactive)
REMARK    1  A    between atoms: C_1  and  O_2
REMARK    2  A    between atoms: O_2  and  C_3
REMARK    3  A    between atoms: C_6  and  C_7
REMARK    4  A    between atoms: C_7  and  C_9
REMARK    5  A    between atoms: C_10  and  C_11
REMARK                            x       y       z     vdW  Elec       q    Type
REMARK                         _______ _______ _______ _____ _____    ______ ____
ROOT
ATOM      1  C   UNL     1       2.631   5.166  20.251  0.00  0.00    +0.000 C 
ATOM      2  C   UNL     1       2.601   6.292  19.519  0.00  0.00    +0.000 C 
ENDROOT
BRANCH   2   3
ATOM      3  C   UNL     1       1.919   7.526  19.887  0.00  0.00    +0.000 C 
ATOM      4  C   UNL     1       1.258   7.638  21.055  0.00  0.00    +0.000 C 
ATOM      5  C   UNL     1       0.577   8.906  21.327  0.00  0.00    +0.000 A 
ATOM      6  C   UNL     1       0.181   9.282  22.612  0.00  0.00    +0.000 A 
ATOM      7  C   UNL     1      -0.509  10.485  22.804  0.00  0.00    +0.000 A 
ATOM      8  C   UNL     1      -0.839  11.295  21.715  0.00  0.00    +0.000 A 
ATOM      9  C   UNL     1      -0.454  10.924  20.431  0.00  0.00    +0.000 A 
ATOM     10  C   UNL     1       0.283   9.756  20.252  0.00  0.00    +0.000 A 
ATOM     11  O   UNL     1       0.691   9.467  18.976  0.00  0.00    +0.000 OA
ATOM     12  C   UNL     1       1.927   8.732  18.966  0.00  0.00    +0.000 C 
ENDBRANCH   2   3
BRANCH   1  13
ATOM     13  C   UNL     1       3.395   3.970  19.801  0.00  0.00    +0.000 C 
ATOM     14  O   UNL     1       3.181   2.854  20.260  0.00  0.00    +0.000 OA
BRANCH  13  18
ATOM     15  C   UNL     1       6.377   4.535  16.742  0.00  0.00    +0.000 A 
ATOM     16  C   UNL     1       6.629   4.877  18.072  0.00  0.00    +0.000 A 
ATOM     17  C   UNL     1       5.653   4.686  19.054  0.00  0.00    +0.000 A 
ATOM     18  C   UNL     1       4.403   4.157  18.713  0.00  0.00    +0.000 A 
ATOM     19  C   UNL     1       4.138   3.849  17.372  0.00  0.00    +0.000 A 
ATOM     20  C   UNL     1       5.123   4.031  16.392  0.00  0.00    +0.000 A 
BRANCH  15  22
ATOM     21  C   UNL     1       7.050   4.862  14.495  0.00  0.00    +0.000 C 
ATOM     22  O   UNL     1       7.401   4.783  15.872  0.00  0.00    +0.000 OA
ENDBRANCH  15  22
ENDBRANCH  13  18
ENDBRANCH   1  13
TORSDOF 4
ENDMDL
MODEL 3
REMARK VINA RESULT:      -7.6      1.304      2.318
REMARK  Name = 
REMARK  5 active torsions:
REMARK  status: ('A' for Active; 'I' for Inactive)
REMARK    1  A    between atoms: C_1  and  O_2
REMARK    2  A    between atoms: O_2  and  C_3
REMARK    3  A    between atoms: C_6  and  C_7
REMARK    4  A    between atoms: C_7  and  C_9
REMARK    5  A    between atoms: C_10  and  C_11
REMARK                            x       y       z     vdW  Elec       q    Type
REMARK                         _______ _______ _______ _____ _____    ______ ____
ROOT
ATOM      1  C   UNL     1       3.552   4.835  19.630  0.00  0.00    +0.000 C 
ATOM      2  C   UNL     1       3.398   6.027  19.032  0.00  0.00    +0.000 C 
ENDROOT
BRANCH   2   3
ATOM      3  C   UNL     1       2.421   7.044  19.403  0.00  0.00    +0.000 C 
ATOM      4  C   UNL     1       2.175   8.101  18.606  0.00  0.00    +0.000 C 
ATOM      5  C   UNL     1       1.199   9.088  19.075  0.00  0.00    +0.000 A 
ATOM      6  C   UNL     1       0.592  10.007  18.217  0.00  0.00    +0.000 A 
ATOM      7  C   UNL     1      -0.298  10.957  18.730  0.00  0.00    +0.000 A 
ATOM      8  C   UNL     1      -0.554  11.020  20.102  0.00  0.00    +0.000 A 
ATOM      9  C   UNL     1       0.051  10.113  20.965  0.00  0.00    +0.000 A 
ATOM     10  C   UNL     1       0.890   9.132  20.442  0.00  0.00    +0.000 A 
ATOM     11  O   UNL     1       1.413   8.224  21.325  0.00  0.00    +0.000 OA
ATOM     12  C   UNL     1       1.645   6.949  20.704  0.00  0.00    +0.000 C 
ENDBRANCH   2   3
BRANCH   1  13
ATOM     13  C   UNL     1       4.611   3.884  19.198  0.00  0.00    +0.000 C 
ATOM     14  O   UNL     1       4.834   2.841  19.804  0.00  0.00    +0.000 OA
BRANCH  13  18
ATOM     15  C   UNL     1       6.883   4.847  15.665  0.00  0.00    +0.000 A 
ATOM     16  C   UNL     1       7.344   5.187  16.938  0.00  0.00    +0.000 A 
ATOM     17  C   UNL     1       6.598   4.866  18.076  0.00  0.00    +0.000 A 
ATOM     18  C   UNL     1       5.370   4.206  17.951  0.00  0.00    +0.000 A 
ATOM     19  C   UNL     1       4.891   3.898  16.670  0.00  0.00    +0.000 A 
ATOM     20  C   UNL     1       5.647   4.212  15.533  0.00  0.00    +0.000 A 
BRANCH  15  22
ATOM     21  C   UNL     1       7.266   4.846  13.328  0.00  0.00    +0.000 C 
ATOM     22  O   UNL     1       7.692   5.227  14.632  0.00  0.00    +0.000 OA
ENDBRANCH  15  22
ENDBRANCH  13  18
ENDBRANCH   1  13
TORSDOF 4
ENDMDL
MODEL 4
REMARK VINA RESULT:      -7.6      1.055      1.707
REMARK  Name = 
REMARK  5 active torsions:
REMARK  status: ('A' for Active; 'I' for Inactive)
REMARK    1  A    between atoms: C_1  and  O_2
REMARK    2  A    between atoms: O_2  and  C_3
REMARK    3  A    between atoms: C_6  and  C_7
REMARK    4  A    between atoms: C_7  and  C_9
REMARK    5  A    between atoms: C_10  and  C_11
REMARK                            x       y       z     vdW  Elec       q    Type
REMARK                         _______ _______ _______ _____ _____    ______ ____
ROOT
ATOM      1  C   UNL     1       3.403   5.180  19.116  0.00  0.00    +0.000 C 
ATOM      2  C   UNL     1       3.098   6.286  18.417  0.00  0.00    +0.000 C 
ENDROOT
BRANCH   2   3
ATOM      3  C   UNL     1       2.396   7.452  18.937  0.00  0.00    +0.000 C 
ATOM      4  C   UNL     1       1.870   7.457  20.178  0.00  0.00    +0.000 C 
ATOM      5  C   UNL     1       1.155   8.663  20.604  0.00  0.00    +0.000 A 
ATOM      6  C   UNL     1       0.891   8.940  21.946  0.00  0.00    +0.000 A 
ATOM      7  C   UNL     1       0.162  10.084  22.290  0.00  0.00    +0.000 A 
ATOM      8  C   UNL     1      -0.338  10.932  21.298  0.00  0.00    +0.000 A 
ATOM      9  C   UNL     1      -0.084  10.658  19.959  0.00  0.00    +0.000 A 
ATOM     10  C   UNL     1       0.691   9.551  19.624  0.00  0.00    +0.000 A 
ATOM     11  O   UNL     1       0.964   9.360  18.295  0.00  0.00    +0.000 OA
ATOM     12  C   UNL     1       2.229   8.706  18.099  0.00  0.00    +0.000 C 
ENDBRANCH   2   3
BRANCH   1  13
ATOM     13  C   UNL     1       4.162   4.059  18.499  0.00  0.00    +0.000 C 
ATOM     14  O   UNL     1       4.007   2.897  18.856  0.00  0.00    +0.000 OA
BRANCH  13  18
ATOM     15  C   UNL     1       6.914   5.018  15.325  0.00  0.00    +0.000 A 
ATOM     16  C   UNL     1       7.232   5.272  16.660  0.00  0.00    +0.000 A 
ATOM     17  C   UNL     1       6.331   4.953  17.680  0.00  0.00    +0.000 A 
ATOM     18  C   UNL     1       5.090   4.384  17.373  0.00  0.00    +0.000 A 
ATOM     19  C   UNL     1       4.757   4.164  16.029  0.00  0.00    +0.000 A 
ATOM     20  C   UNL     1       5.668   4.475  15.011  0.00  0.00    +0.000 A 
BRANCH  15  22
ATOM     21  C   UNL     1       7.624   5.020  13.066  0.00  0.00    +0.000 C 
ATOM     22  O   UNL     1       7.868   5.388  14.419  0.00  0.00    +0.000 OA
ENDBRANCH  15  22
ENDBRANCH  13  18
ENDBRANCH   1  13
TORSDOF 4
ENDMDL
MODEL 5
REMARK VINA RESULT:      -7.5      5.829      7.947
REMARK  Name = 
REMARK  5 active torsions:
REMARK  status: ('A' for Active; 'I' for Inactive)
REMARK    1  A    between atoms: C_1  and  O_2
REMARK    2  A    between atoms: O_2  and  C_3
REMARK    3  A    between atoms: C_6  and  C_7
REMARK    4  A    between atoms: C_7  and  C_9
REMARK    5  A    between atoms: C_10  and  C_11
REMARK                            x       y       z     vdW  Elec       q    Type
REMARK                         _______ _______ _______ _____ _____    ______ ____
ROOT
ATOM      1  C   UNL     1       7.997   8.043  18.072  0.00  0.00    +0.000 C 
ATOM      2  C   UNL     1       8.056   9.311  17.633  0.00  0.00    +0.000 C 
ENDROOT
BRANCH   2   3
ATOM      3  C   UNL     1       8.731  10.413  18.308  0.00  0.00    +0.000 C 
ATOM      4  C   UNL     1       8.746  11.652  17.779  0.00  0.00    +0.000 C 
ATOM      5  C   UNL     1       9.475  12.690  18.513  0.00  0.00    +0.000 A 
ATOM      6  C   UNL     1       9.270  14.052  18.284  0.00  0.00    +0.000 A 
ATOM      7  C   UNL     1      10.030  14.997  18.982  0.00  0.00    +0.000 A 
ATOM      8  C   UNL     1      11.021  14.589  19.879  0.00  0.00    +0.000 A 
ATOM      9  C   UNL     1      11.235  13.234  20.107  0.00  0.00    +0.000 A 
ATOM     10  C   UNL     1      10.438  12.299  19.455  0.00  0.00    +0.000 A 
ATOM     11  O   UNL     1      10.647  10.979  19.761  0.00  0.00    +0.000 OA
ATOM     12  C   UNL     1       9.443  10.205  19.632  0.00  0.00    +0.000 C 
ENDBRANCH   2   3
BRANCH   1  13
ATOM     13  C   UNL     1       7.315   6.982  17.283  0.00  0.00    +0.000 C 
ATOM     14  O   UNL     1       7.783   6.552  16.234  0.00  0.00    +0.000 OA
BRANCH  13  18
ATOM     15  C   UNL     1       3.626   5.362  18.810  0.00  0.00    +0.000 A 
ATOM     16  C   UNL     1       3.630   6.341  17.814  0.00  0.00    +0.000 A 
ATOM     17  C   UNL     1       4.835   6.855  17.326  0.00  0.00    +0.000 A 
ATOM     18  C   UNL     1       6.055   6.402  17.839  0.00  0.00    +0.000 A 
ATOM     19  C   UNL     1       6.048   5.446  18.865  0.00  0.00    +0.000 A 
ATOM     20  C   UNL     1       4.839   4.925  19.343  0.00  0.00    +0.000 A 
BRANCH  15  22
ATOM     21  C   UNL     1       2.193   3.542  19.301  0.00  0.00    +0.000 C 
ATOM     22  O   UNL     1       2.388   4.950  19.215  0.00  0.00    +0.000 OA
ENDBRANCH  15  22
ENDBRANCH  13  18
ENDBRANCH   1  13
TORSDOF 4
ENDMDL
MODEL 6
REMARK VINA RESULT:      -7.5      1.229      1.956
REMARK  Name = 
REMARK  5 active torsions:
REMARK  status: ('A' for Active; 'I' for Inactive)
REMARK    1  A    between atoms: C_1  and  O_2
REMARK    2  A    between atoms: O_2  and  C_3
REMARK    3  A    between atoms: C_6  and  C_7
REMARK    4  A    between atoms: C_7  and  C_9
REMARK    5  A    between atoms: C_10  and  C_11
REMARK                            x       y       z     vdW  Elec       q    Type
REMARK                         _______ _______ _______ _____ _____    ______ ____
ROOT
ATOM      1  C   UNL     1       3.385   4.970  19.777  0.00  0.00    +0.000 C 
ATOM      2  C   UNL     1       3.174   6.101  19.084  0.00  0.00    +0.000 C 
ENDROOT
BRANCH   2   3
ATOM      3  C   UNL     1       2.270   7.178  19.469  0.00  0.00    +0.000 C 
ATOM      4  C   UNL     1       2.033   8.219  18.648  0.00  0.00    +0.000 C 
ATOM      5  C   UNL     1       1.134   9.270  19.133  0.00  0.00    +0.000 A 
ATOM      6  C   UNL     1       0.527  10.189  18.276  0.00  0.00    +0.000 A 
ATOM      7  C   UNL     1      -0.286  11.200  18.801  0.00  0.00    +0.000 A 
ATOM      8  C   UNL     1      -0.462  11.323  20.182  0.00  0.00    +0.000 A 
ATOM      9  C   UNL     1       0.145  10.415  21.043  0.00  0.00    +0.000 A 
ATOM     10  C   UNL     1       0.904   9.376  20.512  0.00  0.00    +0.000 A 
ATOM     11  O   UNL     1       1.430   8.473  21.399  0.00  0.00    +0.000 OA
ATOM     12  C   UNL     1       1.564   7.167  20.812  0.00  0.00    +0.000 C 
ENDBRANCH   2   3
BRANCH   1  13
ATOM     13  C   UNL     1       4.363   3.950  19.314  0.00  0.00    +0.000 C 
ATOM     14  O   UNL     1       4.403   2.823  19.796  0.00  0.00    +0.000 OA
BRANCH  13  18
ATOM     15  C   UNL     1       6.907   4.980  15.992  0.00  0.00    +0.000 A 
ATOM     16  C   UNL     1       5.701   4.305  15.798  0.00  0.00    +0.000 A 
ATOM     17  C   UNL     1       4.884   3.980  16.885  0.00  0.00    +0.000 A 
ATOM     18  C   UNL     1       5.273   4.318  18.186  0.00  0.00    +0.000 A 
ATOM     19  C   UNL     1       6.502   4.963  18.383  0.00  0.00    +0.000 A 
ATOM     20  C   UNL     1       7.312   5.298  17.289  0.00  0.00    +0.000 A 
BRANCH  15  22
ATOM     21  C   UNL     1       7.080   4.715  13.646  0.00  0.00    +0.000 C 
ATOM     22  O   UNL     1       7.625   5.229  14.856  0.00  0.00    +0.000 OA
ENDBRANCH  15  22
ENDBRANCH  13  18
ENDBRANCH   1  13
TORSDOF 4
ENDMDL
MODEL 7
REMARK VINA RESULT:      -7.5      2.873      8.971
REMARK  Name = 
REMARK  5 active torsions:
REMARK  status: ('A' for Active; 'I' for Inactive)
REMARK    1  A    between atoms: C_1  and  O_2
REMARK    2  A    between atoms: O_2  and  C_3
REMARK    3  A    between atoms: C_6  and  C_7
REMARK    4  A    between atoms: C_7  and  C_9
REMARK    5  A    between atoms: C_10  and  C_11
REMARK                            x       y       z     vdW  Elec       q    Type
REMARK                         _______ _______ _______ _____ _____    ______ ____
ROOT
ATOM      1  C   UNL     1       1.093   9.334  18.227  0.00  0.00    +0.000 C 
ATOM      2  C   UNL     1       1.771   8.489  19.022  0.00  0.00    +0.000 C 
ENDROOT
BRANCH   2   3
ATOM      3  C   UNL     1       2.628   7.400  18.568  0.00  0.00    +0.000 C 
ATOM      4  C   UNL     1       3.391   7.524  17.465  0.00  0.00    +0.000 C 
ATOM      5  C   UNL     1       4.197   6.367  17.068  0.00  0.00    +0.000 A 
ATOM      6  C   UNL     1       5.279   6.474  16.193  0.00  0.00    +0.000 A 
ATOM      7  C   UNL     1       5.984   5.325  15.812  0.00  0.00    +0.000 A 
ATOM      8  C   UNL     1       5.588   4.066  16.271  0.00  0.00    +0.000 A 
ATOM      9  C   UNL     1       4.507   3.951  17.138  0.00  0.00    +0.000 A 
ATOM     10  C   UNL     1       3.846   5.102  17.560  0.00  0.00    +0.000 A 
ATOM     11  O   UNL     1       2.828   4.940  18.462  0.00  0.00    +0.000 OA
ATOM     12  C   UNL     1       2.690   6.084  19.321  0.00  0.00    +0.000 C 
ENDBRANCH   2   3
BRANCH   1  13
ATOM     13  C   UNL     1       0.277  10.441  18.794  0.00  0.00    +0.000 C 
ATOM     14  O   UNL     1       0.735  11.233  19.611  0.00  0.00    +0.000 OA
BRANCH  13  18
ATOM     15  C   UNL     1      -3.765  10.997  17.408  0.00  0.00    +0.000 A 
ATOM     16  C   UNL     1      -3.261  11.729  18.485  0.00  0.00    +0.000 A 
ATOM     17  C   UNL     1      -1.947  11.541  18.922  0.00  0.00    +0.000 A 
ATOM     18  C   UNL     1      -1.121  10.604  18.291  0.00  0.00    +0.000 A 
ATOM     19  C   UNL     1      -1.640   9.843  17.234  0.00  0.00    +0.000 A 
ATOM     20  C   UNL     1      -2.954  10.043  16.792  0.00  0.00    +0.000 A 
BRANCH  15  22
ATOM     21  C   UNL     1      -5.755  12.166  17.938  0.00  0.00    +0.000 C 
ATOM     22  O   UNL     1      -5.067  11.258  17.085  0.00  0.00    +0.000 OA
ENDBRANCH  15  22
ENDBRANCH  13  18
ENDBRANCH   1  13
TORSDOF 4
ENDMDL
MODEL 8
REMARK VINA RESULT:      -7.5      5.714      7.997
REMARK  Name = 
REMARK  5 active torsions:
REMARK  status: ('A' for Active; 'I' for Inactive)
REMARK    1  A    between atoms: C_1  and  O_2
REMARK    2  A    between atoms: O_2  and  C_3
REMARK    3  A    between atoms: C_6  and  C_7
REMARK    4  A    between atoms: C_7  and  C_9
REMARK    5  A    between atoms: C_10  and  C_11
REMARK                            x       y       z     vdW  Elec       q    Type
REMARK                         _______ _______ _______ _____ _____    ______ ____
ROOT
ATOM      1  C   UNL     1       8.082   7.851  18.042  0.00  0.00    +0.000 C 
ATOM      2  C   UNL     1       7.959   9.153  17.736  0.00  0.00    +0.000 C 
ENDROOT
BRANCH   2   3
ATOM      3  C   UNL     1       8.652  10.250  18.400  0.00  0.00    +0.000 C 
ATOM      4  C   UNL     1       8.868  11.422  17.772  0.00  0.00    +0.000 C 
ATOM      5  C   UNL     1       9.600  12.457  18.507  0.00  0.00    +0.000 A 
ATOM      6  C   UNL     1       9.573  13.801  18.132  0.00  0.00    +0.000 A 
ATOM      7  C   UNL     1      10.330  14.739  18.844  0.00  0.00    +0.000 A 
ATOM      8  C   UNL     1      11.145  14.334  19.904  0.00  0.00    +0.000 A 
ATOM      9  C   UNL     1      11.182  12.996  20.280  0.00  0.00    +0.000 A 
ATOM     10  C   UNL     1      10.383  12.076  19.606  0.00  0.00    +0.000 A 
ATOM     11  O   UNL     1      10.409  10.781  20.054  0.00  0.00    +0.000 OA
ATOM     12  C   UNL     1       9.157  10.113  19.824  0.00  0.00    +0.000 C 
ENDBRANCH   2   3
BRANCH   1  13
ATOM     13  C   UNL     1       7.358   6.804  17.271  0.00  0.00    +0.000 C 
ATOM     14  O   UNL     1       7.818   6.322  16.242  0.00  0.00    +0.000 OA
BRANCH  13  18
ATOM     15  C   UNL     1       3.682   5.305  18.945  0.00  0.00    +0.000 A 
ATOM     16  C   UNL     1       4.922   4.857  19.404  0.00  0.00    +0.000 A 
ATOM     17  C   UNL     1       6.107   5.354  18.854  0.00  0.00    +0.000 A 
ATOM     18  C   UNL     1       6.064   6.302  17.825  0.00  0.00    +0.000 A 
ATOM     19  C   UNL     1       4.818   6.723  17.340  0.00  0.00    +0.000 A 
ATOM     20  C   UNL     1       3.633   6.231  17.903  0.00  0.00    +0.000 A 
BRANCH  15  22
ATOM     21  C   UNL     1       1.967   5.506  20.567  0.00  0.00    +0.000 C 
ATOM     22  O   UNL     1       2.597   4.735  19.549  0.00  0.00    +0.000 OA
ENDBRANCH  15  22
ENDBRANCH  13  18
ENDBRANCH   1  13
TORSDOF 4
ENDMDL
MODEL 9
REMARK VINA RESULT:      -7.5      2.851      8.922
REMARK  Name = 
REMARK  5 active torsions:
REMARK  status: ('A' for Active; 'I' for Inactive)
REMARK    1  A    between atoms: C_1  and  O_2
REMARK    2  A    between atoms: O_2  and  C_3
REMARK    3  A    between atoms: C_6  and  C_7
REMARK    4  A    between atoms: C_7  and  C_9
REMARK    5  A    between atoms: C_10  and  C_11
REMARK                            x       y       z     vdW  Elec       q    Type
REMARK                         _______ _______ _______ _____ _____    ______ ____
ROOT
ATOM      1  C   UNL     1       1.061   9.348  18.223  0.00  0.00    +0.000 C 
ATOM      2  C   UNL     1       1.846   8.571  18.987  0.00  0.00    +0.000 C 
ENDROOT
BRANCH   2   3
ATOM      3  C   UNL     1       2.627   7.432  18.520  0.00  0.00    +0.000 C 
ATOM      4  C   UNL     1       3.476   7.545  17.480  0.00  0.00    +0.000 C 
ATOM      5  C   UNL     1       4.195   6.340  17.062  0.00  0.00    +0.000 A 
ATOM      6  C   UNL     1       5.342   6.391  16.268  0.00  0.00    +0.000 A 
ATOM      7  C   UNL     1       5.961   5.203  15.860  0.00  0.00    +0.000 A 
ATOM      8  C   UNL     1       5.416   3.965  16.207  0.00  0.00    +0.000 A 
ATOM      9  C   UNL     1       4.269   3.905  16.991  0.00  0.00    +0.000 A 
ATOM     10  C   UNL     1       3.692   5.088  17.444  0.00  0.00    +0.000 A 
ATOM     11  O   UNL     1       2.600   4.974  18.265  0.00  0.00    +0.000 OA
ATOM     12  C   UNL     1       2.510   6.074  19.187  0.00  0.00    +0.000 C 
ENDBRANCH   2   3
BRANCH   1  13
ATOM     13  C   UNL     1       0.337  10.516  18.795  0.00  0.00    +0.000 C 
ATOM     14  O   UNL     1       0.893  11.330  19.524  0.00  0.00    +0.000 OA
BRANCH  13  18
ATOM     15  C   UNL     1      -3.775  10.987  17.597  0.00  0.00    +0.000 A 
ATOM     16  C   UNL     1      -2.923  10.103  16.932  0.00  0.00    +0.000 A 
ATOM     17  C   UNL     1      -1.592   9.958  17.333  0.00  0.00    +0.000 A 
ATOM     18  C   UNL     1      -1.092  10.708  18.403  0.00  0.00    +0.000 A 
ATOM     19  C   UNL     1      -1.938  11.623  19.046  0.00  0.00    +0.000 A 
ATOM     20  C   UNL     1      -3.275  11.757  18.648  0.00  0.00    +0.000 A 
BRANCH  15  22
ATOM     21  C   UNL     1      -6.088  11.176  18.066  0.00  0.00    +0.000 C 
ATOM     22  O   UNL     1      -5.047  11.053  17.103  0.00  0.00    +0.000 OA
ENDBRANCH  15  22
ENDBRANCH  13  18
ENDBRANCH   1  13
TORSDOF 4
ENDMDL
