MODEL 1
REMARK VINA RESULT:      -7.1      0.000      0.000
REMARK  Name = 
REMARK  7 active torsions:
REMARK  status: ('A' for Active; 'I' for Inactive)
REMARK    1  A    between atoms: C_1  and  O_2
REMARK    2  A    between atoms: O_2  and  C_3
REMARK    3  A    between atoms: C_6  and  C_7
REMARK    4  A    between atoms: C_10  and  C_12
REMARK    5  A    between atoms: C_19  and  C_20
REMARK    6  A    between atoms: C_23  and  O_24
REMARK    7  A    between atoms: O_24  and  C_25
REMARK                            x       y       z     vdW  Elec       q    Type
REMARK                         _______ _______ _______ _____ _____    ______ ____
ROOT
ATOM      1  C   UNL     1      -1.105  11.912  20.310  0.00  0.00    +0.000 C 
ATOM      2  N   UNL     1      -0.019  12.613  20.229  0.00  0.00    +0.000 NA
ATOM      3  N   UNL     1       0.772  12.043  19.275  0.00  0.00    +0.000 N 
ATOM      4  C   UNL     1       1.965  12.621  18.851  0.00  0.00    +0.000 C 
ATOM      5  O   UNL     1       2.701  12.122  18.004  0.00  0.00    +0.000 OA
ATOM      6  C   UNL     1       0.184  10.830  18.695  0.00  0.00    +0.000 C 
ATOM      7  C   UNL     1      -1.165  10.710  19.407  0.00  0.00    +0.000 C 
ENDROOT
BRANCH   4   8
ATOM      8  C   UNL     1       2.383  13.908  19.466  0.00  0.00    +0.000 A 
ATOM      9  C   UNL     1       2.095  15.157  18.908  0.00  0.00    +0.000 A 
ATOM     10  C   UNL     1       2.516  16.317  19.552  0.00  0.00    +0.000 A 
ATOM     11  C   UNL     1       3.247  16.181  20.720  0.00  0.00    +0.000 A 
ATOM     12 CL   UNL     1       3.820  17.563  21.556  0.00  0.00    +0.000 Cl
ATOM     13  N   UNL     1       3.577  14.997  21.277  0.00  0.00    +0.000 NA
ATOM     14  C   UNL     1       3.138  13.884  20.633  0.00  0.00    +0.000 A 
ENDBRANCH   4   8
BRANCH   1  18
ATOM     15  C   UNL     1      -4.268  12.978  22.991  0.00  0.00    +0.000 A 
ATOM     16  C   UNL     1      -3.105  12.375  23.466  0.00  0.00    +0.000 A 
ATOM     17  C   UNL     1      -2.077  12.038  22.586  0.00  0.00    +0.000 A 
ATOM     18  C   UNL     1      -2.213  12.289  21.214  0.00  0.00    +0.000 A 
ATOM     19  C   UNL     1      -3.378  12.887  20.734  0.00  0.00    +0.000 A 
ATOM     20  C   UNL     1      -4.405  13.228  21.623  0.00  0.00    +0.000 A 
BRANCH  15  22
ATOM     21  C   UNL     1      -6.526  12.778  23.661  0.00  0.00    +0.000 C 
ATOM     22  O   UNL     1      -5.212  13.245  23.943  0.00  0.00    +0.000 OA
ENDBRANCH  15  22
ENDBRANCH   1  18
BRANCH   6  23
ATOM     23  C   UNL     1       1.008   9.569  18.874  0.00  0.00    +0.000 A 
ATOM     24  C   UNL     1       1.691   8.975  17.806  0.00  0.00    +0.000 A 
ATOM     25  C   UNL     1       2.410   7.793  17.992  0.00  0.00    +0.000 A 
ATOM     26  C   UNL     1       2.495   7.205  19.253  0.00  0.00    +0.000 A 
ATOM     27  C   UNL     1       1.845   7.802  20.332  0.00  0.00    +0.000 A 
ATOM     28  C   UNL     1       1.107   8.978  20.145  0.00  0.00    +0.000 A 
BRANCH  26  29
ATOM     29  O   UNL     1       3.196   6.031  19.295  0.00  0.00    +0.000 OA
ATOM     30  C   UNL     1       3.760   5.599  18.065  0.00  0.00    +0.000 C 
ENDBRANCH  26  29
ENDBRANCH   6  23
TORSDOF 5
ENDMDL
MODEL 2
REMARK VINA RESULT:      -7.1      0.720      1.009
REMARK  Name = 
REMARK  7 active torsions:
REMARK  status: ('A' for Active; 'I' for Inactive)
REMARK    1  A    between atoms: C_1  and  O_2
REMARK    2  A    between atoms: O_2  and  C_3
REMARK    3  A    between atoms: C_6  and  C_7
REMARK    4  A    between atoms: C_10  and  C_12
REMARK    5  A    between atoms: C_19  and  C_20
REMARK    6  A    between atoms: C_23  and  O_24
REMARK    7  A    between atoms: O_24  and  C_25
REMARK                            x       y       z     vdW  Elec       q    Type
REMARK                         _______ _______ _______ _____ _____    ______ ____
ROOT
ATOM      1  C   UNL     1      -1.076  11.919  20.303  0.00  0.00    +0.000 C 
ATOM      2  N   UNL     1       0.015  12.610  20.196  0.00  0.00    +0.000 NA
ATOM      3  N   UNL     1       0.793  12.010  19.250  0.00  0.00    +0.000 N 
ATOM      4  C   UNL     1       1.987  12.568  18.803  0.00  0.00    +0.000 C 
ATOM      5  O   UNL     1       2.713  12.043  17.962  0.00  0.00    +0.000 OA
ATOM      6  C   UNL     1       0.191  10.788  18.705  0.00  0.00    +0.000 C 
ATOM      7  C   UNL     1      -1.152  10.696  19.431  0.00  0.00    +0.000 C 
ENDROOT
BRANCH   4   8
ATOM      8  C   UNL     1       2.420  13.867  19.383  0.00  0.00    +0.000 A 
ATOM      9  C   UNL     1       3.141  13.974  20.576  0.00  0.00    +0.000 A 
ATOM     10  C   UNL     1       3.515  15.228  21.049  0.00  0.00    +0.000 A 
ATOM     11  C   UNL     1       3.120  16.339  20.323  0.00  0.00    +0.000 A 
ATOM     12 CL   UNL     1       3.523  17.917  20.855  0.00  0.00    +0.000 Cl
ATOM     13  N   UNL     1       2.396  16.286  19.186  0.00  0.00    +0.000 NA
ATOM     14  C   UNL     1       2.059  15.046  18.743  0.00  0.00    +0.000 A 
ENDBRANCH   4   8
BRANCH   1  18
ATOM     15  C   UNL     1      -4.210  13.072  22.982  0.00  0.00    +0.000 A 
ATOM     16  C   UNL     1      -3.072  12.422  23.455  0.00  0.00    +0.000 A 
ATOM     17  C   UNL     1      -2.053  12.057  22.576  0.00  0.00    +0.000 A 
ATOM     18  C   UNL     1      -2.173  12.327  21.206  0.00  0.00    +0.000 A 
ATOM     19  C   UNL     1      -3.314  12.972  20.728  0.00  0.00    +0.000 A 
ATOM     20  C   UNL     1      -4.332  13.341  21.617  0.00  0.00    +0.000 A 
BRANCH  15  22
ATOM     21  C   UNL     1      -6.431  12.781  23.736  0.00  0.00    +0.000 C 
ATOM     22  O   UNL     1      -5.148  13.363  23.933  0.00  0.00    +0.000 OA
ENDBRANCH  15  22
ENDBRANCH   1  18
BRANCH   6  23
ATOM     23  C   UNL     1       1.007   9.526  18.908  0.00  0.00    +0.000 A 
ATOM     24  C   UNL     1       1.682   8.903  17.851  0.00  0.00    +0.000 A 
ATOM     25  C   UNL     1       2.393   7.721  18.060  0.00  0.00    +0.000 A 
ATOM     26  C   UNL     1       2.479   7.160  19.333  0.00  0.00    +0.000 A 
ATOM     27  C   UNL     1       1.838   7.785  20.401  0.00  0.00    +0.000 A 
ATOM     28  C   UNL     1       1.107   8.962  20.191  0.00  0.00    +0.000 A 
BRANCH  26  29
ATOM     29  O   UNL     1       3.171   5.982  19.397  0.00  0.00    +0.000 OA
ATOM     30  C   UNL     1       2.579   4.954  20.178  0.00  0.00    +0.000 C 
ENDBRANCH  26  29
ENDBRANCH   6  23
TORSDOF 5
ENDMDL
MODEL 3
REMARK VINA RESULT:      -6.9      1.781      6.963
REMARK  Name = 
REMARK  7 active torsions:
REMARK  status: ('A' for Active; 'I' for Inactive)
REMARK    1  A    between atoms: C_1  and  O_2
REMARK    2  A    between atoms: O_2  and  C_3
REMARK    3  A    between atoms: C_6  and  C_7
REMARK    4  A    between atoms: C_10  and  C_12
REMARK    5  A    between atoms: C_19  and  C_20
REMARK    6  A    between atoms: C_23  and  O_24
REMARK    7  A    between atoms: O_24  and  C_25
REMARK                            x       y       z     vdW  Elec       q    Type
REMARK                         _______ _______ _______ _____ _____    ______ ____
ROOT
ATOM      1  C   UNL     1       0.735  10.275  20.696  0.00  0.00    +0.000 C 
ATOM      2  N   UNL     1       1.174  11.468  20.446  0.00  0.00    +0.000 NA
ATOM      3  N   UNL     1       0.493  12.335  21.249  0.00  0.00    +0.000 N 
ATOM      4  C   UNL     1       0.807  13.689  21.320  0.00  0.00    +0.000 C 
ATOM      5  O   UNL     1       0.201  14.493  22.025  0.00  0.00    +0.000 OA
ATOM      6  C   UNL     1      -0.519  11.672  22.079  0.00  0.00    +0.000 C 
ATOM      7  C   UNL     1      -0.368  10.193  21.715  0.00  0.00    +0.000 C 
ENDROOT
BRANCH   4   8
ATOM      8  C   UNL     1       1.927  14.198  20.487  0.00  0.00    +0.000 A 
ATOM      9  C   UNL     1       1.772  14.616  19.162  0.00  0.00    +0.000 A 
ATOM     10  C   UNL     1       2.872  15.088  18.451  0.00  0.00    +0.000 A 
ATOM     11  C   UNL     1       4.103  15.089  19.086  0.00  0.00    +0.000 A 
ATOM     12 CL   UNL     1       5.506  15.633  18.268  0.00  0.00    +0.000 Cl
ATOM     13  N   UNL     1       4.306  14.665  20.351  0.00  0.00    +0.000 NA
ATOM     14  C   UNL     1       3.209  14.224  21.023  0.00  0.00    +0.000 A 
ENDBRANCH   4   8
BRANCH   1  18
ATOM     15  C   UNL     1       2.386   6.857  18.714  0.00  0.00    +0.000 A 
ATOM     16  C   UNL     1       2.124   8.031  18.010  0.00  0.00    +0.000 A 
ATOM     17  C   UNL     1       1.594   9.141  18.666  0.00  0.00    +0.000 A 
ATOM     18  C   UNL     1       1.304   9.080  20.035  0.00  0.00    +0.000 A 
ATOM     19  C   UNL     1       1.558   7.904  20.742  0.00  0.00    +0.000 A 
ATOM     20  C   UNL     1       2.096   6.794  20.079  0.00  0.00    +0.000 A 
BRANCH  15  22
ATOM     21  C   UNL     1       2.048   4.688  17.837  0.00  0.00    +0.000 C 
ATOM     22  O   UNL     1       2.886   5.831  17.963  0.00  0.00    +0.000 OA
ENDBRANCH  15  22
ENDBRANCH   1  18
BRANCH   6  23
ATOM     23  C   UNL     1      -1.942  12.145  21.856  0.00  0.00    +0.000 A 
ATOM     24  C   UNL     1      -2.818  12.385  22.922  0.00  0.00    +0.000 A 
ATOM     25  C   UNL     1      -4.134  12.783  22.684  0.00  0.00    +0.000 A 
ATOM     26  C   UNL     1      -4.590  12.988  21.383  0.00  0.00    +0.000 A 
ATOM     27  C   UNL     1      -3.721  12.782  20.313  0.00  0.00    +0.000 A 
ATOM     28  C   UNL     1      -2.404  12.365  20.547  0.00  0.00    +0.000 A 
BRANCH  26  29
ATOM     29  O   UNL     1      -5.908  13.337  21.283  0.00  0.00    +0.000 OA
ATOM     30  C   UNL     1      -6.823  12.536  22.018  0.00  0.00    +0.000 C 
ENDBRANCH  26  29
ENDBRANCH   6  23
TORSDOF 5
ENDMDL
MODEL 4
REMARK VINA RESULT:      -6.9      0.455      1.324
REMARK  Name = 
REMARK  7 active torsions:
REMARK  status: ('A' for Active; 'I' for Inactive)
REMARK    1  A    between atoms: C_1  and  O_2
REMARK    2  A    between atoms: O_2  and  C_3
REMARK    3  A    between atoms: C_6  and  C_7
REMARK    4  A    between atoms: C_10  and  C_12
REMARK    5  A    between atoms: C_19  and  C_20
REMARK    6  A    between atoms: C_23  and  O_24
REMARK    7  A    between atoms: O_24  and  C_25
REMARK                            x       y       z     vdW  Elec       q    Type
REMARK                         _______ _______ _______ _____ _____    ______ ____
ROOT
ATOM      1  C   UNL     1      -1.174  11.908  20.384  0.00  0.00    +0.000 C 
ATOM      2  N   UNL     1      -0.097  12.620  20.277  0.00  0.00    +0.000 NA
ATOM      3  N   UNL     1       0.680  12.050  19.312  0.00  0.00    +0.000 N 
ATOM      4  C   UNL     1       1.859  12.637  18.861  0.00  0.00    +0.000 C 
ATOM      5  O   UNL     1       2.584  12.138  18.003  0.00  0.00    +0.000 OA
ATOM      6  C   UNL     1       0.094  10.827  18.752  0.00  0.00    +0.000 C 
ATOM      7  C   UNL     1      -1.240  10.699  19.491  0.00  0.00    +0.000 C 
ENDROOT
BRANCH   4   8
ATOM      8  C   UNL     1       2.276  13.932  19.459  0.00  0.00    +0.000 A 
ATOM      9  C   UNL     1       1.868  15.175  18.964  0.00  0.00    +0.000 A 
ATOM     10  C   UNL     1       2.297  16.343  19.587  0.00  0.00    +0.000 A 
ATOM     11  C   UNL     1       3.156  16.224  20.667  0.00  0.00    +0.000 A 
ATOM     12 CL   UNL     1       3.745  17.618  21.470  0.00  0.00    +0.000 Cl
ATOM     13  N   UNL     1       3.602  15.049  21.157  0.00  0.00    +0.000 NA
ATOM     14  C   UNL     1       3.153  13.927  20.537  0.00  0.00    +0.000 A 
ENDBRANCH   4   8
BRANCH   1  18
ATOM     15  C   UNL     1      -4.389  13.007  22.990  0.00  0.00    +0.000 A 
ATOM     16  C   UNL     1      -4.513  13.146  21.609  0.00  0.00    +0.000 A 
ATOM     17  C   UNL     1      -3.463  12.778  20.768  0.00  0.00    +0.000 A 
ATOM     18  C   UNL     1      -2.268  12.281  21.306  0.00  0.00    +0.000 A 
ATOM     19  C   UNL     1      -2.139  12.147  22.689  0.00  0.00    +0.000 A 
ATOM     20  C   UNL     1      -3.198  12.513  23.528  0.00  0.00    +0.000 A 
BRANCH  15  22
ATOM     21  C   UNL     1      -6.737  12.949  23.254  0.00  0.00    +0.000 C 
ATOM     22  O   UNL     1      -5.474  13.417  23.712  0.00  0.00    +0.000 OA
ENDBRANCH  15  22
ENDBRANCH   1  18
BRANCH   6  23
ATOM     23  C   UNL     1       0.934   9.576  18.924  0.00  0.00    +0.000 A 
ATOM     24  C   UNL     1       1.024   8.909  20.152  0.00  0.00    +0.000 A 
ATOM     25  C   UNL     1       1.835   7.782  20.290  0.00  0.00    +0.000 A 
ATOM     26  C   UNL     1       2.539   7.276  19.199  0.00  0.00    +0.000 A 
ATOM     27  C   UNL     1       2.435   7.911  17.962  0.00  0.00    +0.000 A 
ATOM     28  C   UNL     1       1.636   9.054  17.825  0.00  0.00    +0.000 A 
BRANCH  26  29
ATOM     29  O   UNL     1       3.327   6.193  19.474  0.00  0.00    +0.000 OA
ATOM     30  C   UNL     1       2.663   5.061  20.018  0.00  0.00    +0.000 C 
ENDBRANCH  26  29
ENDBRANCH   6  23
TORSDOF 5
ENDMDL
MODEL 5
REMARK VINA RESULT:      -6.9      1.758      6.889
REMARK  Name = 
REMARK  7 active torsions:
REMARK  status: ('A' for Active; 'I' for Inactive)
REMARK    1  A    between atoms: C_1  and  O_2
REMARK    2  A    between atoms: O_2  and  C_3
REMARK    3  A    between atoms: C_6  and  C_7
REMARK    4  A    between atoms: C_10  and  C_12
REMARK    5  A    between atoms: C_19  and  C_20
REMARK    6  A    between atoms: C_23  and  O_24
REMARK    7  A    between atoms: O_24  and  C_25
REMARK                            x       y       z     vdW  Elec       q    Type
REMARK                         _______ _______ _______ _____ _____    ______ ____
ROOT
ATOM      1  C   UNL     1       0.718  10.330  20.635  0.00  0.00    +0.000 C 
ATOM      2  N   UNL     1       1.138  11.540  20.439  0.00  0.00    +0.000 NA
ATOM      3  N   UNL     1       0.456  12.357  21.293  0.00  0.00    +0.000 N 
ATOM      4  C   UNL     1       0.754  13.710  21.427  0.00  0.00    +0.000 C 
ATOM      5  O   UNL     1       0.148  14.470  22.178  0.00  0.00    +0.000 OA
ATOM      6  C   UNL     1      -0.535  11.640  22.103  0.00  0.00    +0.000 C 
ATOM      7  C   UNL     1      -0.370  10.183  21.663  0.00  0.00    +0.000 C 
ENDROOT
BRANCH   4   8
ATOM      8  C   UNL     1       1.856  14.275  20.605  0.00  0.00    +0.000 A 
ATOM      9  C   UNL     1       1.665  14.818  19.331  0.00  0.00    +0.000 A 
ATOM     10  C   UNL     1       2.750  15.335  18.628  0.00  0.00    +0.000 A 
ATOM     11  C   UNL     1       4.001  15.254  19.216  0.00  0.00    +0.000 A 
ATOM     12 CL   UNL     1       5.387  15.847  18.402  0.00  0.00    +0.000 Cl
ATOM     13  N   UNL     1       4.238  14.709  20.427  0.00  0.00    +0.000 NA
ATOM     14  C   UNL     1       3.156  14.227  21.094  0.00  0.00    +0.000 A 
ENDBRANCH   4   8
BRANCH   1  18
ATOM     15  C   UNL     1       2.379   6.948  18.602  0.00  0.00    +0.000 A 
ATOM     16  C   UNL     1       2.120   6.899  19.970  0.00  0.00    +0.000 A 
ATOM     17  C   UNL     1       1.572   8.004  20.622  0.00  0.00    +0.000 A 
ATOM     18  C   UNL     1       1.292   9.177  19.909  0.00  0.00    +0.000 A 
ATOM     19  C   UNL     1       1.556   9.231  18.540  0.00  0.00    +0.000 A 
ATOM     20  C   UNL     1       2.102   8.117  17.890  0.00  0.00    +0.000 A 
BRANCH  15  22
ATOM     21  C   UNL     1       2.040   4.727  17.867  0.00  0.00    +0.000 C 
ATOM     22  O   UNL     1       2.934   5.814  18.078  0.00  0.00    +0.000 OA
ENDBRANCH  15  22
ENDBRANCH   1  18
BRANCH   6  23
ATOM     23  C   UNL     1      -1.967  12.104  21.922  0.00  0.00    +0.000 A 
ATOM     24  C   UNL     1      -2.507  12.361  20.656  0.00  0.00    +0.000 A 
ATOM     25  C   UNL     1      -3.817  12.824  20.522  0.00  0.00    +0.000 A 
ATOM     26  C   UNL     1      -4.625  13.001  21.644  0.00  0.00    +0.000 A 
ATOM     27  C   UNL     1      -4.111  12.720  22.909  0.00  0.00    +0.000 A 
ATOM     28  C   UNL     1      -2.791  12.273  23.048  0.00  0.00    +0.000 A 
BRANCH  26  29
ATOM     29  O   UNL     1      -5.872  13.496  21.382  0.00  0.00    +0.000 OA
ATOM     30  C   UNL     1      -6.942  12.904  22.106  0.00  0.00    +0.000 C 
ENDBRANCH  26  29
ENDBRANCH   6  23
TORSDOF 5
ENDMDL
MODEL 6
REMARK VINA RESULT:      -6.8      1.991      7.228
REMARK  Name = 
REMARK  7 active torsions:
REMARK  status: ('A' for Active; 'I' for Inactive)
REMARK    1  A    between atoms: C_1  and  O_2
REMARK    2  A    between atoms: O_2  and  C_3
REMARK    3  A    between atoms: C_6  and  C_7
REMARK    4  A    between atoms: C_10  and  C_12
REMARK    5  A    between atoms: C_19  and  C_20
REMARK    6  A    between atoms: C_23  and  O_24
REMARK    7  A    between atoms: O_24  and  C_25
REMARK                            x       y       z     vdW  Elec       q    Type
REMARK                         _______ _______ _______ _____ _____    ______ ____
ROOT
ATOM      1  C   UNL     1       0.009  10.992  21.503  0.00  0.00    +0.000 C 
ATOM      2  N   UNL     1       0.199  12.214  21.119  0.00  0.00    +0.000 NA
ATOM      3  N   UNL     1      -0.495  13.026  21.967  0.00  0.00    +0.000 N 
ATOM      4  C   UNL     1      -0.407  14.414  21.909  0.00  0.00    +0.000 C 
ATOM      5  O   UNL     1      -1.031  15.169  22.651  0.00  0.00    +0.000 OA
ATOM      6  C   UNL     1      -1.249  12.284  22.983  0.00  0.00    +0.000 C 
ATOM      7  C   UNL     1      -0.905  10.822  22.686  0.00  0.00    +0.000 C 
ENDROOT
BRANCH   4   8
ATOM      8  C   UNL     1       0.479  15.023  20.882  0.00  0.00    +0.000 A 
ATOM      9  C   UNL     1       1.831  15.302  21.100  0.00  0.00    +0.000 A 
ATOM     10  C   UNL     1       2.595  15.867  20.082  0.00  0.00    +0.000 A 
ATOM     11  C   UNL     1       1.963  16.166  18.887  0.00  0.00    +0.000 A 
ATOM     12 CL   UNL     1       2.832  16.883  17.596  0.00  0.00    +0.000 Cl
ATOM     13  N   UNL     1       0.655  15.945  18.643  0.00  0.00    +0.000 NA
ATOM     14  C   UNL     1      -0.060  15.379  19.651  0.00  0.00    +0.000 A 
ENDBRANCH   4   8
BRANCH   1  18
ATOM     15  C   UNL     1       1.923   7.731  19.494  0.00  0.00    +0.000 A 
ATOM     16  C   UNL     1       1.605   8.902  18.809  0.00  0.00    +0.000 A 
ATOM     17  C   UNL     1       0.989   9.962  19.474  0.00  0.00    +0.000 A 
ATOM     18  C   UNL     1       0.669   9.850  20.833  0.00  0.00    +0.000 A 
ATOM     19  C   UNL     1       0.980   8.677  21.521  0.00  0.00    +0.000 A 
ATOM     20  C   UNL     1       1.604   7.619  20.849  0.00  0.00    +0.000 A 
BRANCH  15  22
ATOM     21  C   UNL     1       3.337   5.838  19.435  0.00  0.00    +0.000 C 
ATOM     22  O   UNL     1       2.507   6.756  18.735  0.00  0.00    +0.000 OA
ENDBRANCH  15  22
ENDBRANCH   1  18
BRANCH   6  23
ATOM     23  C   UNL     1      -2.749  12.506  22.958  0.00  0.00    +0.000 A 
ATOM     24  C   UNL     1      -3.461  12.612  21.757  0.00  0.00    +0.000 A 
ATOM     25  C   UNL     1      -4.835  12.855  21.765  0.00  0.00    +0.000 A 
ATOM     26  C   UNL     1      -5.531  12.956  22.968  0.00  0.00    +0.000 A 
ATOM     27  C   UNL     1      -4.841  12.823  24.172  0.00  0.00    +0.000 A 
ATOM     28  C   UNL     1      -3.458  12.597  24.167  0.00  0.00    +0.000 A 
BRANCH  26  29
ATOM     29  O   UNL     1      -6.864  13.235  22.840  0.00  0.00    +0.000 OA
ATOM     30  C   UNL     1      -7.606  13.298  24.050  0.00  0.00    +0.000 C 
ENDBRANCH  26  29
ENDBRANCH   6  23
TORSDOF 5
ENDMDL
MODEL 7
REMARK VINA RESULT:      -6.8      1.977      7.299
REMARK  Name = 
REMARK  7 active torsions:
REMARK  status: ('A' for Active; 'I' for Inactive)
REMARK    1  A    between atoms: C_1  and  O_2
REMARK    2  A    between atoms: O_2  and  C_3
REMARK    3  A    between atoms: C_6  and  C_7
REMARK    4  A    between atoms: C_10  and  C_12
REMARK    5  A    between atoms: C_19  and  C_20
REMARK    6  A    between atoms: C_23  and  O_24
REMARK    7  A    between atoms: O_24  and  C_25
REMARK                            x       y       z     vdW  Elec       q    Type
REMARK                         _______ _______ _______ _____ _____    ______ ____
ROOT
ATOM      1  C   UNL     1      -0.306  11.243  21.608  0.00  0.00    +0.000 C 
ATOM      2  N   UNL     1      -0.234  12.455  21.155  0.00  0.00    +0.000 NA
ATOM      3  N   UNL     1      -0.948  13.253  22.000  0.00  0.00    +0.000 N 
ATOM      4  C   UNL     1      -0.975  14.639  21.871  0.00  0.00    +0.000 C 
ATOM      5  O   UNL     1      -1.620  15.380  22.609  0.00  0.00    +0.000 OA
ATOM      6  C   UNL     1      -1.587  12.508  23.090  0.00  0.00    +0.000 C 
ATOM      7  C   UNL     1      -1.142  11.064  22.845  0.00  0.00    +0.000 C 
ENDROOT
BRANCH   4   8
ATOM      8  C   UNL     1      -0.195  15.261  20.769  0.00  0.00    +0.000 A 
ATOM      9  C   UNL     1      -0.743  15.580  19.523  0.00  0.00    +0.000 A 
ATOM     10  C   UNL     1       0.055  16.168  18.545  0.00  0.00    +0.000 A 
ATOM     11  C   UNL     1       1.390  16.382  18.841  0.00  0.00    +0.000 A 
ATOM     12 CL   UNL     1       2.440  17.081  17.680  0.00  0.00    +0.000 Cl
ATOM     13  N   UNL     1       1.970  16.061  20.016  0.00  0.00    +0.000 NA
ATOM     14  C   UNL     1       1.161  15.502  20.955  0.00  0.00    +0.000 A 
ENDBRANCH   4   8
BRANCH   1  18
ATOM     15  C   UNL     1       1.767   8.044  19.656  0.00  0.00    +0.000 A 
ATOM     16  C   UNL     1       1.396   9.187  18.951  0.00  0.00    +0.000 A 
ATOM     17  C   UNL     1       0.728  10.228  19.597  0.00  0.00    +0.000 A 
ATOM     18  C   UNL     1       0.410  10.124  20.958  0.00  0.00    +0.000 A 
ATOM     19  C   UNL     1       0.774   8.978  21.665  0.00  0.00    +0.000 A 
ATOM     20  C   UNL     1       1.450   7.939  21.012  0.00  0.00    +0.000 A 
BRANCH  15  22
ATOM     21  C   UNL     1       3.185   7.561  17.828  0.00  0.00    +0.000 C 
ATOM     22  O   UNL     1       2.399   7.086  18.914  0.00  0.00    +0.000 OA
ENDBRANCH  15  22
ENDBRANCH   1  18
BRANCH   6  23
ATOM     23  C   UNL     1      -3.099  12.610  23.136  0.00  0.00    +0.000 A 
ATOM     24  C   UNL     1      -3.867  12.744  21.973  0.00  0.00    +0.000 A 
ATOM     25  C   UNL     1      -5.255  12.875  22.049  0.00  0.00    +0.000 A 
ATOM     26  C   UNL     1      -5.905  12.835  23.282  0.00  0.00    +0.000 A 
ATOM     27  C   UNL     1      -5.156  12.672  24.446  0.00  0.00    +0.000 A 
ATOM     28  C   UNL     1      -3.762  12.559  24.375  0.00  0.00    +0.000 A 
BRANCH  26  29
ATOM     29  O   UNL     1      -7.260  13.014  23.223  0.00  0.00    +0.000 OA
ATOM     30  C   UNL     1      -7.821  13.849  24.226  0.00  0.00    +0.000 C 
ENDBRANCH  26  29
ENDBRANCH   6  23
TORSDOF 5
ENDMDL
MODEL 8
REMARK VINA RESULT:      -6.8      2.030      7.170
REMARK  Name = 
REMARK  7 active torsions:
REMARK  status: ('A' for Active; 'I' for Inactive)
REMARK    1  A    between atoms: C_1  and  O_2
REMARK    2  A    between atoms: O_2  and  C_3
REMARK    3  A    between atoms: C_6  and  C_7
REMARK    4  A    between atoms: C_10  and  C_12
REMARK    5  A    between atoms: C_19  and  C_20
REMARK    6  A    between atoms: C_23  and  O_24
REMARK    7  A    between atoms: O_24  and  C_25
REMARK                            x       y       z     vdW  Elec       q    Type
REMARK                         _______ _______ _______ _____ _____    ______ ____
ROOT
ATOM      1  C   UNL     1       0.044  11.029  21.454  0.00  0.00    +0.000 C 
ATOM      2  N   UNL     1       0.236  12.250  21.066  0.00  0.00    +0.000 NA
ATOM      3  N   UNL     1      -0.461  13.065  21.908  0.00  0.00    +0.000 N 
ATOM      4  C   UNL     1      -0.373  14.453  21.846  0.00  0.00    +0.000 C 
ATOM      5  O   UNL     1      -1.000  15.210  22.584  0.00  0.00    +0.000 OA
ATOM      6  C   UNL     1      -1.219  12.326  22.924  0.00  0.00    +0.000 C 
ATOM      7  C   UNL     1      -0.875  10.863  22.633  0.00  0.00    +0.000 C 
ENDROOT
BRANCH   4   8
ATOM      8  C   UNL     1       0.517  15.058  20.821  0.00  0.00    +0.000 A 
ATOM      9  C   UNL     1       1.882  15.284  21.023  0.00  0.00    +0.000 A 
ATOM     10  C   UNL     1       2.648  15.849  20.008  0.00  0.00    +0.000 A 
ATOM     11  C   UNL     1       2.008  16.203  18.832  0.00  0.00    +0.000 A 
ATOM     12 CL   UNL     1       2.881  16.924  17.546  0.00  0.00    +0.000 Cl
ATOM     13  N   UNL     1       0.689  16.034  18.605  0.00  0.00    +0.000 NA
ATOM     14  C   UNL     1      -0.029  15.467  19.610  0.00  0.00    +0.000 A 
ENDBRANCH   4   8
BRANCH   1  18
ATOM     15  C   UNL     1       1.958   7.676  19.601  0.00  0.00    +0.000 A 
ATOM     16  C   UNL     1       1.623   7.647  20.954  0.00  0.00    +0.000 A 
ATOM     17  C   UNL     1       0.992   8.741  21.546  0.00  0.00    +0.000 A 
ATOM     18  C   UNL     1       0.706   9.885  20.790  0.00  0.00    +0.000 A 
ATOM     19  C   UNL     1       1.047   9.920  19.437  0.00  0.00    +0.000 A 
ATOM     20  C   UNL     1       1.674   8.817  18.846  0.00  0.00    +0.000 A 
BRANCH  15  22
ATOM     21  C   UNL     1       2.454   5.390  19.943  0.00  0.00    +0.000 C 
ATOM     22  O   UNL     1       2.588   6.556  19.137  0.00  0.00    +0.000 OA
ENDBRANCH  15  22
ENDBRANCH   1  18
BRANCH   6  23
ATOM     23  C   UNL     1      -2.719  12.548  22.892  0.00  0.00    +0.000 A 
ATOM     24  C   UNL     1      -3.470  12.697  24.064  0.00  0.00    +0.000 A 
ATOM     25  C   UNL     1      -4.854  12.861  24.006  0.00  0.00    +0.000 A 
ATOM     26  C   UNL     1      -5.510  12.922  22.778  0.00  0.00    +0.000 A 
ATOM     27  C   UNL     1      -4.773  12.806  21.601  0.00  0.00    +0.000 A 
ATOM     28  C   UNL     1      -3.385  12.622  21.657  0.00  0.00    +0.000 A 
BRANCH  26  29
ATOM     29  O   UNL     1      -6.870  13.046  22.857  0.00  0.00    +0.000 OA
ATOM     30  C   UNL     1      -7.399  13.284  24.154  0.00  0.00    +0.000 C 
ENDBRANCH  26  29
ENDBRANCH   6  23
TORSDOF 5
ENDMDL
MODEL 9
REMARK VINA RESULT:      -6.8      1.944      7.238
REMARK  Name = 
REMARK  7 active torsions:
REMARK  status: ('A' for Active; 'I' for Inactive)
REMARK    1  A    between atoms: C_1  and  O_2
REMARK    2  A    between atoms: O_2  and  C_3
REMARK    3  A    between atoms: C_6  and  C_7
REMARK    4  A    between atoms: C_10  and  C_12
REMARK    5  A    between atoms: C_19  and  C_20
REMARK    6  A    between atoms: C_23  and  O_24
REMARK    7  A    between atoms: O_24  and  C_25
REMARK                            x       y       z     vdW  Elec       q    Type
REMARK                         _______ _______ _______ _____ _____    ______ ____
ROOT
ATOM      1  C   UNL     1      -0.187  11.202  21.545  0.00  0.00    +0.000 C 
ATOM      2  N   UNL     1      -0.077  12.413  21.096  0.00  0.00    +0.000 NA
ATOM      3  N   UNL     1      -0.785  13.228  21.929  0.00  0.00    +0.000 N 
ATOM      4  C   UNL     1      -0.775  14.614  21.803  0.00  0.00    +0.000 C 
ATOM      5  O   UNL     1      -1.414  15.370  22.531  0.00  0.00    +0.000 OA
ATOM      6  C   UNL     1      -1.463  12.497  23.006  0.00  0.00    +0.000 C 
ATOM      7  C   UNL     1      -1.051  11.043  22.766  0.00  0.00    +0.000 C 
ENDROOT
BRANCH   4   8
ATOM      8  C   UNL     1       0.041  15.217  20.716  0.00  0.00    +0.000 A 
ATOM      9  C   UNL     1      -0.486  15.598  19.479  0.00  0.00    +0.000 A 
ATOM     10  C   UNL     1       0.345  16.164  18.516  0.00  0.00    +0.000 A 
ATOM     11  C   UNL     1       1.690  16.294  18.817  0.00  0.00    +0.000 A 
ATOM     12 CL   UNL     1       2.779  16.960  17.674  0.00  0.00    +0.000 Cl
ATOM     13  N   UNL     1       2.249  15.911  19.984  0.00  0.00    +0.000 NA
ATOM     14  C   UNL     1       1.408  15.376  20.908  0.00  0.00    +0.000 A 
ENDBRANCH   4   8
BRANCH   1  18
ATOM     15  C   UNL     1       1.829   7.871  19.765  0.00  0.00    +0.000 A 
ATOM     16  C   UNL     1       1.454   7.842  21.106  0.00  0.00    +0.000 A 
ATOM     17  C   UNL     1       0.791   8.929  21.675  0.00  0.00    +0.000 A 
ATOM     18  C   UNL     1       0.511  10.066  20.906  0.00  0.00    +0.000 A 
ATOM     19  C   UNL     1       0.891  10.101  19.564  0.00  0.00    +0.000 A 
ATOM     20  C   UNL     1       1.552   9.004  18.997  0.00  0.00    +0.000 A 
BRANCH  15  22
ATOM     21  C   UNL     1       3.200   6.902  18.100  0.00  0.00    +0.000 C 
ATOM     22  O   UNL     1       2.489   6.758  19.324  0.00  0.00    +0.000 OA
ENDBRANCH  15  22
ENDBRANCH   1  18
BRANCH   6  23
ATOM     23  C   UNL     1      -2.973  12.638  23.025  0.00  0.00    +0.000 A 
ATOM     24  C   UNL     1      -3.694  12.713  24.222  0.00  0.00    +0.000 A 
ATOM     25  C   UNL     1      -5.086  12.804  24.209  0.00  0.00    +0.000 A 
ATOM     26  C   UNL     1      -5.783  12.863  23.003  0.00  0.00    +0.000 A 
ATOM     27  C   UNL     1      -5.076  12.820  21.802  0.00  0.00    +0.000 A 
ATOM     28  C   UNL     1      -3.680  12.710  21.812  0.00  0.00    +0.000 A 
BRANCH  26  29
ATOM     29  O   UNL     1      -7.144  12.910  23.126  0.00  0.00    +0.000 OA
ATOM     30  C   UNL     1      -7.643  13.623  24.250  0.00  0.00    +0.000 C 
ENDBRANCH  26  29
ENDBRANCH   6  23
TORSDOF 5
ENDMDL
