MODEL 1
REMARK VINA RESULT:      -8.0      0.000      0.000
REMARK  Name = 
REMARK  4 active torsions:
REMARK  status: ('A' for Active; 'I' for Inactive)
REMARK    1  A    between atoms: C_1  and  C_2
REMARK    2  A    between atoms: C_2  and  C_3
REMARK    3  A    between atoms: C_8  and  N_9
REMARK    4  A    between atoms: C_10  and  C_12
REMARK                            x       y       z     vdW  Elec       q    Type
REMARK                         _______ _______ _______ _____ _____    ______ ____
ROOT
ATOM      1  C   UNL     1       2.392   7.386  18.878  0.00  0.00    +0.000 A 
ATOM      2  C   UNL     1       2.068   6.899  20.091  0.00  0.00    +0.000 A 
ATOM      3  N   UNL     1       1.358   7.543  21.068  0.00  0.00    +0.000 NA
ATOM      4  C   UNL     1       0.969   8.727  20.761  0.00  0.00    +0.000 A 
ATOM      5  S   UNL     1       0.081   9.720  21.840  0.00  0.00    +0.000 S 
ATOM      6  C   UNL     1      -0.015  10.923  20.560  0.00  0.00    +0.000 A 
ATOM      7  N   UNL     1      -0.743  12.062  20.820  0.00  0.00    +0.000 N 
ATOM      8  C   UNL     1      -1.841  12.137  21.786  0.00  0.00    +0.000 C 
ATOM      9  C   UNL     1      -2.899  12.951  21.059  0.00  0.00    +0.000 C 
ATOM     10  C   UNL     1      -2.069  13.959  20.287  0.00  0.00    +0.000 C 
ATOM     11  C   UNL     1      -0.827  13.169  19.870  0.00  0.00    +0.000 C 
ATOM     12  N   UNL     1       0.624  10.627  19.462  0.00  0.00    +0.000 NA
ATOM     13  N   UNL     1       1.190   9.364  19.572  0.00  0.00    +0.000 N 
ATOM     14  C   UNL     1       1.909   8.754  18.540  0.00  0.00    +0.000 A 
ATOM     15  O   UNL     1       2.159   9.240  17.438  0.00  0.00    +0.000 OA
ENDROOT
BRANCH   1  17
ATOM     16  N   UNL     1       4.455   6.860  17.591  0.00  0.00    +0.000 N 
ATOM     17  C   UNL     1       3.212   6.453  18.042  0.00  0.00    +0.000 C 
ATOM     18  O   UNL     1       2.750   5.330  17.841  0.00  0.00    +0.000 OA
ATOM     19  H   UNL     1       4.822   7.748  17.928  0.00  0.00    +0.000 HD
BRANCH  16  25
ATOM     20  C   UNL     1       6.342   5.255  17.308  0.00  0.00    +0.000 A 
ATOM     21  C   UNL     1       7.117   4.442  16.441  0.00  0.00    +0.000 A 
ATOM     22  C   UNL     1       6.888   4.407  15.069  0.00  0.00    +0.000 A 
ATOM     23  C   UNL     1       5.883   5.189  14.531  0.00  0.00    +0.000 A 
ATOM     24  C   UNL     1       5.120   6.007  15.369  0.00  0.00    +0.000 A 
ATOM     25  C   UNL     1       5.303   6.044  16.766  0.00  0.00    +0.000 A 
BRANCH  20  27
ATOM     26  C   UNL     1       7.869   5.918  19.189  0.00  0.00    +0.000 C 
ATOM     27  C   UNL     1       6.630   5.129  18.785  0.00  0.00    +0.000 C 
ENDBRANCH  20  27
ENDBRANCH  16  25
ENDBRANCH   1  17
TORSDOF 3
ENDMDL
MODEL 2
REMARK VINA RESULT:      -7.6      1.736      2.616
REMARK  Name = 
REMARK  4 active torsions:
REMARK  status: ('A' for Active; 'I' for Inactive)
REMARK    1  A    between atoms: C_1  and  C_2
REMARK    2  A    between atoms: C_2  and  C_3
REMARK    3  A    between atoms: C_8  and  N_9
REMARK    4  A    between atoms: C_10  and  C_12
REMARK                            x       y       z     vdW  Elec       q    Type
REMARK                         _______ _______ _______ _____ _____    ______ ____
ROOT
ATOM      1  C   UNL     1       1.447   8.723  19.517  0.00  0.00    +0.000 A 
ATOM      2  C   UNL     1       1.487   8.148  20.735  0.00  0.00    +0.000 A 
ATOM      3  N   UNL     1       0.858   8.585  21.868  0.00  0.00    +0.000 NA
ATOM      4  C   UNL     1       0.160   9.652  21.719  0.00  0.00    +0.000 A 
ATOM      5  S   UNL     1      -0.698  10.386  23.010  0.00  0.00    +0.000 S 
ATOM      6  C   UNL     1      -1.312  11.562  21.854  0.00  0.00    +0.000 A 
ATOM      7  N   UNL     1      -2.212  12.493  22.322  0.00  0.00    +0.000 N 
ATOM      8  C   UNL     1      -3.086  12.287  23.479  0.00  0.00    +0.000 C 
ATOM      9  C   UNL     1      -4.422  12.848  23.020  0.00  0.00    +0.000 C 
ATOM     10  C   UNL     1      -4.009  14.038  22.176  0.00  0.00    +0.000 C 
ATOM     11  C   UNL     1      -2.729  13.570  21.482  0.00  0.00    +0.000 C 
ATOM     12  N   UNL     1      -0.854  11.448  20.639  0.00  0.00    +0.000 NA
ATOM     13  N   UNL     1      -0.007  10.350  20.555  0.00  0.00    +0.000 N 
ATOM     14  C   UNL     1       0.612   9.947  19.368  0.00  0.00    +0.000 A 
ATOM     15  O   UNL     1       0.524  10.503  18.275  0.00  0.00    +0.000 OA
ENDROOT
BRANCH   1  17
ATOM     16  N   UNL     1       2.888   6.827  18.799  0.00  0.00    +0.000 N 
ATOM     17  C   UNL     1       2.274   8.026  18.482  0.00  0.00    +0.000 C 
ATOM     18  O   UNL     1       2.322   8.540  17.366  0.00  0.00    +0.000 OA
ATOM     19  H   UNL     1       2.674   6.400  19.698  0.00  0.00    +0.000 HD
BRANCH  16  25
ATOM     20  C   UNL     1       3.407   4.780  17.472  0.00  0.00    +0.000 A 
ATOM     21  C   UNL     1       4.248   4.131  16.533  0.00  0.00    +0.000 A 
ATOM     22  C   UNL     1       5.377   4.752  16.007  0.00  0.00    +0.000 A 
ATOM     23  C   UNL     1       5.694   6.033  16.414  0.00  0.00    +0.000 A 
ATOM     24  C   UNL     1       4.885   6.683  17.351  0.00  0.00    +0.000 A 
ATOM     25  C   UNL     1       3.718   6.097  17.880  0.00  0.00    +0.000 A 
BRANCH  20  27
ATOM     26  C   UNL     1       2.369   2.524  17.851  0.00  0.00    +0.000 C 
ATOM     27  C   UNL     1       2.164   4.033  17.892  0.00  0.00    +0.000 C 
ENDBRANCH  20  27
ENDBRANCH  16  25
ENDBRANCH   1  17
TORSDOF 3
ENDMDL
MODEL 3
REMARK VINA RESULT:      -7.6      2.818      3.594
REMARK  Name = 
REMARK  4 active torsions:
REMARK  status: ('A' for Active; 'I' for Inactive)
REMARK    1  A    between atoms: C_1  and  C_2
REMARK    2  A    between atoms: C_2  and  C_3
REMARK    3  A    between atoms: C_8  and  N_9
REMARK    4  A    between atoms: C_10  and  C_12
REMARK                            x       y       z     vdW  Elec       q    Type
REMARK                         _______ _______ _______ _____ _____    ______ ____
ROOT
ATOM      1  C   UNL     1       2.216   7.894  18.874  0.00  0.00    +0.000 A 
ATOM      2  C   UNL     1       2.324   8.747  17.837  0.00  0.00    +0.000 A 
ATOM      3  N   UNL     1       1.825  10.019  17.767  0.00  0.00    +0.000 NA
ATOM      4  C   UNL     1       1.202  10.412  18.818  0.00  0.00    +0.000 A 
ATOM      5  S   UNL     1       0.480  11.963  18.942  0.00  0.00    +0.000 S 
ATOM      6  C   UNL     1       0.045  11.562  20.599  0.00  0.00    +0.000 A 
ATOM      7  N   UNL     1      -0.576  12.541  21.341  0.00  0.00    +0.000 N 
ATOM      8  C   UNL     1      -0.429  13.978  21.099  0.00  0.00    +0.000 C 
ATOM      9  C   UNL     1      -0.274  14.560  22.495  0.00  0.00    +0.000 C 
ATOM     10  C   UNL     1      -1.204  13.693  23.320  0.00  0.00    +0.000 C 
ATOM     11  C   UNL     1      -1.060  12.303  22.699  0.00  0.00    +0.000 C 
ATOM     12  N   UNL     1       0.352  10.354  20.984  0.00  0.00    +0.000 NA
ATOM     13  N   UNL     1       1.018   9.689  19.964  0.00  0.00    +0.000 N 
ATOM     14  C   UNL     1       1.507   8.385  20.089  0.00  0.00    +0.000 A 
ATOM     15  O   UNL     1       1.396   7.656  21.073  0.00  0.00    +0.000 OA
ENDROOT
BRANCH   1  17
ATOM     16  N   UNL     1       2.090   5.410  18.858  0.00  0.00    +0.000 N 
ATOM     17  C   UNL     1       2.837   6.554  18.634  0.00  0.00    +0.000 C 
ATOM     18  O   UNL     1       3.984   6.541  18.190  0.00  0.00    +0.000 OA
ATOM     19  H   UNL     1       1.103   5.516  19.082  0.00  0.00    +0.000 HD
BRANCH  16  25
ATOM     20  C   UNL     1       2.854   3.217  19.767  0.00  0.00    +0.000 A 
ATOM     21  C   UNL     1       3.327   1.904  19.515  0.00  0.00    +0.000 A 
ATOM     22  C   UNL     1       3.563   1.445  18.222  0.00  0.00    +0.000 A 
ATOM     23  C   UNL     1       3.338   2.291  17.154  0.00  0.00    +0.000 A 
ATOM     24  C   UNL     1       2.886   3.593  17.384  0.00  0.00    +0.000 A 
ATOM     25  C   UNL     1       2.606   4.081  18.677  0.00  0.00    +0.000 A 
BRANCH  20  27
ATOM     26  C   UNL     1       1.340   2.790  21.725  0.00  0.00    +0.000 C 
ATOM     27  C   UNL     1       2.548   3.558  21.206  0.00  0.00    +0.000 C 
ENDBRANCH  20  27
ENDBRANCH  16  25
ENDBRANCH   1  17
TORSDOF 3
ENDMDL
MODEL 4
REMARK VINA RESULT:      -7.4      2.373      3.827
REMARK  Name = 
REMARK  4 active torsions:
REMARK  status: ('A' for Active; 'I' for Inactive)
REMARK    1  A    between atoms: C_1  and  C_2
REMARK    2  A    between atoms: C_2  and  C_3
REMARK    3  A    between atoms: C_8  and  N_9
REMARK    4  A    between atoms: C_10  and  C_12
REMARK                            x       y       z     vdW  Elec       q    Type
REMARK                         _______ _______ _______ _____ _____    ______ ____
ROOT
ATOM      1  C   UNL     1       1.432   8.991  19.367  0.00  0.00    +0.000 A 
ATOM      2  C   UNL     1       1.601  10.005  18.496  0.00  0.00    +0.000 A 
ATOM      3  N   UNL     1       1.007  11.236  18.548  0.00  0.00    +0.000 NA
ATOM      4  C   UNL     1       0.219  11.413  19.547  0.00  0.00    +0.000 A 
ATOM      5  S   UNL     1      -0.644  12.873  19.799  0.00  0.00    +0.000 S 
ATOM      6  C   UNL     1      -1.256  12.183  21.297  0.00  0.00    +0.000 A 
ATOM      7  N   UNL     1      -2.051  12.987  22.081  0.00  0.00    +0.000 N 
ATOM      8  C   UNL     1      -1.999  14.450  22.082  0.00  0.00    +0.000 C 
ATOM      9  C   UNL     1      -2.079  14.809  23.557  0.00  0.00    +0.000 C 
ATOM     10  C   UNL     1      -3.031  13.761  24.101  0.00  0.00    +0.000 C 
ATOM     11  C   UNL     1      -2.687  12.502  23.304  0.00  0.00    +0.000 C 
ATOM     12  N   UNL     1      -0.899  10.951  21.535  0.00  0.00    +0.000 NA
ATOM     13  N   UNL     1      -0.049  10.504  20.532  0.00  0.00    +0.000 N 
ATOM     14  C   UNL     1       0.530   9.232  20.528  0.00  0.00    +0.000 A 
ATOM     15  O   UNL     1       0.354   8.348  21.365  0.00  0.00    +0.000 OA
ENDROOT
BRANCH   1  17
ATOM     16  N   UNL     1       2.495   6.837  20.014  0.00  0.00    +0.000 N 
ATOM     17  C   UNL     1       2.192   7.750  19.018  0.00  0.00    +0.000 C 
ATOM     18  O   UNL     1       2.469   7.578  17.832  0.00  0.00    +0.000 OA
ATOM     19  H   UNL     1       2.100   6.986  20.940  0.00  0.00    +0.000 HD
BRANCH  16  25
ATOM     20  C   UNL     1       2.704   4.352  20.059  0.00  0.00    +0.000 A 
ATOM     21  C   UNL     1       3.478   3.200  19.769  0.00  0.00    +0.000 A 
ATOM     22  C   UNL     1       4.756   3.293  19.223  0.00  0.00    +0.000 A 
ATOM     23  C   UNL     1       5.290   4.540  18.963  0.00  0.00    +0.000 A 
ATOM     24  C   UNL     1       4.547   5.687  19.257  0.00  0.00    +0.000 A 
ATOM     25  C   UNL     1       3.239   5.630  19.780  0.00  0.00    +0.000 A 
BRANCH  20  27
ATOM     26  C   UNL     1       1.211   2.851  21.409  0.00  0.00    +0.000 C 
ATOM     27  C   UNL     1       1.300   4.111  20.560  0.00  0.00    +0.000 C 
ENDBRANCH  20  27
ENDBRANCH  16  25
ENDBRANCH   1  17
TORSDOF 3
ENDMDL
MODEL 5
REMARK VINA RESULT:      -7.4      1.988      9.038
REMARK  Name = 
REMARK  4 active torsions:
REMARK  status: ('A' for Active; 'I' for Inactive)
REMARK    1  A    between atoms: C_1  and  C_2
REMARK    2  A    between atoms: C_2  and  C_3
REMARK    3  A    between atoms: C_8  and  N_9
REMARK    4  A    between atoms: C_10  and  C_12
REMARK                            x       y       z     vdW  Elec       q    Type
REMARK                         _______ _______ _______ _____ _____    ______ ____
ROOT
ATOM      1  C   UNL     1       1.178   8.943  19.759  0.00  0.00    +0.000 A 
ATOM      2  C   UNL     1       1.243   7.973  20.691  0.00  0.00    +0.000 A 
ATOM      3  N   UNL     1       1.945   6.801  20.607  0.00  0.00    +0.000 NA
ATOM      4  C   UNL     1       2.604   6.645  19.517  0.00  0.00    +0.000 A 
ATOM      5  S   UNL     1       3.538   5.244  19.191  0.00  0.00    +0.000 S 
ATOM      6  C   UNL     1       4.037   6.001  17.683  0.00  0.00    +0.000 A 
ATOM      7  N   UNL     1       4.947   5.318  16.908  0.00  0.00    +0.000 N 
ATOM      8  C   UNL     1       5.909   4.345  17.429  0.00  0.00    +0.000 C 
ATOM      9  C   UNL     1       7.194   4.684  16.691  0.00  0.00    +0.000 C 
ATOM     10  C   UNL     1       6.692   5.076  15.315  0.00  0.00    +0.000 C 
ATOM     11  C   UNL     1       5.374   5.801  15.598  0.00  0.00    +0.000 C 
ATOM     12  N   UNL     1       3.492   7.157  17.427  0.00  0.00    +0.000 NA
ATOM     13  N   UNL     1       2.668   7.533  18.480  0.00  0.00    +0.000 N 
ATOM     14  C   UNL     1       1.971   8.745  18.513  0.00  0.00    +0.000 A 
ATOM     15  O   UNL     1       1.965   9.607  17.636  0.00  0.00    +0.000 OA
ENDROOT
BRANCH   1  17
ATOM     16  N   UNL     1       0.713  10.986  21.099  0.00  0.00    +0.000 N 
ATOM     17  C   UNL     1       0.294  10.091  20.129  0.00  0.00    +0.000 C 
ATOM     18  O   UNL     1      -0.758  10.212  19.502  0.00  0.00    +0.000 OA
ATOM     19  H   UNL     1       1.660  10.895  21.460  0.00  0.00    +0.000 HD
BRANCH  16  25
ATOM     20  C   UNL     1      -0.035  13.355  20.878  0.00  0.00    +0.000 A 
ATOM     21  C   UNL     1      -0.868  14.406  21.338  0.00  0.00    +0.000 A 
ATOM     22  C   UNL     1      -1.720  14.244  22.427  0.00  0.00    +0.000 A 
ATOM     23  C   UNL     1      -1.753  13.028  23.083  0.00  0.00    +0.000 A 
ATOM     24  C   UNL     1      -0.927  11.986  22.653  0.00  0.00    +0.000 A 
ATOM     25  C   UNL     1      -0.076  12.105  21.536  0.00  0.00    +0.000 A 
BRANCH  20  27
ATOM     26  C   UNL     1      -0.069  13.484  18.370  0.00  0.00    +0.000 C 
ATOM     27  C   UNL     1       0.771  13.632  19.632  0.00  0.00    +0.000 C 
ENDBRANCH  20  27
ENDBRANCH  16  25
ENDBRANCH   1  17
TORSDOF 3
ENDMDL
MODEL 6
REMARK VINA RESULT:      -7.4      1.863      9.070
REMARK  Name = 
REMARK  4 active torsions:
REMARK  status: ('A' for Active; 'I' for Inactive)
REMARK    1  A    between atoms: C_1  and  C_2
REMARK    2  A    between atoms: C_2  and  C_3
REMARK    3  A    between atoms: C_8  and  N_9
REMARK    4  A    between atoms: C_10  and  C_12
REMARK                            x       y       z     vdW  Elec       q    Type
REMARK                         _______ _______ _______ _____ _____    ______ ____
ROOT
ATOM      1  C   UNL     1       1.087   9.303  19.464  0.00  0.00    +0.000 A 
ATOM      2  C   UNL     1       1.072   8.450  20.506  0.00  0.00    +0.000 A 
ATOM      3  N   UNL     1       1.764   7.275  20.612  0.00  0.00    +0.000 NA
ATOM      4  C   UNL     1       2.499   6.989  19.600  0.00  0.00    +0.000 A 
ATOM      5  S   UNL     1       3.438   5.556  19.511  0.00  0.00    +0.000 S 
ATOM      6  C   UNL     1       4.055   6.128  17.966  0.00  0.00    +0.000 A 
ATOM      7  N   UNL     1       5.011   5.356  17.346  0.00  0.00    +0.000 N 
ATOM      8  C   UNL     1       5.921   4.448  18.047  0.00  0.00    +0.000 C 
ATOM      9  C   UNL     1       7.261   4.694  17.372  0.00  0.00    +0.000 C 
ATOM     10  C   UNL     1       6.865   4.924  15.926  0.00  0.00    +0.000 C 
ATOM     11  C   UNL     1       5.539   5.681  16.023  0.00  0.00    +0.000 C 
ATOM     12  N   UNL     1       3.544   7.249  17.536  0.00  0.00    +0.000 NA
ATOM     13  N   UNL     1       2.649   7.749  18.473  0.00  0.00    +0.000 N 
ATOM     14  C   UNL     1       1.967   8.958  18.313  0.00  0.00    +0.000 A 
ATOM     15  O   UNL     1       2.035   9.711  17.343  0.00  0.00    +0.000 OA
ENDROOT
BRANCH   1  17
ATOM     16  N   UNL     1       0.680  11.628  20.250  0.00  0.00    +0.000 N 
ATOM     17  C   UNL     1       0.191  10.491  19.630  0.00  0.00    +0.000 C 
ATOM     18  O   UNL     1      -0.939  10.410  19.151  0.00  0.00    +0.000 OA
ATOM     19  H   UNL     1       1.670  11.661  20.483  0.00  0.00    +0.000 HD
BRANCH  16  25
ATOM     20  C   UNL     1      -0.971  12.933  21.589  0.00  0.00    +0.000 A 
ATOM     21  C   UNL     1      -1.693  14.140  21.772  0.00  0.00    +0.000 A 
ATOM     22  C   UNL     1      -1.585  15.202  20.879  0.00  0.00    +0.000 A 
ATOM     23  C   UNL     1      -0.757  15.079  19.779  0.00  0.00    +0.000 A 
ATOM     24  C   UNL     1      -0.049  13.891  19.575  0.00  0.00    +0.000 A 
ATOM     25  C   UNL     1      -0.110  12.807  20.475  0.00  0.00    +0.000 A 
BRANCH  20  27
ATOM     26  C   UNL     1      -2.488  11.920  23.315  0.00  0.00    +0.000 C 
ATOM     27  C   UNL     1      -1.104  11.897  22.679  0.00  0.00    +0.000 C 
ENDBRANCH  20  27
ENDBRANCH  16  25
ENDBRANCH   1  17
TORSDOF 3
ENDMDL
MODEL 7
REMARK VINA RESULT:      -7.3      2.900      9.436
REMARK  Name = 
REMARK  4 active torsions:
REMARK  status: ('A' for Active; 'I' for Inactive)
REMARK    1  A    between atoms: C_1  and  C_2
REMARK    2  A    between atoms: C_2  and  C_3
REMARK    3  A    between atoms: C_8  and  N_9
REMARK    4  A    between atoms: C_10  and  C_12
REMARK                            x       y       z     vdW  Elec       q    Type
REMARK                         _______ _______ _______ _____ _____    ______ ____
ROOT
ATOM      1  C   UNL     1       1.283   9.652  19.456  0.00  0.00    +0.000 A 
ATOM      2  C   UNL     1       1.765   9.827  18.210  0.00  0.00    +0.000 A 
ATOM      3  N   UNL     1       2.499   8.930  17.483  0.00  0.00    +0.000 NA
ATOM      4  C   UNL     1       2.729   7.815  18.076  0.00  0.00    +0.000 A 
ATOM      5  S   UNL     1       3.645   6.555  17.358  0.00  0.00    +0.000 S 
ATOM      6  C   UNL     1       3.307   5.579  18.782  0.00  0.00    +0.000 A 
ATOM      7  N   UNL     1       3.775   4.285  18.783  0.00  0.00    +0.000 N 
ATOM      8  C   UNL     1       4.031   3.499  17.574  0.00  0.00    +0.000 C 
ATOM      9  C   UNL     1       3.465   2.129  17.914  0.00  0.00    +0.000 C 
ATOM     10  C   UNL     1       3.802   1.988  19.386  0.00  0.00    +0.000 C 
ATOM     11  C   UNL     1       3.632   3.404  19.940  0.00  0.00    +0.000 C 
ATOM     12  N   UNL     1       2.636   6.177  19.727  0.00  0.00    +0.000 NA
ATOM     13  N   UNL     1       2.300   7.463  19.325  0.00  0.00    +0.000 N 
ATOM     14  C   UNL     1       1.546   8.340  20.111  0.00  0.00    +0.000 A 
ATOM     15  O   UNL     1       1.113   8.119  21.240  0.00  0.00    +0.000 OA
ENDROOT
BRANCH   1  17
ATOM     16  N   UNL     1      -0.587  10.635  20.769  0.00  0.00    +0.000 N 
ATOM     17  C   UNL     1       0.547  10.835  20.000  0.00  0.00    +0.000 C 
ATOM     18  O   UNL     1       1.027  11.945  19.774  0.00  0.00    +0.000 OA
ATOM     19  H   UNL     1      -0.828   9.681  21.030  0.00  0.00    +0.000 HD
BRANCH  16  25
ATOM     20  C   UNL     1      -2.371  12.365  20.563  0.00  0.00    +0.000 A 
ATOM     21  C   UNL     1      -3.136  13.390  21.175  0.00  0.00    +0.000 A 
ATOM     22  C   UNL     1      -2.924  13.773  22.497  0.00  0.00    +0.000 A 
ATOM     23  C   UNL     1      -1.938  13.144  23.232  0.00  0.00    +0.000 A 
ATOM     24  C   UNL     1      -1.164  12.142  22.640  0.00  0.00    +0.000 A 
ATOM     25  C   UNL     1      -1.372  11.707  21.315  0.00  0.00    +0.000 A 
BRANCH  20  27
ATOM     26  C   UNL     1      -4.274  12.009  18.963  0.00  0.00    +0.000 C 
ATOM     27  C   UNL     1      -2.764  11.981  19.156  0.00  0.00    +0.000 C 
ENDBRANCH  20  27
ENDBRANCH  16  25
ENDBRANCH   1  17
TORSDOF 3
ENDMDL
MODEL 8
REMARK VINA RESULT:      -7.3      1.537      2.120
REMARK  Name = 
REMARK  4 active torsions:
REMARK  status: ('A' for Active; 'I' for Inactive)
REMARK    1  A    between atoms: C_1  and  C_2
REMARK    2  A    between atoms: C_2  and  C_3
REMARK    3  A    between atoms: C_8  and  N_9
REMARK    4  A    between atoms: C_10  and  C_12
REMARK                            x       y       z     vdW  Elec       q    Type
REMARK                         _______ _______ _______ _____ _____    ______ ____
ROOT
ATOM      1  C   UNL     1       2.567   7.930  18.428  0.00  0.00    +0.000 A 
ATOM      2  C   UNL     1       2.447   8.899  17.500  0.00  0.00    +0.000 A 
ATOM      3  N   UNL     1       1.687  10.033  17.594  0.00  0.00    +0.000 NA
ATOM      4  C   UNL     1       1.041  10.159  18.696  0.00  0.00    +0.000 A 
ATOM      5  S   UNL     1       0.014  11.493  19.020  0.00  0.00    +0.000 S 
ATOM      6  C   UNL     1      -0.254  10.821  20.624  0.00  0.00    +0.000 A 
ATOM      7  N   UNL     1      -1.036  11.551  21.490  0.00  0.00    +0.000 N 
ATOM      8  C   UNL     1      -1.207  13.004  21.421  0.00  0.00    +0.000 C 
ATOM      9  C   UNL     1      -1.118  13.442  22.875  0.00  0.00    +0.000 C 
ATOM     10  C   UNL     1      -1.807  12.305  23.605  0.00  0.00    +0.000 C 
ATOM     11  C   UNL     1      -1.399  11.060  22.817  0.00  0.00    +0.000 C 
ATOM     12  N   UNL     1       0.317   9.671  20.853  0.00  0.00    +0.000 NA
ATOM     13  N   UNL     1       1.065   9.287  19.748  0.00  0.00    +0.000 N 
ATOM     14  C   UNL     1       1.824   8.113  19.705  0.00  0.00    +0.000 A 
ATOM     15  O   UNL     1       1.913   7.270  20.595  0.00  0.00    +0.000 OA
ENDROOT
BRANCH   1  17
ATOM     16  N   UNL     1       4.437   7.007  17.072  0.00  0.00    +0.000 N 
ATOM     17  C   UNL     1       3.447   6.792  18.015  0.00  0.00    +0.000 C 
ATOM     18  O   UNL     1       3.273   5.716  18.586  0.00  0.00    +0.000 OA
ATOM     19  H   UNL     1       4.607   7.961  16.762  0.00  0.00    +0.000 HD
BRANCH  16  25
ATOM     20  C   UNL     1       6.625   5.811  17.100  0.00  0.00    +0.000 A 
ATOM     21  C   UNL     1       7.425   4.745  16.616  0.00  0.00    +0.000 A 
ATOM     22  C   UNL     1       6.958   3.856  15.651  0.00  0.00    +0.000 A 
ATOM     23  C   UNL     1       5.683   4.019  15.145  0.00  0.00    +0.000 A 
ATOM     24  C   UNL     1       4.886   5.073  15.600  0.00  0.00    +0.000 A 
ATOM     25  C   UNL     1       5.315   5.972  16.598  0.00  0.00    +0.000 A 
BRANCH  20  27
ATOM     26  C   UNL     1       7.820   7.940  17.690  0.00  0.00    +0.000 C 
ATOM     27  C   UNL     1       7.216   6.643  18.213  0.00  0.00    +0.000 C 
ENDBRANCH  20  27
ENDBRANCH  16  25
ENDBRANCH   1  17
TORSDOF 3
ENDMDL
MODEL 9
REMARK VINA RESULT:      -7.3      2.922      9.253
REMARK  Name = 
REMARK  4 active torsions:
REMARK  status: ('A' for Active; 'I' for Inactive)
REMARK    1  A    between atoms: C_1  and  C_2
REMARK    2  A    between atoms: C_2  and  C_3
REMARK    3  A    between atoms: C_8  and  N_9
REMARK    4  A    between atoms: C_10  and  C_12
REMARK                            x       y       z     vdW  Elec       q    Type
REMARK                         _______ _______ _______ _____ _____    ______ ____
ROOT
ATOM      1  C   UNL     1       1.034   9.615  19.526  0.00  0.00    +0.000 A 
ATOM      2  C   UNL     1       1.533   9.845  18.296  0.00  0.00    +0.000 A 
ATOM      3  N   UNL     1       2.336   9.009  17.570  0.00  0.00    +0.000 NA
ATOM      4  C   UNL     1       2.618   7.897  18.145  0.00  0.00    +0.000 A 
ATOM      5  S   UNL     1       3.623   6.709  17.424  0.00  0.00    +0.000 S 
ATOM      6  C   UNL     1       3.310   5.684  18.820  0.00  0.00    +0.000 A 
ATOM      7  N   UNL     1       3.853   4.419  18.806  0.00  0.00    +0.000 N 
ATOM      8  C   UNL     1       4.184   3.676  17.588  0.00  0.00    +0.000 C 
ATOM      9  C   UNL     1       3.693   2.268  17.885  0.00  0.00    +0.000 C 
ATOM     10  C   UNL     1       4.002   2.115  19.362  0.00  0.00    +0.000 C 
ATOM     11  C   UNL     1       3.735   3.506  19.940  0.00  0.00    +0.000 C 
ATOM     12  N   UNL     1       2.582   6.220  19.759  0.00  0.00    +0.000 NA
ATOM     13  N   UNL     1       2.180   7.493  19.376  0.00  0.00    +0.000 N 
ATOM     14  C   UNL     1       1.358   8.307  20.160  0.00  0.00    +0.000 A 
ATOM     15  O   UNL     1       0.912   8.035  21.274  0.00  0.00    +0.000 OA
ENDROOT
BRANCH   1  17
ATOM     16  N   UNL     1       0.296  11.043  21.424  0.00  0.00    +0.000 N 
ATOM     17  C   UNL     1       0.215  10.741  20.076  0.00  0.00    +0.000 C 
ATOM     18  O   UNL     1      -0.459  11.386  19.274  0.00  0.00    +0.000 OA
ATOM     19  H   UNL     1       0.990  10.555  21.986  0.00  0.00    +0.000 HD
BRANCH  16  25
ATOM     20  C   UNL     1      -0.053  13.440  22.016  0.00  0.00    +0.000 A 
ATOM     21  C   UNL     1      -0.873  14.429  22.617  0.00  0.00    +0.000 A 
ATOM     22  C   UNL     1      -2.072  14.105  23.245  0.00  0.00    +0.000 A 
ATOM     23  C   UNL     1      -2.474  12.784  23.292  0.00  0.00    +0.000 A 
ATOM     24  C   UNL     1      -1.671  11.795  22.718  0.00  0.00    +0.000 A 
ATOM     25  C   UNL     1      -0.467  12.090  22.047  0.00  0.00    +0.000 A 
BRANCH  20  27
ATOM     26  C   UNL     1       0.807  14.738  20.045  0.00  0.00    +0.000 C 
ATOM     27  C   UNL     1       1.173  13.935  21.286  0.00  0.00    +0.000 C 
ENDBRANCH  20  27
ENDBRANCH  16  25
ENDBRANCH   1  17
TORSDOF 3
ENDMDL
