MODEL 1
REMARK VINA RESULT:      -8.5      0.000      0.000
REMARK  Name = 
REMARK  5 active torsions:
REMARK  status: ('A' for Active; 'I' for Inactive)
REMARK    1  A    between atoms: C_1  and  C_2
REMARK    2  A    between atoms: C_2  and  O_3
REMARK    3  A    between atoms: C_2  and  C_11
REMARK    4  A    between atoms: O_3  and  C_4
REMARK    5  A    between atoms: C_16  and  C_17
REMARK                            x       y       z     vdW  Elec       q    Type
REMARK                         _______ _______ _______ _____ _____    ______ ____
ROOT
ATOM      1  C   UNL     1       3.147   4.338  18.519  0.00  0.00    +0.000 C 
ATOM      2  O   UNL     1       2.687   4.146  17.395  0.00  0.00    +0.000 OA
ATOM      3  N   UNL     1       4.493   4.489  18.808  0.00  0.00    +0.000 N 
ATOM      4  C   UNL     1       5.426   4.479  17.790  0.00  0.00    +0.000 A 
ATOM      5  N   UNL     1       5.242   4.514  16.491  0.00  0.00    +0.000 NA
ATOM      6  C   UNL     1       6.503   4.435  15.948  0.00  0.00    +0.000 A 
ATOM      7  N   UNL     1       7.477   4.385  16.874  0.00  0.00    +0.000 NA
ATOM      8  N   UNL     1       6.773   4.425  18.018  0.00  0.00    +0.000 N 
ATOM      9  H   UNL     1       4.786   4.486  19.777  0.00  0.00    +0.000 HD
ATOM     10  H   UNL     1       7.269   4.385  18.899  0.00  0.00    +0.000 HD
ENDROOT
BRANCH   6  11
ATOM     11  C   UNL     1       6.734   4.394  14.505  0.00  0.00    +0.000 A 
ATOM     12  C   UNL     1       7.655   5.260  13.897  0.00  0.00    +0.000 A 
ATOM     13  C   UNL     1       7.867   5.226  12.515  0.00  0.00    +0.000 A 
ATOM     14  C   UNL     1       7.155   4.328  11.720  0.00  0.00    +0.000 A 
ATOM     15  C   UNL     1       6.237   3.460  12.306  0.00  0.00    +0.000 A 
ATOM     16  C   UNL     1       6.030   3.486  13.690  0.00  0.00    +0.000 A 
ENDBRANCH   6  11
BRANCH   1  18
ATOM     17  C   UNL     1       2.339   3.230  20.597  0.00  0.00    +0.000 C 
ATOM     18  C   UNL     1       2.213   4.501  19.746  0.00  0.00    +0.000 C 
BRANCH  18  19
ATOM     19  O   UNL     1       2.573   5.676  20.485  0.00  0.00    +0.000 OA
BRANCH  19  20
ATOM     20  C   UNL     1       2.136   6.892  20.024  0.00  0.00    +0.000 A 
ATOM     21  C   UNL     1       2.360   7.414  18.748  0.00  0.00    +0.000 A 
ATOM     22  C   UNL     1       1.864   8.674  18.392  0.00  0.00    +0.000 A 
ATOM     23  C   UNL     1       1.154   9.428  19.319  0.00  0.00    +0.000 A 
ATOM     24 CL   UNL     1       0.596  10.997  18.892  0.00  0.00    +0.000 Cl
ATOM     25  C   UNL     1       0.908   8.917  20.589  0.00  0.00    +0.000 A 
ATOM     26  C   UNL     1       1.385   7.646  20.934  0.00  0.00    +0.000 A 
ENDBRANCH  19  20
ENDBRANCH  18  19
ENDBRANCH   1  18
TORSDOF 4
ENDMDL
MODEL 2
REMARK VINA RESULT:      -8.4      0.326      1.034
REMARK  Name = 
REMARK  5 active torsions:
REMARK  status: ('A' for Active; 'I' for Inactive)
REMARK    1  A    between atoms: C_1  and  C_2
REMARK    2  A    between atoms: C_2  and  O_3
REMARK    3  A    between atoms: C_2  and  C_11
REMARK    4  A    between atoms: O_3  and  C_4
REMARK    5  A    between atoms: C_16  and  C_17
REMARK                            x       y       z     vdW  Elec       q    Type
REMARK                         _______ _______ _______ _____ _____    ______ ____
ROOT
ATOM      1  C   UNL     1       3.119   4.699  18.559  0.00  0.00    +0.000 C 
ATOM      2  O   UNL     1       2.650   4.537  17.434  0.00  0.00    +0.000 OA
ATOM      3  N   UNL     1       4.471   4.745  18.855  0.00  0.00    +0.000 N 
ATOM      4  C   UNL     1       5.406   4.655  17.842  0.00  0.00    +0.000 A 
ATOM      5  N   UNL     1       5.231   4.697  16.542  0.00  0.00    +0.000 NA
ATOM      6  C   UNL     1       6.485   4.515  16.006  0.00  0.00    +0.000 A 
ATOM      7  N   UNL     1       7.448   4.393  16.938  0.00  0.00    +0.000 NA
ATOM      8  N   UNL     1       6.743   4.496  18.078  0.00  0.00    +0.000 N 
ATOM      9  H   UNL     1       4.757   4.725  19.825  0.00  0.00    +0.000 HD
ATOM     10  H   UNL     1       7.229   4.423  18.962  0.00  0.00    +0.000 HD
ENDROOT
BRANCH   6  11
ATOM     11  C   UNL     1       6.719   4.447  14.565  0.00  0.00    +0.000 A 
ATOM     12  C   UNL     1       7.650   5.293  13.945  0.00  0.00    +0.000 A 
ATOM     13  C   UNL     1       7.866   5.234  12.564  0.00  0.00    +0.000 A 
ATOM     14  C   UNL     1       7.147   4.329  11.783  0.00  0.00    +0.000 A 
ATOM     15  C   UNL     1       6.219   3.480  12.381  0.00  0.00    +0.000 A 
ATOM     16  C   UNL     1       6.009   3.533  13.763  0.00  0.00    +0.000 A 
ENDBRANCH   6  11
BRANCH   1  18
ATOM     17  C   UNL     1       2.266   3.696  20.672  0.00  0.00    +0.000 C 
ATOM     18  C   UNL     1       2.194   4.942  19.780  0.00  0.00    +0.000 C 
BRANCH  18  19
ATOM     19  O   UNL     1       2.606   6.124  20.480  0.00  0.00    +0.000 OA
BRANCH  19  20
ATOM     20  C   UNL     1       1.999   7.313  20.160  0.00  0.00    +0.000 A 
ATOM     21  C   UNL     1       1.179   8.067  21.003  0.00  0.00    +0.000 A 
ATOM     22  C   UNL     1       0.611   9.268  20.563  0.00  0.00    +0.000 A 
ATOM     23  C   UNL     1       0.848   9.715  19.268  0.00  0.00    +0.000 A 
ATOM     24 CL   UNL     1       0.103  11.163  18.717  0.00  0.00    +0.000 Cl
ATOM     25  C   UNL     1       1.675   8.984  18.421  0.00  0.00    +0.000 A 
ATOM     26  C   UNL     1       2.260   7.795  18.873  0.00  0.00    +0.000 A 
ENDBRANCH  19  20
ENDBRANCH  18  19
ENDBRANCH   1  18
TORSDOF 4
ENDMDL
MODEL 3
REMARK VINA RESULT:      -8.4      0.509      1.481
REMARK  Name = 
REMARK  5 active torsions:
REMARK  status: ('A' for Active; 'I' for Inactive)
REMARK    1  A    between atoms: C_1  and  C_2
REMARK    2  A    between atoms: C_2  and  O_3
REMARK    3  A    between atoms: C_2  and  C_11
REMARK    4  A    between atoms: O_3  and  C_4
REMARK    5  A    between atoms: C_16  and  C_17
REMARK                            x       y       z     vdW  Elec       q    Type
REMARK                         _______ _______ _______ _____ _____    ______ ____
ROOT
ATOM      1  C   UNL     1       3.128   4.888  18.589  0.00  0.00    +0.000 C 
ATOM      2  O   UNL     1       2.641   4.739  17.469  0.00  0.00    +0.000 OA
ATOM      3  N   UNL     1       4.484   4.874  18.871  0.00  0.00    +0.000 N 
ATOM      4  C   UNL     1       5.403   4.736  17.850  0.00  0.00    +0.000 A 
ATOM      5  N   UNL     1       5.218   4.777  16.551  0.00  0.00    +0.000 NA
ATOM      6  C   UNL     1       6.456   4.535  16.004  0.00  0.00    +0.000 A 
ATOM      7  N   UNL     1       7.422   4.376  16.927  0.00  0.00    +0.000 NA
ATOM      8  N   UNL     1       6.734   4.518  18.073  0.00  0.00    +0.000 N 
ATOM      9  H   UNL     1       4.779   4.848  19.838  0.00  0.00    +0.000 HD
ATOM     10  H   UNL     1       7.226   4.429  18.952  0.00  0.00    +0.000 HD
ENDROOT
BRANCH   6  11
ATOM     11  C   UNL     1       6.672   4.448  14.561  0.00  0.00    +0.000 A 
ATOM     12  C   UNL     1       5.940   3.545  13.776  0.00  0.00    +0.000 A 
ATOM     13  C   UNL     1       6.154   3.456  12.396  0.00  0.00    +0.000 A 
ATOM     14  C   UNL     1       7.110   4.266  11.784  0.00  0.00    +0.000 A 
ATOM     15  C   UNL     1       7.846   5.170  12.547  0.00  0.00    +0.000 A 
ATOM     16  C   UNL     1       7.626   5.266  13.925  0.00  0.00    +0.000 A 
ENDBRANCH   6  11
BRANCH   1  18
ATOM     17  C   UNL     1       2.352   3.989  20.777  0.00  0.00    +0.000 C 
ATOM     18  C   UNL     1       2.228   5.180  19.817  0.00  0.00    +0.000 C 
BRANCH  18  19
ATOM     19  O   UNL     1       2.628   6.409  20.437  0.00  0.00    +0.000 OA
BRANCH  19  20
ATOM     20  C   UNL     1       1.940   7.553  20.116  0.00  0.00    +0.000 A 
ATOM     21  C   UNL     1       1.066   8.246  20.957  0.00  0.00    +0.000 A 
ATOM     22  C   UNL     1       0.417   9.405  20.516  0.00  0.00    +0.000 A 
ATOM     23  C   UNL     1       0.626   9.868  19.222  0.00  0.00    +0.000 A 
ATOM     24 CL   UNL     1      -0.218  11.261  18.669  0.00  0.00    +0.000 Cl
ATOM     25  C   UNL     1       1.505   9.199  18.377  0.00  0.00    +0.000 A 
ATOM     26  C   UNL     1       2.171   8.053  18.830  0.00  0.00    +0.000 A 
ENDBRANCH  19  20
ENDBRANCH  18  19
ENDBRANCH   1  18
TORSDOF 4
ENDMDL
MODEL 4
REMARK VINA RESULT:      -8.3      0.696      1.238
REMARK  Name = 
REMARK  5 active torsions:
REMARK  status: ('A' for Active; 'I' for Inactive)
REMARK    1  A    between atoms: C_1  and  C_2
REMARK    2  A    between atoms: C_2  and  O_3
REMARK    3  A    between atoms: C_2  and  C_11
REMARK    4  A    between atoms: O_3  and  C_4
REMARK    5  A    between atoms: C_16  and  C_17
REMARK                            x       y       z     vdW  Elec       q    Type
REMARK                         _______ _______ _______ _____ _____    ______ ____
ROOT
ATOM      1  C   UNL     1       3.179   5.079  18.653  0.00  0.00    +0.000 C 
ATOM      2  O   UNL     1       2.678   4.946  17.538  0.00  0.00    +0.000 OA
ATOM      3  N   UNL     1       4.535   5.007  18.926  0.00  0.00    +0.000 N 
ATOM      4  C   UNL     1       5.440   4.824  17.899  0.00  0.00    +0.000 A 
ATOM      5  N   UNL     1       5.247   4.867  16.602  0.00  0.00    +0.000 NA
ATOM      6  C   UNL     1       6.471   4.569  16.047  0.00  0.00    +0.000 A 
ATOM      7  N   UNL     1       7.435   4.372  16.965  0.00  0.00    +0.000 NA
ATOM      8  N   UNL     1       6.762   4.550  18.115  0.00  0.00    +0.000 N 
ATOM      9  H   UNL     1       4.836   4.973  19.892  0.00  0.00    +0.000 HD
ATOM     10  H   UNL     1       7.256   4.443  18.991  0.00  0.00    +0.000 HD
ENDROOT
BRANCH   6  11
ATOM     11  C   UNL     1       6.672   4.465  14.603  0.00  0.00    +0.000 A 
ATOM     12  C   UNL     1       5.955   3.532  13.840  0.00  0.00    +0.000 A 
ATOM     13  C   UNL     1       6.155   3.427  12.460  0.00  0.00    +0.000 A 
ATOM     14  C   UNL     1       7.083   4.252  11.824  0.00  0.00    +0.000 A 
ATOM     15  C   UNL     1       7.804   5.186  12.565  0.00  0.00    +0.000 A 
ATOM     16  C   UNL     1       7.597   5.298  13.944  0.00  0.00    +0.000 A 
ENDBRANCH   6  11
BRANCH   1  18
ATOM     17  C   UNL     1       2.512   4.306  20.924  0.00  0.00    +0.000 C 
ATOM     18  C   UNL     1       2.302   5.416  19.886  0.00  0.00    +0.000 C 
BRANCH  18  19
ATOM     19  O   UNL     1       2.656   6.705  20.403  0.00  0.00    +0.000 OA
BRANCH  19  20
ATOM     20  C   UNL     1       1.880   7.781  20.056  0.00  0.00    +0.000 A 
ATOM     21  C   UNL     1       1.895   8.439  18.823  0.00  0.00    +0.000 A 
ATOM     22  C   UNL     1       1.055   9.533  18.584  0.00  0.00    +0.000 A 
ATOM     23  C   UNL     1       0.204   9.986  19.585  0.00  0.00    +0.000 A 
ATOM     24 CL   UNL     1      -0.786  11.364  19.303  0.00  0.00    +0.000 Cl
ATOM     25  C   UNL     1       0.164   9.333  20.813  0.00  0.00    +0.000 A 
ATOM     26  C   UNL     1       0.989   8.224  21.040  0.00  0.00    +0.000 A 
ENDBRANCH  19  20
ENDBRANCH  18  19
ENDBRANCH   1  18
TORSDOF 4
ENDMDL
MODEL 5
REMARK VINA RESULT:      -8.2      1.081      1.164
REMARK  Name = 
REMARK  5 active torsions:
REMARK  status: ('A' for Active; 'I' for Inactive)
REMARK    1  A    between atoms: C_1  and  C_2
REMARK    2  A    between atoms: C_2  and  O_3
REMARK    3  A    between atoms: C_2  and  C_11
REMARK    4  A    between atoms: O_3  and  C_4
REMARK    5  A    between atoms: C_16  and  C_17
REMARK                            x       y       z     vdW  Elec       q    Type
REMARK                         _______ _______ _______ _____ _____    ______ ____
ROOT
ATOM      1  C   UNL     1       3.145   5.311  18.488  0.00  0.00    +0.000 C 
ATOM      2  O   UNL     1       2.766   4.565  17.587  0.00  0.00    +0.000 OA
ATOM      3  N   UNL     1       4.374   5.949  18.523  0.00  0.00    +0.000 N 
ATOM      4  C   UNL     1       5.258   5.811  17.472  0.00  0.00    +0.000 A 
ATOM      5  N   UNL     1       5.067   5.275  16.289  0.00  0.00    +0.000 NA
ATOM      6  C   UNL     1       6.285   5.359  15.656  0.00  0.00    +0.000 A 
ATOM      7  N   UNL     1       7.228   5.966  16.400  0.00  0.00    +0.000 NA
ATOM      8  N   UNL     1       6.552   6.247  17.527  0.00  0.00    +0.000 N 
ATOM      9  H   UNL     1       4.655   6.415  19.377  0.00  0.00    +0.000 HD
ATOM     10  H   UNL     1       7.038   6.705  18.287  0.00  0.00    +0.000 HD
ENDROOT
BRANCH   6  11
ATOM     11  C   UNL     1       6.512   4.821  14.316  0.00  0.00    +0.000 A 
ATOM     12  C   UNL     1       7.563   5.295  13.517  0.00  0.00    +0.000 A 
ATOM     13  C   UNL     1       7.772   4.786  12.231  0.00  0.00    +0.000 A 
ATOM     14  C   UNL     1       6.927   3.798  11.724  0.00  0.00    +0.000 A 
ATOM     15  C   UNL     1       5.879   3.315  12.504  0.00  0.00    +0.000 A 
ATOM     16  C   UNL     1       5.674   3.817  13.794  0.00  0.00    +0.000 A 
ENDBRANCH   6  11
BRANCH   1  18
ATOM     17  C   UNL     1       2.348   4.550  20.720  0.00  0.00    +0.000 C 
ATOM     18  C   UNL     1       2.212   5.665  19.675  0.00  0.00    +0.000 C 
BRANCH  18  19
ATOM     19  O   UNL     1       2.566   6.946  20.212  0.00  0.00    +0.000 OA
BRANCH  19  20
ATOM     20  C   UNL     1       1.756   8.016  19.928  0.00  0.00    +0.000 A 
ATOM     21  C   UNL     1       1.705   8.706  18.714  0.00  0.00    +0.000 A 
ATOM     22  C   UNL     1       0.836   9.789  18.541  0.00  0.00    +0.000 A 
ATOM     23  C   UNL     1       0.023  10.201  19.591  0.00  0.00    +0.000 A 
ATOM     24 CL   UNL     1      -1.003  11.567  19.390  0.00  0.00    +0.000 Cl
ATOM     25  C   UNL     1       0.049   9.516  20.801  0.00  0.00    +0.000 A 
ATOM     26  C   UNL     1       0.902   8.417  20.962  0.00  0.00    +0.000 A 
ENDBRANCH  19  20
ENDBRANCH  18  19
ENDBRANCH   1  18
TORSDOF 4
ENDMDL
MODEL 6
REMARK VINA RESULT:      -8.0      3.238      8.406
REMARK  Name = 
REMARK  5 active torsions:
REMARK  status: ('A' for Active; 'I' for Inactive)
REMARK    1  A    between atoms: C_1  and  C_2
REMARK    2  A    between atoms: C_2  and  O_3
REMARK    3  A    between atoms: C_2  and  C_11
REMARK    4  A    between atoms: O_3  and  C_4
REMARK    5  A    between atoms: C_16  and  C_17
REMARK                            x       y       z     vdW  Elec       q    Type
REMARK                         _______ _______ _______ _____ _____    ______ ____
ROOT
ATOM      1  C   UNL     1       3.515   5.204  19.278  0.00  0.00    +0.000 C 
ATOM      2  O   UNL     1       2.987   5.124  20.386  0.00  0.00    +0.000 OA
ATOM      3  N   UNL     1       3.351   6.261  18.397  0.00  0.00    +0.000 N 
ATOM      4  C   UNL     1       2.589   7.354  18.759  0.00  0.00    +0.000 A 
ATOM      5  N   UNL     1       2.085   7.666  19.930  0.00  0.00    +0.000 NA
ATOM      6  C   UNL     1       1.378   8.827  19.718  0.00  0.00    +0.000 A 
ATOM      7  N   UNL     1       1.453   9.269  18.449  0.00  0.00    +0.000 NA
ATOM      8  N   UNL     1       2.227   8.332  17.876  0.00  0.00    +0.000 N 
ATOM      9  H   UNL     1       3.698   6.163  17.452  0.00  0.00    +0.000 HD
ATOM     10  H   UNL     1       2.439   8.410  16.890  0.00  0.00    +0.000 HD
ENDROOT
BRANCH   6  11
ATOM     11  C   UNL     1       0.616   9.485  20.777  0.00  0.00    +0.000 A 
ATOM     12  C   UNL     1       0.264   8.796  21.947  0.00  0.00    +0.000 A 
ATOM     13  C   UNL     1      -0.473   9.424  22.956  0.00  0.00    +0.000 A 
ATOM     14  C   UNL     1      -0.874  10.752  22.805  0.00  0.00    +0.000 A 
ATOM     15  C   UNL     1      -0.533  11.453  21.651  0.00  0.00    +0.000 A 
ATOM     16  C   UNL     1       0.212  10.828  20.645  0.00  0.00    +0.000 A 
ENDBRANCH   6  11
BRANCH   1  18
ATOM     17  C   UNL     1       4.322   2.885  19.685  0.00  0.00    +0.000 C 
ATOM     18  C   UNL     1       4.500   4.113  18.784  0.00  0.00    +0.000 C 
BRANCH  18  19
ATOM     19  O   UNL     1       4.243   3.807  17.407  0.00  0.00    +0.000 OA
BRANCH  19  20
ATOM     20  C   UNL     1       5.185   4.164  16.475  0.00  0.00    +0.000 A 
ATOM     21  C   UNL     1       6.448   4.695  16.748  0.00  0.00    +0.000 A 
ATOM     22  C   UNL     1       7.326   5.024  15.710  0.00  0.00    +0.000 A 
ATOM     23  C   UNL     1       6.939   4.839  14.388  0.00  0.00    +0.000 A 
ATOM     24 CL   UNL     1       8.002   5.297  13.116  0.00  0.00    +0.000 Cl
ATOM     25  C   UNL     1       5.691   4.296  14.098  0.00  0.00    +0.000 A 
ATOM     26  C   UNL     1       4.824   3.946  15.141  0.00  0.00    +0.000 A 
ENDBRANCH  19  20
ENDBRANCH  18  19
ENDBRANCH   1  18
TORSDOF 4
ENDMDL
MODEL 7
REMARK VINA RESULT:      -7.9      2.845      4.583
REMARK  Name = 
REMARK  5 active torsions:
REMARK  status: ('A' for Active; 'I' for Inactive)
REMARK    1  A    between atoms: C_1  and  C_2
REMARK    2  A    between atoms: C_2  and  O_3
REMARK    3  A    between atoms: C_2  and  C_11
REMARK    4  A    between atoms: O_3  and  C_4
REMARK    5  A    between atoms: C_16  and  C_17
REMARK                            x       y       z     vdW  Elec       q    Type
REMARK                         _______ _______ _______ _____ _____    ______ ____
ROOT
ATOM      1  C   UNL     1       1.501   8.211  19.960  0.00  0.00    +0.000 C 
ATOM      2  O   UNL     1       2.016   8.546  18.895  0.00  0.00    +0.000 OA
ATOM      3  N   UNL     1       1.721   7.003  20.600  0.00  0.00    +0.000 N 
ATOM      4  C   UNL     1       2.614   6.091  20.073  0.00  0.00    +0.000 A 
ATOM      5  N   UNL     1       3.471   6.238  19.090  0.00  0.00    +0.000 NA
ATOM      6  C   UNL     1       4.072   5.008  18.951  0.00  0.00    +0.000 A 
ATOM      7  N   UNL     1       3.636   4.102  19.845  0.00  0.00    +0.000 NA
ATOM      8  N   UNL     1       2.733   4.812  20.541  0.00  0.00    +0.000 N 
ATOM      9  H   UNL     1       1.134   6.755  21.387  0.00  0.00    +0.000 HD
ATOM     10  H   UNL     1       2.225   4.358  21.289  0.00  0.00    +0.000 HD
ENDROOT
BRANCH   6  11
ATOM     11  C   UNL     1       5.068   4.735  17.917  0.00  0.00    +0.000 A 
ATOM     12  C   UNL     1       6.438   4.881  18.179  0.00  0.00    +0.000 A 
ATOM     13  C   UNL     1       7.390   4.628  17.185  0.00  0.00    +0.000 A 
ATOM     14  C   UNL     1       6.982   4.231  15.912  0.00  0.00    +0.000 A 
ATOM     15  C   UNL     1       5.625   4.080  15.633  0.00  0.00    +0.000 A 
ATOM     16  C   UNL     1       4.673   4.324  16.629  0.00  0.00    +0.000 A 
ENDBRANCH   6  11
BRANCH   1  18
ATOM     17  C   UNL     1       1.158   9.353  22.145  0.00  0.00    +0.000 C 
ATOM     18  C   UNL     1       0.573   9.180  20.737  0.00  0.00    +0.000 C 
BRANCH  18  19
ATOM     19  O   UNL     1       0.477  10.430  20.042  0.00  0.00    +0.000 OA
BRANCH  19  20
ATOM     20  C   UNL     1      -0.649  10.675  19.296  0.00  0.00    +0.000 A 
ATOM     21  C   UNL     1      -0.956  10.097  18.062  0.00  0.00    +0.000 A 
ATOM     22  C   UNL     1      -2.139  10.426  17.391  0.00  0.00    +0.000 A 
ATOM     23  C   UNL     1      -3.016  11.352  17.944  0.00  0.00    +0.000 A 
ATOM     24 CL   UNL     1      -4.441  11.794  17.088  0.00  0.00    +0.000 Cl
ATOM     25  C   UNL     1      -2.734  11.925  19.180  0.00  0.00    +0.000 A 
ATOM     26  C   UNL     1      -1.561  11.575  19.860  0.00  0.00    +0.000 A 
ENDBRANCH  19  20
ENDBRANCH  18  19
ENDBRANCH   1  18
TORSDOF 4
ENDMDL
MODEL 8
REMARK VINA RESULT:      -7.9      2.838      4.699
REMARK  Name = 
REMARK  5 active torsions:
REMARK  status: ('A' for Active; 'I' for Inactive)
REMARK    1  A    between atoms: C_1  and  C_2
REMARK    2  A    between atoms: C_2  and  O_3
REMARK    3  A    between atoms: C_2  and  C_11
REMARK    4  A    between atoms: O_3  and  C_4
REMARK    5  A    between atoms: C_16  and  C_17
REMARK                            x       y       z     vdW  Elec       q    Type
REMARK                         _______ _______ _______ _____ _____    ______ ____
ROOT
ATOM      1  C   UNL     1       1.534   8.217  19.917  0.00  0.00    +0.000 C 
ATOM      2  O   UNL     1       2.008   8.544  18.830  0.00  0.00    +0.000 OA
ATOM      3  N   UNL     1       1.803   7.026  20.572  0.00  0.00    +0.000 N 
ATOM      4  C   UNL     1       2.700   6.126  20.033  0.00  0.00    +0.000 A 
ATOM      5  N   UNL     1       3.522   6.274  19.021  0.00  0.00    +0.000 NA
ATOM      6  C   UNL     1       4.147   5.056  18.884  0.00  0.00    +0.000 A 
ATOM      7  N   UNL     1       3.761   4.156  19.808  0.00  0.00    +0.000 NA
ATOM      8  N   UNL     1       2.863   4.859  20.519  0.00  0.00    +0.000 N 
ATOM      9  H   UNL     1       1.247   6.780  21.381  0.00  0.00    +0.000 HD
ATOM     10  H   UNL     1       2.391   4.407  21.291  0.00  0.00    +0.000 HD
ENDROOT
BRANCH   6  11
ATOM     11  C   UNL     1       5.116   4.786  17.824  0.00  0.00    +0.000 A 
ATOM     12  C   UNL     1       4.693   4.455  16.528  0.00  0.00    +0.000 A 
ATOM     13  C   UNL     1       5.621   4.188  15.516  0.00  0.00    +0.000 A 
ATOM     14  C   UNL     1       6.988   4.243  15.790  0.00  0.00    +0.000 A 
ATOM     15  C   UNL     1       7.427   4.572  17.070  0.00  0.00    +0.000 A 
ATOM     16  C   UNL     1       6.499   4.848  18.081  0.00  0.00    +0.000 A 
ENDBRANCH   6  11
BRANCH   1  18
ATOM     17  C   UNL     1       1.170   9.300  22.129  0.00  0.00    +0.000 C 
ATOM     18  C   UNL     1       0.610   9.180  20.706  0.00  0.00    +0.000 C 
BRANCH  18  19
ATOM     19  O   UNL     1       0.548  10.451  20.047  0.00  0.00    +0.000 OA
BRANCH  19  20
ATOM     20  C   UNL     1      -0.633  10.819  19.454  0.00  0.00    +0.000 A 
ATOM     21  C   UNL     1      -1.544  11.755  19.951  0.00  0.00    +0.000 A 
ATOM     22  C   UNL     1      -2.723  12.048  19.256  0.00  0.00    +0.000 A 
ATOM     23  C   UNL     1      -3.006  11.392  18.063  0.00  0.00    +0.000 A 
ATOM     24 CL   UNL     1      -4.482  11.717  17.242  0.00  0.00    +0.000 Cl
ATOM     25  C   UNL     1      -2.103  10.470  17.545  0.00  0.00    +0.000 A 
ATOM     26  C   UNL     1      -0.913  10.197  18.232  0.00  0.00    +0.000 A 
ENDBRANCH  19  20
ENDBRANCH  18  19
ENDBRANCH   1  18
TORSDOF 4
ENDMDL
MODEL 9
REMARK VINA RESULT:      -7.8      2.918      4.779
REMARK  Name = 
REMARK  5 active torsions:
REMARK  status: ('A' for Active; 'I' for Inactive)
REMARK    1  A    between atoms: C_1  and  C_2
REMARK    2  A    between atoms: C_2  and  O_3
REMARK    3  A    between atoms: C_2  and  C_11
REMARK    4  A    between atoms: O_3  and  C_4
REMARK    5  A    between atoms: C_16  and  C_17
REMARK                            x       y       z     vdW  Elec       q    Type
REMARK                         _______ _______ _______ _____ _____    ______ ____
ROOT
ATOM      1  C   UNL     1       1.452   8.255  20.097  0.00  0.00    +0.000 C 
ATOM      2  O   UNL     1       1.975   8.586  19.035  0.00  0.00    +0.000 OA
ATOM      3  N   UNL     1       1.665   7.049  20.743  0.00  0.00    +0.000 N 
ATOM      4  C   UNL     1       2.559   6.133  20.225  0.00  0.00    +0.000 A 
ATOM      5  N   UNL     1       3.423   6.276  19.247  0.00  0.00    +0.000 NA
ATOM      6  C   UNL     1       4.022   5.044  19.115  0.00  0.00    +0.000 A 
ATOM      7  N   UNL     1       3.578   4.141  20.008  0.00  0.00    +0.000 NA
ATOM      8  N   UNL     1       2.672   4.856  20.697  0.00  0.00    +0.000 N 
ATOM      9  H   UNL     1       1.073   6.805  21.526  0.00  0.00    +0.000 HD
ATOM     10  H   UNL     1       2.159   4.405  21.443  0.00  0.00    +0.000 HD
ENDROOT
BRANCH   6  11
ATOM     11  C   UNL     1       5.024   4.765  18.088  0.00  0.00    +0.000 A 
ATOM     12  C   UNL     1       6.389   4.963  18.340  0.00  0.00    +0.000 A 
ATOM     13  C   UNL     1       7.346   4.705  17.353  0.00  0.00    +0.000 A 
ATOM     14  C   UNL     1       6.948   4.250  16.096  0.00  0.00    +0.000 A 
ATOM     15  C   UNL     1       5.597   4.047  15.827  0.00  0.00    +0.000 A 
ATOM     16  C   UNL     1       4.640   4.296  16.817  0.00  0.00    +0.000 A 
ENDBRANCH   6  11
BRANCH   1  18
ATOM     17  C   UNL     1       1.064   9.359  22.295  0.00  0.00    +0.000 C 
ATOM     18  C   UNL     1       0.522   9.230  20.866  0.00  0.00    +0.000 C 
BRANCH  18  19
ATOM     19  O   UNL     1       0.476  10.496  20.195  0.00  0.00    +0.000 OA
BRANCH  19  20
ATOM     20  C   UNL     1      -0.700  10.874  19.598  0.00  0.00    +0.000 A 
ATOM     21  C   UNL     1      -1.589  11.839  20.077  0.00  0.00    +0.000 A 
ATOM     22  C   UNL     1      -2.765  12.139  19.380  0.00  0.00    +0.000 A 
ATOM     23  C   UNL     1      -3.068  11.461  18.205  0.00  0.00    +0.000 A 
ATOM     24 CL   UNL     1      -4.541  11.795  17.384  0.00  0.00    +0.000 Cl
ATOM     25  C   UNL     1      -2.186  10.508  17.706  0.00  0.00    +0.000 A 
ATOM     26  C   UNL     1      -0.999  10.228  18.394  0.00  0.00    +0.000 A 
ENDBRANCH  19  20
ENDBRANCH  18  19
ENDBRANCH   1  18
TORSDOF 4
ENDMDL
