MODEL 1
REMARK VINA RESULT:      -7.4      0.000      0.000
REMARK  Name = 
REMARK  6 active torsions:
REMARK  status: ('A' for Active; 'I' for Inactive)
REMARK    1  A    between atoms: C_1  and  C_2
REMARK    2  A    between atoms: C_7  and  C_8
REMARK    3  A    between atoms: C_8  and  C_9
REMARK    4  A    between atoms: N_11  and  C_12
REMARK    5  A    between atoms: N_11  and  C_13
REMARK    6  A    between atoms: C_13  and  C_14
REMARK                            x       y       z     vdW  Elec       q    Type
REMARK                         _______ _______ _______ _____ _____    ______ ____
ROOT
ATOM      1  C   UNL     1       4.797   5.952  18.537  0.00  0.00    +0.000 C 
ATOM      2  O   UNL     1       5.154   5.114  19.367  0.00  0.00    +0.000 OA
ATOM      3  N   UNL     1       3.575   6.602  18.621  0.00  0.00    +0.000 N 
ATOM      4  C   UNL     1       3.068   7.566  17.654  0.00  0.00    +0.000 C 
ENDROOT
BRANCH   1   5
ATOM      5  C   UNL     1       5.701   6.299  17.359  0.00  0.00    +0.000 C 
BRANCH   5  12
ATOM      6  C   UNL     1       7.124   4.391  12.003  0.00  0.00    +0.000 C 
ATOM      7  C   UNL     1       7.680   5.028  13.251  0.00  0.00    +0.000 C 
ATOM      8  O   UNL     1       8.617   5.820  13.189  0.00  0.00    +0.000 OA
ATOM      9  N   UNL     1       7.042   4.712  14.431  0.00  0.00    +0.000 N 
ATOM     10  C   UNL     1       5.968   3.766  14.627  0.00  0.00    +0.000 C 
ATOM     11  C   UNL     1       5.159   4.412  15.735  0.00  0.00    +0.000 C 
ATOM     12  C   UNL     1       6.229   5.052  16.636  0.00  0.00    +0.000 C 
ATOM     13  C   UNL     1       7.398   5.360  15.682  0.00  0.00    +0.000 C 
ENDBRANCH   5  12
ENDBRANCH   1   5
BRANCH   3  14
ATOM     14  C   UNL     1       2.714   6.293  19.764  0.00  0.00    +0.000 C 
BRANCH  14  15
ATOM     15  C   UNL     1       2.025   4.950  19.668  0.00  0.00    +0.000 A 
ATOM     16  C   UNL     1       1.773   4.361  18.421  0.00  0.00    +0.000 A 
ATOM     17  C   UNL     1       1.181   3.099  18.336  0.00  0.00    +0.000 A 
ATOM     18  C   UNL     1       0.828   2.412  19.494  0.00  0.00    +0.000 A 
ATOM     19  C   UNL     1       1.061   2.991  20.741  0.00  0.00    +0.000 A 
ATOM     20  C   UNL     1       1.650   4.254  20.827  0.00  0.00    +0.000 A 
ENDBRANCH  14  15
ENDBRANCH   3  14
TORSDOF 4
ENDMDL
MODEL 2
REMARK VINA RESULT:      -7.4      0.229      1.100
REMARK  Name = 
REMARK  6 active torsions:
REMARK  status: ('A' for Active; 'I' for Inactive)
REMARK    1  A    between atoms: C_1  and  C_2
REMARK    2  A    between atoms: C_7  and  C_8
REMARK    3  A    between atoms: C_8  and  C_9
REMARK    4  A    between atoms: N_11  and  C_12
REMARK    5  A    between atoms: N_11  and  C_13
REMARK    6  A    between atoms: C_13  and  C_14
REMARK                            x       y       z     vdW  Elec       q    Type
REMARK                         _______ _______ _______ _____ _____    ______ ____
ROOT
ATOM      1  C   UNL     1       4.653   5.974  18.665  0.00  0.00    +0.000 C 
ATOM      2  O   UNL     1       4.952   5.155  19.537  0.00  0.00    +0.000 OA
ATOM      3  N   UNL     1       3.423   6.614  18.644  0.00  0.00    +0.000 N 
ATOM      4  C   UNL     1       2.983   7.555  17.623  0.00  0.00    +0.000 C 
ENDROOT
BRANCH   1   5
ATOM      5  C   UNL     1       5.641   6.306  17.553  0.00  0.00    +0.000 C 
BRANCH   5  12
ATOM      6  C   UNL     1       6.947   4.213  12.237  0.00  0.00    +0.000 C 
ATOM      7  C   UNL     1       7.520   4.932  13.431  0.00  0.00    +0.000 C 
ATOM      8  O   UNL     1       8.416   5.761  13.297  0.00  0.00    +0.000 OA
ATOM      9  N   UNL     1       6.941   4.645  14.648  0.00  0.00    +0.000 N 
ATOM     10  C   UNL     1       5.921   3.662  14.930  0.00  0.00    +0.000 C 
ATOM     11  C   UNL     1       5.125   4.324  16.039  0.00  0.00    +0.000 C 
ATOM     12  C   UNL     1       6.197   5.052  16.867  0.00  0.00    +0.000 C 
ATOM     13  C   UNL     1       7.314   5.365  15.854  0.00  0.00    +0.000 C 
ENDBRANCH   5  12
ENDBRANCH   1   5
BRANCH   3  14
ATOM     14  C   UNL     1       2.480   6.319  19.725  0.00  0.00    +0.000 C 
BRANCH  14  15
ATOM     15  C   UNL     1       1.956   4.900  19.712  0.00  0.00    +0.000 A 
ATOM     16  C   UNL     1       1.741   4.204  20.910  0.00  0.00    +0.000 A 
ATOM     17  C   UNL     1       1.211   2.912  20.898  0.00  0.00    +0.000 A 
ATOM     18  C   UNL     1       0.894   2.297  19.690  0.00  0.00    +0.000 A 
ATOM     19  C   UNL     1       1.115   2.972  18.490  0.00  0.00    +0.000 A 
ATOM     20  C   UNL     1       1.647   4.263  18.501  0.00  0.00    +0.000 A 
ENDBRANCH  14  15
ENDBRANCH   3  14
TORSDOF 4
ENDMDL
MODEL 3
REMARK VINA RESULT:      -7.2      1.334      1.614
REMARK  Name = 
REMARK  6 active torsions:
REMARK  status: ('A' for Active; 'I' for Inactive)
REMARK    1  A    between atoms: C_1  and  C_2
REMARK    2  A    between atoms: C_7  and  C_8
REMARK    3  A    between atoms: C_8  and  C_9
REMARK    4  A    between atoms: N_11  and  C_12
REMARK    5  A    between atoms: N_11  and  C_13
REMARK    6  A    between atoms: C_13  and  C_14
REMARK                            x       y       z     vdW  Elec       q    Type
REMARK                         _______ _______ _______ _____ _____    ______ ____
ROOT
ATOM      1  C   UNL     1       5.135   6.536  17.101  0.00  0.00    +0.000 C 
ATOM      2  O   UNL     1       4.490   7.185  16.275  0.00  0.00    +0.000 OA
ATOM      3  N   UNL     1       4.589   6.124  18.307  0.00  0.00    +0.000 N 
ATOM      4  C   UNL     1       5.303   5.398  19.348  0.00  0.00    +0.000 C 
ENDROOT
BRANCH   1   5
ATOM      5  C   UNL     1       6.589   6.170  16.823  0.00  0.00    +0.000 C 
BRANCH   5  12
ATOM      6  C   UNL     1       5.466   3.150  11.927  0.00  0.00    +0.000 C 
ATOM      7  C   UNL     1       6.522   3.957  12.638  0.00  0.00    +0.000 C 
ATOM      8  O   UNL     1       7.332   4.630  12.007  0.00  0.00    +0.000 OA
ATOM      9  N   UNL     1       6.478   3.934  14.016  0.00  0.00    +0.000 N 
ATOM     10  C   UNL     1       5.606   3.149  14.858  0.00  0.00    +0.000 C 
ATOM     11  C   UNL     1       5.377   4.069  16.042  0.00  0.00    +0.000 C 
ATOM     12  C   UNL     1       6.737   4.764  16.226  0.00  0.00    +0.000 C 
ATOM     13  C   UNL     1       7.356   4.772  14.816  0.00  0.00    +0.000 C 
ENDBRANCH   5  12
ENDBRANCH   1   5
BRANCH   3  14
ATOM     14  C   UNL     1       3.185   6.449  18.568  0.00  0.00    +0.000 C 
BRANCH  14  15
ATOM     15  C   UNL     1       2.329   5.249  18.903  0.00  0.00    +0.000 A 
ATOM     16  C   UNL     1       2.041   4.279  17.933  0.00  0.00    +0.000 A 
ATOM     17  C   UNL     1       1.292   3.146  18.258  0.00  0.00    +0.000 A 
ATOM     18  C   UNL     1       0.816   2.970  19.554  0.00  0.00    +0.000 A 
ATOM     19  C   UNL     1       1.083   3.933  20.527  0.00  0.00    +0.000 A 
ATOM     20  C   UNL     1       1.830   5.068  20.202  0.00  0.00    +0.000 A 
ENDBRANCH  14  15
ENDBRANCH   3  14
TORSDOF 4
ENDMDL
MODEL 4
REMARK VINA RESULT:      -7.1      1.326      1.911
REMARK  Name = 
REMARK  6 active torsions:
REMARK  status: ('A' for Active; 'I' for Inactive)
REMARK    1  A    between atoms: C_1  and  C_2
REMARK    2  A    between atoms: C_7  and  C_8
REMARK    3  A    between atoms: C_8  and  C_9
REMARK    4  A    between atoms: N_11  and  C_12
REMARK    5  A    between atoms: N_11  and  C_13
REMARK    6  A    between atoms: C_13  and  C_14
REMARK                            x       y       z     vdW  Elec       q    Type
REMARK                         _______ _______ _______ _____ _____    ______ ____
ROOT
ATOM      1  C   UNL     1       5.124   6.522  17.124  0.00  0.00    +0.000 C 
ATOM      2  O   UNL     1       4.440   7.137  16.303  0.00  0.00    +0.000 OA
ATOM      3  N   UNL     1       4.618   6.112  18.348  0.00  0.00    +0.000 N 
ATOM      4  C   UNL     1       5.378   5.426  19.384  0.00  0.00    +0.000 C 
ENDROOT
BRANCH   1   5
ATOM      5  C   UNL     1       6.582   6.199  16.819  0.00  0.00    +0.000 C 
BRANCH   5  12
ATOM      6  C   UNL     1       5.498   3.114  11.954  0.00  0.00    +0.000 C 
ATOM      7  C   UNL     1       6.538   3.953  12.651  0.00  0.00    +0.000 C 
ATOM      8  O   UNL     1       7.326   4.642  12.008  0.00  0.00    +0.000 OA
ATOM      9  N   UNL     1       6.506   3.940  14.029  0.00  0.00    +0.000 N 
ATOM     10  C   UNL     1       5.661   3.139  14.884  0.00  0.00    +0.000 C 
ATOM     11  C   UNL     1       5.419   4.062  16.063  0.00  0.00    +0.000 C 
ATOM     12  C   UNL     1       6.762   4.793  16.231  0.00  0.00    +0.000 C 
ATOM     13  C   UNL     1       7.369   4.805  14.816  0.00  0.00    +0.000 C 
ENDBRANCH   5  12
ENDBRANCH   1   5
BRANCH   3  14
ATOM     14  C   UNL     1       3.211   6.396  18.636  0.00  0.00    +0.000 C 
BRANCH  14  15
ATOM     15  C   UNL     1       2.390   5.168  18.960  0.00  0.00    +0.000 A 
ATOM     16  C   UNL     1       1.872   4.971  20.248  0.00  0.00    +0.000 A 
ATOM     17  C   UNL     1       1.074   3.862  20.533  0.00  0.00    +0.000 A 
ATOM     18  C   UNL     1       0.787   2.932  19.537  0.00  0.00    +0.000 A 
ATOM     19  C   UNL     1       1.306   3.107  18.255  0.00  0.00    +0.000 A 
ATOM     20  C   UNL     1       2.107   4.216  17.970  0.00  0.00    +0.000 A 
ENDBRANCH  14  15
ENDBRANCH   3  14
TORSDOF 4
ENDMDL
MODEL 5
REMARK VINA RESULT:      -7.1      4.255      6.449
REMARK  Name = 
REMARK  6 active torsions:
REMARK  status: ('A' for Active; 'I' for Inactive)
REMARK    1  A    between atoms: C_1  and  C_2
REMARK    2  A    between atoms: C_7  and  C_8
REMARK    3  A    between atoms: C_8  and  C_9
REMARK    4  A    between atoms: N_11  and  C_12
REMARK    5  A    between atoms: N_11  and  C_13
REMARK    6  A    between atoms: C_13  and  C_14
REMARK                            x       y       z     vdW  Elec       q    Type
REMARK                         _______ _______ _______ _____ _____    ______ ____
ROOT
ATOM      1  C   UNL     1       1.932   8.614  18.543  0.00  0.00    +0.000 C 
ATOM      2  O   UNL     1       2.306   8.919  17.410  0.00  0.00    +0.000 OA
ATOM      3  N   UNL     1       1.129   9.449  19.306  0.00  0.00    +0.000 N 
ATOM      4  C   UNL     1       0.688   9.177  20.667  0.00  0.00    +0.000 C 
ENDROOT
BRANCH   1   5
ATOM      5  C   UNL     1       2.360   7.289  19.162  0.00  0.00    +0.000 C 
BRANCH   5  12
ATOM      6  C   UNL     1       3.468   1.584  18.399  0.00  0.00    +0.000 C 
ATOM      7  C   UNL     1       2.435   2.659  18.175  0.00  0.00    +0.000 C 
ATOM      8  O   UNL     1       1.236   2.396  18.203  0.00  0.00    +0.000 OA
ATOM      9  N   UNL     1       2.918   3.938  17.999  0.00  0.00    +0.000 N 
ATOM     10  C   UNL     1       4.298   4.355  17.902  0.00  0.00    +0.000 C 
ATOM     11  C   UNL     1       4.276   5.720  18.562  0.00  0.00    +0.000 C 
ATOM     12  C   UNL     1       2.924   6.310  18.124  0.00  0.00    +0.000 C 
ATOM     13  C   UNL     1       2.024   5.080  17.905  0.00  0.00    +0.000 C 
ENDBRANCH   5  12
ENDBRANCH   1   5
BRANCH   3  14
ATOM     14  C   UNL     1       0.693  10.712  18.706  0.00  0.00    +0.000 C 
BRANCH  14  15
ATOM     15  C   UNL     1      -0.782  10.757  18.376  0.00  0.00    +0.000 A 
ATOM     16  C   UNL     1      -1.344   9.842  17.475  0.00  0.00    +0.000 A 
ATOM     17  C   UNL     1      -2.715   9.853  17.209  0.00  0.00    +0.000 A 
ATOM     18  C   UNL     1      -3.541  10.782  17.834  0.00  0.00    +0.000 A 
ATOM     19  C   UNL     1      -2.995  11.708  18.723  0.00  0.00    +0.000 A 
ATOM     20  C   UNL     1      -1.623  11.699  18.988  0.00  0.00    +0.000 A 
ENDBRANCH  14  15
ENDBRANCH   3  14
TORSDOF 4
ENDMDL
MODEL 6
REMARK VINA RESULT:      -7.0      4.259      6.505
REMARK  Name = 
REMARK  6 active torsions:
REMARK  status: ('A' for Active; 'I' for Inactive)
REMARK    1  A    between atoms: C_1  and  C_2
REMARK    2  A    between atoms: C_7  and  C_8
REMARK    3  A    between atoms: C_8  and  C_9
REMARK    4  A    between atoms: N_11  and  C_12
REMARK    5  A    between atoms: N_11  and  C_13
REMARK    6  A    between atoms: C_13  and  C_14
REMARK                            x       y       z     vdW  Elec       q    Type
REMARK                         _______ _______ _______ _____ _____    ______ ____
ROOT
ATOM      1  C   UNL     1       1.939   8.595  18.463  0.00  0.00    +0.000 C 
ATOM      2  O   UNL     1       2.272   8.918  17.321  0.00  0.00    +0.000 OA
ATOM      3  N   UNL     1       1.155   9.412  19.263  0.00  0.00    +0.000 N 
ATOM      4  C   UNL     1       0.762   9.119  20.635  0.00  0.00    +0.000 C 
ENDROOT
BRANCH   1   5
ATOM      5  C   UNL     1       2.398   7.265  19.049  0.00  0.00    +0.000 C 
BRANCH   5  12
ATOM      6  C   UNL     1       3.514   1.556  18.327  0.00  0.00    +0.000 C 
ATOM      7  C   UNL     1       2.429   2.600  18.243  0.00  0.00    +0.000 C 
ATOM      8  O   UNL     1       1.260   2.314  18.487  0.00  0.00    +0.000 OA
ATOM      9  N   UNL     1       2.841   3.879  17.938  0.00  0.00    +0.000 N 
ATOM     10  C   UNL     1       4.172   4.319  17.589  0.00  0.00    +0.000 C 
ATOM     11  C   UNL     1       4.226   5.711  18.190  0.00  0.00    +0.000 C 
ATOM     12  C   UNL     1       2.803   6.254  17.968  0.00  0.00    +0.000 C 
ATOM     13  C   UNL     1       1.913   4.998  17.954  0.00  0.00    +0.000 C 
ENDBRANCH   5  12
ENDBRANCH   1   5
BRANCH   3  14
ATOM     14  C   UNL     1       0.688  10.679  18.696  0.00  0.00    +0.000 C 
BRANCH  14  15
ATOM     15  C   UNL     1      -0.795  10.712  18.405  0.00  0.00    +0.000 A 
ATOM     16  C   UNL     1      -1.630  11.642  19.039  0.00  0.00    +0.000 A 
ATOM     17  C   UNL     1      -2.991  11.704  18.732  0.00  0.00    +0.000 A 
ATOM     18  C   UNL     1      -3.537  10.833  17.793  0.00  0.00    +0.000 A 
ATOM     19  C   UNL     1      -2.721   9.894  17.163  0.00  0.00    +0.000 A 
ATOM     20  C   UNL     1      -1.360   9.830  17.471  0.00  0.00    +0.000 A 
ENDBRANCH  14  15
ENDBRANCH   3  14
TORSDOF 4
ENDMDL
MODEL 7
REMARK VINA RESULT:      -6.9      1.840      3.353
REMARK  Name = 
REMARK  6 active torsions:
REMARK  status: ('A' for Active; 'I' for Inactive)
REMARK    1  A    between atoms: C_1  and  C_2
REMARK    2  A    between atoms: C_7  and  C_8
REMARK    3  A    between atoms: C_8  and  C_9
REMARK    4  A    between atoms: N_11  and  C_12
REMARK    5  A    between atoms: N_11  and  C_13
REMARK    6  A    between atoms: C_13  and  C_14
REMARK                            x       y       z     vdW  Elec       q    Type
REMARK                         _______ _______ _______ _____ _____    ______ ____
ROOT
ATOM      1  C   UNL     1       4.526   4.805  18.599  0.00  0.00    +0.000 C 
ATOM      2  O   UNL     1       5.345   5.309  19.370  0.00  0.00    +0.000 OA
ATOM      3  N   UNL     1       3.158   4.962  18.770  0.00  0.00    +0.000 N 
ATOM      4  C   UNL     1       2.133   4.360  17.929  0.00  0.00    +0.000 C 
ENDROOT
BRANCH   1   5
ATOM      5  C   UNL     1       4.998   3.966  17.418  0.00  0.00    +0.000 C 
BRANCH   5  12
ATOM      6  C   UNL     1       7.104   3.492  11.968  0.00  0.00    +0.000 C 
ATOM      7  C   UNL     1       5.849   3.739  12.766  0.00  0.00    +0.000 C 
ATOM      8  O   UNL     1       4.754   3.371  12.348  0.00  0.00    +0.000 OA
ATOM      9  N   UNL     1       6.019   4.338  13.996  0.00  0.00    +0.000 N 
ATOM     10  C   UNL     1       7.243   4.850  14.566  0.00  0.00    +0.000 C 
ATOM     11  C   UNL     1       7.058   4.571  16.045  0.00  0.00    +0.000 C 
ATOM     12  C   UNL     1       5.558   4.824  16.274  0.00  0.00    +0.000 C 
ATOM     13  C   UNL     1       4.906   4.512  14.915  0.00  0.00    +0.000 C 
ENDBRANCH   5  12
ENDBRANCH   1   5
BRANCH   3  14
ATOM     14  C   UNL     1       2.699   5.789  19.887  0.00  0.00    +0.000 C 
BRANCH  14  15
ATOM     15  C   UNL     1       2.246   7.174  19.481  0.00  0.00    +0.000 A 
ATOM     16  C   UNL     1       2.467   7.648  18.181  0.00  0.00    +0.000 A 
ATOM     17  C   UNL     1       2.005   8.907  17.793  0.00  0.00    +0.000 A 
ATOM     18  C   UNL     1       1.320   9.711  18.700  0.00  0.00    +0.000 A 
ATOM     19  C   UNL     1       1.104   9.258  20.001  0.00  0.00    +0.000 A 
ATOM     20  C   UNL     1       1.569   8.000  20.391  0.00  0.00    +0.000 A 
ENDBRANCH  14  15
ENDBRANCH   3  14
TORSDOF 4
ENDMDL
MODEL 8
REMARK VINA RESULT:      -6.8      1.850      3.529
REMARK  Name = 
REMARK  6 active torsions:
REMARK  status: ('A' for Active; 'I' for Inactive)
REMARK    1  A    between atoms: C_1  and  C_2
REMARK    2  A    between atoms: C_7  and  C_8
REMARK    3  A    between atoms: C_8  and  C_9
REMARK    4  A    between atoms: N_11  and  C_12
REMARK    5  A    between atoms: N_11  and  C_13
REMARK    6  A    between atoms: C_13  and  C_14
REMARK                            x       y       z     vdW  Elec       q    Type
REMARK                         _______ _______ _______ _____ _____    ______ ____
ROOT
ATOM      1  C   UNL     1       4.506   4.773  18.467  0.00  0.00    +0.000 C 
ATOM      2  O   UNL     1       5.372   5.239  19.209  0.00  0.00    +0.000 OA
ATOM      3  N   UNL     1       3.153   4.975  18.693  0.00  0.00    +0.000 N 
ATOM      4  C   UNL     1       2.074   4.417  17.888  0.00  0.00    +0.000 C 
ENDROOT
BRANCH   1   5
ATOM      5  C   UNL     1       4.902   3.931  17.259  0.00  0.00    +0.000 C 
BRANCH   5  12
ATOM      6  C   UNL     1       7.142   3.398  11.869  0.00  0.00    +0.000 C 
ATOM      7  C   UNL     1       5.870   3.664  12.632  0.00  0.00    +0.000 C 
ATOM      8  O   UNL     1       4.782   3.307  12.188  0.00  0.00    +0.000 OA
ATOM      9  N   UNL     1       6.015   4.270  13.862  0.00  0.00    +0.000 N 
ATOM     10  C   UNL     1       7.230   4.771  14.461  0.00  0.00    +0.000 C 
ATOM     11  C   UNL     1       7.003   4.504  15.937  0.00  0.00    +0.000 C 
ATOM     12  C   UNL     1       5.501   4.775  16.125  0.00  0.00    +0.000 C 
ATOM     13  C   UNL     1       4.881   4.462  14.751  0.00  0.00    +0.000 C 
ENDBRANCH   5  12
ENDBRANCH   1   5
BRANCH   3  14
ATOM     14  C   UNL     1       2.767   5.804  19.836  0.00  0.00    +0.000 C 
BRANCH  14  15
ATOM     15  C   UNL     1       2.249   7.173  19.454  0.00  0.00    +0.000 A 
ATOM     16  C   UNL     1       1.553   7.961  20.381  0.00  0.00    +0.000 A 
ATOM     17  C   UNL     1       1.118   9.244  20.042  0.00  0.00    +0.000 A 
ATOM     18  C   UNL     1       1.369   9.755  18.771  0.00  0.00    +0.000 A 
ATOM     19  C   UNL     1       2.049   8.978  17.834  0.00  0.00    +0.000 A 
ATOM     20  C   UNL     1       2.482   7.693  18.172  0.00  0.00    +0.000 A 
ENDBRANCH  14  15
ENDBRANCH   3  14
TORSDOF 4
ENDMDL
MODEL 9
REMARK VINA RESULT:      -6.8      2.184      7.063
REMARK  Name = 
REMARK  6 active torsions:
REMARK  status: ('A' for Active; 'I' for Inactive)
REMARK    1  A    between atoms: C_1  and  C_2
REMARK    2  A    between atoms: C_7  and  C_8
REMARK    3  A    between atoms: C_8  and  C_9
REMARK    4  A    between atoms: N_11  and  C_12
REMARK    5  A    between atoms: N_11  and  C_13
REMARK    6  A    between atoms: C_13  and  C_14
REMARK                            x       y       z     vdW  Elec       q    Type
REMARK                         _______ _______ _______ _____ _____    ______ ____
ROOT
ATOM      1  C   UNL     1       4.531   5.247  16.966  0.00  0.00    +0.000 C 
ATOM      2  O   UNL     1       4.021   4.151  16.725  0.00  0.00    +0.000 OA
ATOM      3  N   UNL     1       5.880   5.494  16.765  0.00  0.00    +0.000 N 
ATOM      4  C   UNL     1       6.559   6.746  17.072  0.00  0.00    +0.000 C 
ENDROOT
BRANCH   1   5
ATOM      5  C   UNL     1       3.678   6.384  17.517  0.00  0.00    +0.000 C 
BRANCH   5  12
ATOM      6  C   UNL     1       1.502   2.728  21.548  0.00  0.00    +0.000 C 
ATOM      7  C   UNL     1       2.768   3.136  20.839  0.00  0.00    +0.000 C 
ATOM      8  O   UNL     1       3.655   2.318  20.613  0.00  0.00    +0.000 OA
ATOM      9  N   UNL     1       2.833   4.448  20.420  0.00  0.00    +0.000 N 
ATOM     10  C   UNL     1       1.878   5.502  20.668  0.00  0.00    +0.000 C 
ATOM     11  C   UNL     1       1.962   6.328  19.399  0.00  0.00    +0.000 C 
ATOM     12  C   UNL     1       3.455   6.271  19.031  0.00  0.00    +0.000 C 
ATOM     13  C   UNL     1       3.941   4.932  19.613  0.00  0.00    +0.000 C 
ENDBRANCH   5  12
ENDBRANCH   1   5
BRANCH   3  14
ATOM     14  C   UNL     1       6.698   4.414  16.211  0.00  0.00    +0.000 C 
BRANCH  14  15
ATOM     15  C   UNL     1       6.791   4.426  14.702  0.00  0.00    +0.000 A 
ATOM     16  C   UNL     1       7.720   5.248  14.048  0.00  0.00    +0.000 A 
ATOM     17  C   UNL     1       7.838   5.222  12.657  0.00  0.00    +0.000 A 
ATOM     18  C   UNL     1       7.028   4.379  11.901  0.00  0.00    +0.000 A 
ATOM     19  C   UNL     1       6.091   3.566  12.537  0.00  0.00    +0.000 A 
ATOM     20  C   UNL     1       5.970   3.593  13.928  0.00  0.00    +0.000 A 
ENDBRANCH  14  15
ENDBRANCH   3  14
TORSDOF 4
ENDMDL
