MODEL 1
REMARK VINA RESULT:      -7.0      0.000      0.000
REMARK  Name = 
REMARK  9 active torsions:
REMARK  status: ('A' for Active; 'I' for Inactive)
REMARK    1  A    between atoms: C_2  and  O_3
REMARK    2  A    between atoms: C_2  and  C_4
REMARK    3  A    between atoms: C_4  and  N_5
REMARK    4  A    between atoms: C_6  and  C_8
REMARK    5  A    between atoms: C_8  and  C_9
REMARK    6  A    between atoms: C_9  and  C_10
REMARK    7  A    between atoms: C_10  and  C_11
REMARK    8  A    between atoms: C_11  and  C_12
REMARK    9  A    between atoms: C_12  and  C_13
REMARK                            x       y       z     vdW  Elec       q    Type
REMARK                         _______ _______ _______ _____ _____    ______ ____
ROOT
ATOM      1  C   UNL     1       6.408   4.497  16.356  0.00  0.00    +0.000 C 
ENDROOT
BRANCH   1   3
ATOM      2  N   UNL     1       6.169   3.683  14.089  0.00  0.00    +0.000 N 
ATOM      3  C   UNL     1       6.818   4.581  14.903  0.00  0.00    +0.000 C 
ATOM      4  O   UNL     1       7.656   5.368  14.472  0.00  0.00    +0.000 OA
ATOM      5  H   UNL     1       5.502   3.012  14.463  0.00  0.00    +0.000 HD
BRANCH   2   6
ATOM      6  C   UNL     1       6.503   3.623  12.682  0.00  0.00    +0.000 C 
BRANCH   6   8
ATOM      7  O   UNL     1       4.421   3.180  11.510  0.00  0.00    +0.000 OA
ATOM      8  C   UNL     1       5.523   2.793  11.873  0.00  0.00    +0.000 C 
BRANCH   8   9
ATOM      9  O   UNL     1       5.991   1.550  11.597  0.00  0.00    +0.000 OA
ATOM     10  H   UNL     1       5.786   1.239  10.692  0.00  0.00    +0.000 HD
ENDBRANCH   8   9
ENDBRANCH   6   8
ENDBRANCH   2   6
ENDBRANCH   1   3
BRANCH   1  11
ATOM     11  C   UNL     1       4.971   4.979  16.578  0.00  0.00    +0.000 C 
BRANCH  11  12
ATOM     12  C   UNL     1       4.863   6.118  17.597  0.00  0.00    +0.000 C 
BRANCH  12  13
ATOM     13  C   UNL     1       3.442   6.667  17.688  0.00  0.00    +0.000 C 
BRANCH  13  14
ATOM     14  C   UNL     1       2.865   6.620  19.102  0.00  0.00    +0.000 C 
BRANCH  14  15
ATOM     15  C   UNL     1       2.261   5.254  19.323  0.00  0.00    +0.000 A 
ATOM     16  C   UNL     1       1.817   4.496  18.233  0.00  0.00    +0.000 A 
ATOM     17  C   UNL     1       1.113   3.310  18.437  0.00  0.00    +0.000 A 
ATOM     18  C   UNL     1       0.848   2.870  19.733  0.00  0.00    +0.000 A 
ATOM     19  C   UNL     1       1.305   3.604  20.826  0.00  0.00    +0.000 A 
ATOM     20  C   UNL     1       2.009   4.791  20.623  0.00  0.00    +0.000 A 
ENDBRANCH  14  15
ENDBRANCH  13  14
ENDBRANCH  12  13
ENDBRANCH  11  12
ENDBRANCH   1  11
TORSDOF 9
ENDMDL
MODEL 2
REMARK VINA RESULT:      -6.7      1.178      1.771
REMARK  Name = 
REMARK  9 active torsions:
REMARK  status: ('A' for Active; 'I' for Inactive)
REMARK    1  A    between atoms: C_2  and  O_3
REMARK    2  A    between atoms: C_2  and  C_4
REMARK    3  A    between atoms: C_4  and  N_5
REMARK    4  A    between atoms: C_6  and  C_8
REMARK    5  A    between atoms: C_8  and  C_9
REMARK    6  A    between atoms: C_9  and  C_10
REMARK    7  A    between atoms: C_10  and  C_11
REMARK    8  A    between atoms: C_11  and  C_12
REMARK    9  A    between atoms: C_12  and  C_13
REMARK                            x       y       z     vdW  Elec       q    Type
REMARK                         _______ _______ _______ _____ _____    ______ ____
ROOT
ATOM      1  C   UNL     1       6.532   4.780  15.849  0.00  0.00    +0.000 C 
ENDROOT
BRANCH   1   3
ATOM      2  N   UNL     1       6.220   3.677  13.717  0.00  0.00    +0.000 N 
ATOM      3  C   UNL     1       6.902   4.664  14.388  0.00  0.00    +0.000 C 
ATOM      4  O   UNL     1       7.739   5.374  13.834  0.00  0.00    +0.000 OA
ATOM      5  H   UNL     1       5.555   3.073  14.193  0.00  0.00    +0.000 HD
BRANCH   2   6
ATOM      6  C   UNL     1       6.514   3.426  12.322  0.00  0.00    +0.000 C 
BRANCH   6   8
ATOM      7  O   UNL     1       4.365   2.906  11.312  0.00  0.00    +0.000 OA
ATOM      8  C   UNL     1       5.484   2.540  11.647  0.00  0.00    +0.000 C 
BRANCH   8   9
ATOM      9  O   UNL     1       5.925   1.271  11.459  0.00  0.00    +0.000 OA
ATOM     10  H   UNL     1       6.307   1.109  10.573  0.00  0.00    +0.000 HD
ENDBRANCH   8   9
ENDBRANCH   6   8
ENDBRANCH   2   6
ENDBRANCH   1   3
BRANCH   1  11
ATOM     11  C   UNL     1       5.366   5.747  16.072  0.00  0.00    +0.000 C 
BRANCH  11  12
ATOM     12  C   UNL     1       4.831   5.733  17.509  0.00  0.00    +0.000 C 
BRANCH  12  13
ATOM     13  C   UNL     1       4.985   4.362  18.159  0.00  0.00    +0.000 C 
BRANCH  13  14
ATOM     14  C   UNL     1       3.815   3.421  17.871  0.00  0.00    +0.000 C 
BRANCH  14  15
ATOM     15  C   UNL     1       2.952   3.345  19.107  0.00  0.00    +0.000 A 
ATOM     16  C   UNL     1       3.475   2.834  20.301  0.00  0.00    +0.000 A 
ATOM     17  C   UNL     1       2.643   2.610  21.397  0.00  0.00    +0.000 A 
ATOM     18  C   UNL     1       1.281   2.895  21.310  0.00  0.00    +0.000 A 
ATOM     19  C   UNL     1       0.754   3.425  20.135  0.00  0.00    +0.000 A 
ATOM     20  C   UNL     1       1.585   3.650  19.037  0.00  0.00    +0.000 A 
ENDBRANCH  14  15
ENDBRANCH  13  14
ENDBRANCH  12  13
ENDBRANCH  11  12
ENDBRANCH   1  11
TORSDOF 9
ENDMDL
MODEL 3
REMARK VINA RESULT:      -6.7      0.433      1.426
REMARK  Name = 
REMARK  9 active torsions:
REMARK  status: ('A' for Active; 'I' for Inactive)
REMARK    1  A    between atoms: C_2  and  O_3
REMARK    2  A    between atoms: C_2  and  C_4
REMARK    3  A    between atoms: C_4  and  N_5
REMARK    4  A    between atoms: C_6  and  C_8
REMARK    5  A    between atoms: C_8  and  C_9
REMARK    6  A    between atoms: C_9  and  C_10
REMARK    7  A    between atoms: C_10  and  C_11
REMARK    8  A    between atoms: C_11  and  C_12
REMARK    9  A    between atoms: C_12  and  C_13
REMARK                            x       y       z     vdW  Elec       q    Type
REMARK                         _______ _______ _______ _____ _____    ______ ____
ROOT
ATOM      1  C   UNL     1       6.795   4.834  16.064  0.00  0.00    +0.000 C 
ENDROOT
BRANCH   1   3
ATOM      2  N   UNL     1       6.380   3.782  13.924  0.00  0.00    +0.000 N 
ATOM      3  C   UNL     1       7.060   4.783  14.577  0.00  0.00    +0.000 C 
ATOM      4  O   UNL     1       7.814   5.553  13.988  0.00  0.00    +0.000 OA
ATOM      5  H   UNL     1       5.784   3.129  14.427  0.00  0.00    +0.000 HD
BRANCH   2   6
ATOM      6  C   UNL     1       6.581   3.590  12.504  0.00  0.00    +0.000 C 
BRANCH   6   8
ATOM      7  O   UNL     1       5.632   1.597  11.486  0.00  0.00    +0.000 OA
ATOM      8  C   UNL     1       5.491   2.755  11.857  0.00  0.00    +0.000 C 
BRANCH   8   9
ATOM      9  O   UNL     1       4.325   3.432  11.713  0.00  0.00    +0.000 OA
ATOM     10  H   UNL     1       4.438   4.374  11.471  0.00  0.00    +0.000 HD
ENDBRANCH   8   9
ENDBRANCH   6   8
ENDBRANCH   2   6
ENDBRANCH   1   3
BRANCH   1  11
ATOM     11  C   UNL     1       5.336   4.510  16.401  0.00  0.00    +0.000 C 
BRANCH  11  12
ATOM     12  C   UNL     1       4.866   5.128  17.723  0.00  0.00    +0.000 C 
BRANCH  12  13
ATOM     13  C   UNL     1       3.775   6.172  17.506  0.00  0.00    +0.000 C 
BRANCH  13  14
ATOM     14  C   UNL     1       2.964   6.468  18.767  0.00  0.00    +0.000 C 
BRANCH  14  15
ATOM     15  C   UNL     1       2.134   5.251  19.095  0.00  0.00    +0.000 A 
ATOM     16  C   UNL     1       1.884   4.908  20.430  0.00  0.00    +0.000 A 
ATOM     17  C   UNL     1       1.259   3.702  20.744  0.00  0.00    +0.000 A 
ATOM     18  C   UNL     1       0.878   2.828  19.728  0.00  0.00    +0.000 A 
ATOM     19  C   UNL     1       1.101   3.168  18.395  0.00  0.00    +0.000 A 
ATOM     20  C   UNL     1       1.726   4.375  18.079  0.00  0.00    +0.000 A 
ENDBRANCH  14  15
ENDBRANCH  13  14
ENDBRANCH  12  13
ENDBRANCH  11  12
ENDBRANCH   1  11
TORSDOF 9
ENDMDL
MODEL 4
REMARK VINA RESULT:      -6.6      1.089      1.430
REMARK  Name = 
REMARK  9 active torsions:
REMARK  status: ('A' for Active; 'I' for Inactive)
REMARK    1  A    between atoms: C_2  and  O_3
REMARK    2  A    between atoms: C_2  and  C_4
REMARK    3  A    between atoms: C_4  and  N_5
REMARK    4  A    between atoms: C_6  and  C_8
REMARK    5  A    between atoms: C_8  and  C_9
REMARK    6  A    between atoms: C_9  and  C_10
REMARK    7  A    between atoms: C_10  and  C_11
REMARK    8  A    between atoms: C_11  and  C_12
REMARK    9  A    between atoms: C_12  and  C_13
REMARK                            x       y       z     vdW  Elec       q    Type
REMARK                         _______ _______ _______ _____ _____    ______ ____
ROOT
ATOM      1  C   UNL     1       6.794   4.955  15.714  0.00  0.00    +0.000 C 
ENDROOT
BRANCH   1   3
ATOM      2  N   UNL     1       6.351   3.773  13.649  0.00  0.00    +0.000 N 
ATOM      3  C   UNL     1       7.063   4.792  14.235  0.00  0.00    +0.000 C 
ATOM      4  O   UNL     1       7.848   5.492  13.600  0.00  0.00    +0.000 OA
ATOM      5  H   UNL     1       5.730   3.178  14.191  0.00  0.00    +0.000 HD
BRANCH   2   6
ATOM      6  C   UNL     1       6.550   3.478  12.246  0.00  0.00    +0.000 C 
BRANCH   6   8
ATOM      7  O   UNL     1       4.350   2.998  11.331  0.00  0.00    +0.000 OA
ATOM      8  C   UNL     1       5.458   2.600  11.663  0.00  0.00    +0.000 C 
BRANCH   8   9
ATOM      9  O   UNL     1       5.831   1.300  11.554  0.00  0.00    +0.000 OA
ATOM     10  H   UNL     1       6.361   0.973  12.310  0.00  0.00    +0.000 HD
ENDBRANCH   8   9
ENDBRANCH   6   8
ENDBRANCH   2   6
ENDBRANCH   1   3
BRANCH   1  11
ATOM     11  C   UNL     1       5.745   3.961  16.221  0.00  0.00    +0.000 C 
BRANCH  11  12
ATOM     12  C   UNL     1       4.441   4.630  16.668  0.00  0.00    +0.000 C 
BRANCH  12  13
ATOM     13  C   UNL     1       4.645   5.512  17.896  0.00  0.00    +0.000 C 
BRANCH  13  14
ATOM     14  C   UNL     1       4.931   4.718  19.170  0.00  0.00    +0.000 C 
BRANCH  14  15
ATOM     15  C   UNL     1       3.614   4.280  19.763  0.00  0.00    +0.000 A 
ATOM     16  C   UNL     1       3.287   2.919  19.824  0.00  0.00    +0.000 A 
ATOM     17  C   UNL     1       2.012   2.517  20.219  0.00  0.00    +0.000 A 
ATOM     18  C   UNL     1       1.053   3.470  20.557  0.00  0.00    +0.000 A 
ATOM     19  C   UNL     1       1.373   4.825  20.522  0.00  0.00    +0.000 A 
ATOM     20  C   UNL     1       2.648   5.230  20.127  0.00  0.00    +0.000 A 
ENDBRANCH  14  15
ENDBRANCH  13  14
ENDBRANCH  12  13
ENDBRANCH  11  12
ENDBRANCH   1  11
TORSDOF 9
ENDMDL
MODEL 5
REMARK VINA RESULT:      -6.6      0.770      1.457
REMARK  Name = 
REMARK  9 active torsions:
REMARK  status: ('A' for Active; 'I' for Inactive)
REMARK    1  A    between atoms: C_2  and  O_3
REMARK    2  A    between atoms: C_2  and  C_4
REMARK    3  A    between atoms: C_4  and  N_5
REMARK    4  A    between atoms: C_6  and  C_8
REMARK    5  A    between atoms: C_8  and  C_9
REMARK    6  A    between atoms: C_9  and  C_10
REMARK    7  A    between atoms: C_10  and  C_11
REMARK    8  A    between atoms: C_11  and  C_12
REMARK    9  A    between atoms: C_12  and  C_13
REMARK                            x       y       z     vdW  Elec       q    Type
REMARK                         _______ _______ _______ _____ _____    ______ ____
ROOT
ATOM      1  C   UNL     1       6.108   4.575  16.029  0.00  0.00    +0.000 C 
ENDROOT
BRANCH   1   3
ATOM      2  N   UNL     1       6.038   3.609  13.810  0.00  0.00    +0.000 N 
ATOM      3  C   UNL     1       6.641   4.547  14.614  0.00  0.00    +0.000 C 
ATOM      4  O   UNL     1       7.536   5.283  14.204  0.00  0.00    +0.000 OA
ATOM      5  H   UNL     1       5.323   2.982  14.170  0.00  0.00    +0.000 HD
BRANCH   2   6
ATOM      6  C   UNL     1       6.488   3.444  12.445  0.00  0.00    +0.000 C 
BRANCH   6   8
ATOM      7  O   UNL     1       4.450   2.805  11.284  0.00  0.00    +0.000 OA
ATOM      8  C   UNL     1       5.590   2.529  11.630  0.00  0.00    +0.000 C 
BRANCH   8   9
ATOM      9  O   UNL     1       6.181   1.347  11.327  0.00  0.00    +0.000 OA
ATOM     10  H   UNL     1       5.564   0.668  10.985  0.00  0.00    +0.000 HD
ENDBRANCH   8   9
ENDBRANCH   6   8
ENDBRANCH   2   6
ENDBRANCH   1   3
BRANCH   1  11
ATOM     11  C   UNL     1       7.023   5.359  16.974  0.00  0.00    +0.000 C 
BRANCH  11  12
ATOM     12  C   UNL     1       6.302   5.884  18.220  0.00  0.00    +0.000 C 
BRANCH  12  13
ATOM     13  C   UNL     1       4.795   5.657  18.144  0.00  0.00    +0.000 C 
BRANCH  13  14
ATOM     14  C   UNL     1       4.110   5.688  19.509  0.00  0.00    +0.000 C 
BRANCH  14  15
ATOM     15  C   UNL     1       2.882   4.813  19.445  0.00  0.00    +0.000 A 
ATOM     16  C   UNL     1       2.178   4.499  20.615  0.00  0.00    +0.000 A 
ATOM     17  C   UNL     1       1.143   3.566  20.587  0.00  0.00    +0.000 A 
ATOM     18  C   UNL     1       0.801   2.938  19.390  0.00  0.00    +0.000 A 
ATOM     19  C   UNL     1       1.478   3.259  18.216  0.00  0.00    +0.000 A 
ATOM     20  C   UNL     1       2.514   4.193  18.242  0.00  0.00    +0.000 A 
ENDBRANCH  14  15
ENDBRANCH  13  14
ENDBRANCH  12  13
ENDBRANCH  11  12
ENDBRANCH   1  11
TORSDOF 9
ENDMDL
MODEL 6
REMARK VINA RESULT:      -6.6      2.530      3.749
REMARK  Name = 
REMARK  9 active torsions:
REMARK  status: ('A' for Active; 'I' for Inactive)
REMARK    1  A    between atoms: C_2  and  O_3
REMARK    2  A    between atoms: C_2  and  C_4
REMARK    3  A    between atoms: C_4  and  N_5
REMARK    4  A    between atoms: C_6  and  C_8
REMARK    5  A    between atoms: C_8  and  C_9
REMARK    6  A    between atoms: C_9  and  C_10
REMARK    7  A    between atoms: C_10  and  C_11
REMARK    8  A    between atoms: C_11  and  C_12
REMARK    9  A    between atoms: C_12  and  C_13
REMARK                            x       y       z     vdW  Elec       q    Type
REMARK                         _______ _______ _______ _____ _____    ______ ____
ROOT
ATOM      1  C   UNL     1       3.878   7.076  17.631  0.00  0.00    +0.000 C 
ENDROOT
BRANCH   1   3
ATOM      2  N   UNL     1       4.953   5.004  16.993  0.00  0.00    +0.000 N 
ATOM      3  C   UNL     1       4.701   6.304  16.625  0.00  0.00    +0.000 C 
ATOM      4  O   UNL     1       5.120   6.779  15.573  0.00  0.00    +0.000 OA
ATOM      5  H   UNL     1       4.630   4.630  17.882  0.00  0.00    +0.000 HD
BRANCH   2   6
ATOM      6  C   UNL     1       5.772   4.166  16.142  0.00  0.00    +0.000 C 
BRANCH   6   8
ATOM      7  O   UNL     1       8.006   4.253  17.095  0.00  0.00    +0.000 OA
ATOM      8  C   UNL     1       7.243   4.537  16.182  0.00  0.00    +0.000 C 
BRANCH   8   9
ATOM      9  O   UNL     1       7.638   5.239  15.090  0.00  0.00    +0.000 OA
ATOM     10  H   UNL     1       6.915   5.437  14.460  0.00  0.00    +0.000 HD
ENDBRANCH   8   9
ENDBRANCH   6   8
ENDBRANCH   2   6
ENDBRANCH   1   3
BRANCH   1  11
ATOM     11  C   UNL     1       2.777   6.215  18.257  0.00  0.00    +0.000 C 
BRANCH  11  12
ATOM     12  C   UNL     1       2.248   6.774  19.582  0.00  0.00    +0.000 C 
BRANCH  12  13
ATOM     13  C   UNL     1       2.139   5.692  20.653  0.00  0.00    +0.000 C 
BRANCH  13  14
ATOM     14  C   UNL     1       1.173   4.568  20.279  0.00  0.00    +0.000 C 
BRANCH  14  15
ATOM     15  C   UNL     1       1.962   3.462  19.621  0.00  0.00    +0.000 A 
ATOM     16  C   UNL     1       3.159   3.013  20.195  0.00  0.00    +0.000 A 
ATOM     17  C   UNL     1       3.973   2.110  19.513  0.00  0.00    +0.000 A 
ATOM     18  C   UNL     1       3.599   1.646  18.253  0.00  0.00    +0.000 A 
ATOM     19  C   UNL     1       2.400   2.067  17.682  0.00  0.00    +0.000 A 
ATOM     20  C   UNL     1       1.584   2.971  18.363  0.00  0.00    +0.000 A 
ENDBRANCH  14  15
ENDBRANCH  13  14
ENDBRANCH  12  13
ENDBRANCH  11  12
ENDBRANCH   1  11
TORSDOF 9
ENDMDL
MODEL 7
REMARK VINA RESULT:      -6.6      2.580      3.682
REMARK  Name = 
REMARK  9 active torsions:
REMARK  status: ('A' for Active; 'I' for Inactive)
REMARK    1  A    between atoms: C_2  and  O_3
REMARK    2  A    between atoms: C_2  and  C_4
REMARK    3  A    between atoms: C_4  and  N_5
REMARK    4  A    between atoms: C_6  and  C_8
REMARK    5  A    between atoms: C_8  and  C_9
REMARK    6  A    between atoms: C_9  and  C_10
REMARK    7  A    between atoms: C_10  and  C_11
REMARK    8  A    between atoms: C_11  and  C_12
REMARK    9  A    between atoms: C_12  and  C_13
REMARK                            x       y       z     vdW  Elec       q    Type
REMARK                         _______ _______ _______ _____ _____    ______ ____
ROOT
ATOM      1  C   UNL     1       3.751   7.070  17.601  0.00  0.00    +0.000 C 
ENDROOT
BRANCH   1   3
ATOM      2  N   UNL     1       4.900   5.018  17.030  0.00  0.00    +0.000 N 
ATOM      3  C   UNL     1       4.636   6.309  16.640  0.00  0.00    +0.000 C 
ATOM      4  O   UNL     1       5.091   6.786  15.603  0.00  0.00    +0.000 OA
ATOM      5  H   UNL     1       4.546   4.645  17.907  0.00  0.00    +0.000 HD
BRANCH   2   6
ATOM      6  C   UNL     1       5.775   4.193  16.224  0.00  0.00    +0.000 C 
BRANCH   6   8
ATOM      7  O   UNL     1       7.971   4.356  17.253  0.00  0.00    +0.000 OA
ATOM      8  C   UNL     1       7.232   4.610  16.312  0.00  0.00    +0.000 C 
BRANCH   8   9
ATOM      9  O   UNL     1       7.642   5.317  15.229  0.00  0.00    +0.000 OA
ATOM     10  H   UNL     1       6.912   5.714  14.712  0.00  0.00    +0.000 HD
ENDBRANCH   8   9
ENDBRANCH   6   8
ENDBRANCH   2   6
ENDBRANCH   1   3
BRANCH   1  11
ATOM     11  C   UNL     1       3.625   6.361  18.952  0.00  0.00    +0.000 C 
BRANCH  11  12
ATOM     12  C   UNL     1       2.295   6.636  19.662  0.00  0.00    +0.000 C 
BRANCH  12  13
ATOM     13  C   UNL     1       2.029   5.635  20.782  0.00  0.00    +0.000 C 
BRANCH  13  14
ATOM     14  C   UNL     1       1.214   4.425  20.330  0.00  0.00    +0.000 C 
BRANCH  14  15
ATOM     15  C   UNL     1       2.112   3.521  19.521  0.00  0.00    +0.000 A 
ATOM     16  C   UNL     1       1.771   3.186  18.204  0.00  0.00    +0.000 A 
ATOM     17  C   UNL     1       2.507   2.228  17.507  0.00  0.00    +0.000 A 
ATOM     18  C   UNL     1       3.589   1.598  18.118  0.00  0.00    +0.000 A 
ATOM     19  C   UNL     1       3.952   1.940  19.419  0.00  0.00    +0.000 A 
ATOM     20  C   UNL     1       3.217   2.899  20.118  0.00  0.00    +0.000 A 
ENDBRANCH  14  15
ENDBRANCH  13  14
ENDBRANCH  12  13
ENDBRANCH  11  12
ENDBRANCH   1  11
TORSDOF 9
ENDMDL
MODEL 8
REMARK VINA RESULT:      -6.5      1.890      3.370
REMARK  Name = 
REMARK  9 active torsions:
REMARK  status: ('A' for Active; 'I' for Inactive)
REMARK    1  A    between atoms: C_2  and  O_3
REMARK    2  A    between atoms: C_2  and  C_4
REMARK    3  A    between atoms: C_4  and  N_5
REMARK    4  A    between atoms: C_6  and  C_8
REMARK    5  A    between atoms: C_8  and  C_9
REMARK    6  A    between atoms: C_9  and  C_10
REMARK    7  A    between atoms: C_10  and  C_11
REMARK    8  A    between atoms: C_11  and  C_12
REMARK    9  A    between atoms: C_12  and  C_13
REMARK                            x       y       z     vdW  Elec       q    Type
REMARK                         _______ _______ _______ _____ _____    ______ ____
ROOT
ATOM      1  C   UNL     1       4.016   6.745  17.590  0.00  0.00    +0.000 C 
ENDROOT
BRANCH   1   3
ATOM      2  N   UNL     1       5.579   5.053  16.846  0.00  0.00    +0.000 N 
ATOM      3  C   UNL     1       5.398   6.395  17.086  0.00  0.00    +0.000 C 
ATOM      4  O   UNL     1       6.292   7.218  16.908  0.00  0.00    +0.000 OA
ATOM      5  H   UNL     1       4.843   4.376  17.029  0.00  0.00    +0.000 HD
BRANCH   2   6
ATOM      6  C   UNL     1       6.872   4.575  16.406  0.00  0.00    +0.000 C 
BRANCH   6   8
ATOM      7  O   UNL     1       7.649   5.392  14.253  0.00  0.00    +0.000 OA
ATOM      8  C   UNL     1       7.020   4.563  14.896  0.00  0.00    +0.000 C 
BRANCH   8   9
ATOM      9  O   UNL     1       6.362   3.530  14.312  0.00  0.00    +0.000 OA
ATOM     10  H   UNL     1       5.752   3.056  14.912  0.00  0.00    +0.000 HD
ENDBRANCH   8   9
ENDBRANCH   6   8
ENDBRANCH   2   6
ENDBRANCH   1   3
BRANCH   1  11
ATOM     11  C   UNL     1       3.741   6.155  18.976  0.00  0.00    +0.000 C 
BRANCH  11  12
ATOM     12  C   UNL     1       2.314   6.410  19.473  0.00  0.00    +0.000 C 
BRANCH  12  13
ATOM     13  C   UNL     1       1.990   5.589  20.717  0.00  0.00    +0.000 C 
BRANCH  13  14
ATOM     14  C   UNL     1       1.092   4.386  20.429  0.00  0.00    +0.000 C 
BRANCH  14  15
ATOM     15  C   UNL     1       1.899   3.363  19.666  0.00  0.00    +0.000 A 
ATOM     16  C   UNL     1       3.039   2.791  20.244  0.00  0.00    +0.000 A 
ATOM     17  C   UNL     1       3.877   1.971  19.489  0.00  0.00    +0.000 A 
ATOM     18  C   UNL     1       3.583   1.714  18.152  0.00  0.00    +0.000 A 
ATOM     19  C   UNL     1       2.439   2.258  17.572  0.00  0.00    +0.000 A 
ATOM     20  C   UNL     1       1.599   3.079  18.326  0.00  0.00    +0.000 A 
ENDBRANCH  14  15
ENDBRANCH  13  14
ENDBRANCH  12  13
ENDBRANCH  11  12
ENDBRANCH   1  11
TORSDOF 9
ENDMDL
MODEL 9
REMARK VINA RESULT:      -6.5      0.867      1.760
REMARK  Name = 
REMARK  9 active torsions:
REMARK  status: ('A' for Active; 'I' for Inactive)
REMARK    1  A    between atoms: C_2  and  O_3
REMARK    2  A    between atoms: C_2  and  C_4
REMARK    3  A    between atoms: C_4  and  N_5
REMARK    4  A    between atoms: C_6  and  C_8
REMARK    5  A    between atoms: C_8  and  C_9
REMARK    6  A    between atoms: C_9  and  C_10
REMARK    7  A    between atoms: C_10  and  C_11
REMARK    8  A    between atoms: C_11  and  C_12
REMARK    9  A    between atoms: C_12  and  C_13
REMARK                            x       y       z     vdW  Elec       q    Type
REMARK                         _______ _______ _______ _____ _____    ______ ____
ROOT
ATOM      1  C   UNL     1       6.665   4.872  15.881  0.00  0.00    +0.000 C 
ENDROOT
BRANCH   1   3
ATOM      2  N   UNL     1       6.304   3.762  13.762  0.00  0.00    +0.000 N 
ATOM      3  C   UNL     1       7.006   4.748  14.414  0.00  0.00    +0.000 C 
ATOM      4  O   UNL     1       7.835   5.449  13.840  0.00  0.00    +0.000 OA
ATOM      5  H   UNL     1       5.644   3.165  14.253  0.00  0.00    +0.000 HD
BRANCH   2   6
ATOM      6  C   UNL     1       6.568   3.504  12.362  0.00  0.00    +0.000 C 
BRANCH   6   8
ATOM      7  O   UNL     1       5.700   1.497  11.301  0.00  0.00    +0.000 OA
ATOM      8  C   UNL     1       5.510   2.635  11.708  0.00  0.00    +0.000 C 
BRANCH   8   9
ATOM      9  O   UNL     1       4.309   3.258  11.603  0.00  0.00    +0.000 OA
ATOM     10  H   UNL     1       3.545   2.648  11.562  0.00  0.00    +0.000 HD
ENDBRANCH   8   9
ENDBRANCH   6   8
ENDBRANCH   2   6
ENDBRANCH   1   3
BRANCH   1  11
ATOM     11  C   UNL     1       5.877   6.150  16.184  0.00  0.00    +0.000 C 
BRANCH  11  12
ATOM     12  C   UNL     1       4.576   5.895  16.951  0.00  0.00    +0.000 C 
BRANCH  12  13
ATOM     13  C   UNL     1       4.481   4.455  17.447  0.00  0.00    +0.000 C 
BRANCH  13  14
ATOM     14  C   UNL     1       3.133   3.801  17.147  0.00  0.00    +0.000 C 
BRANCH  14  15
ATOM     15  C   UNL     1       2.358   3.694  18.438  0.00  0.00    +0.000 A 
ATOM     16  C   UNL     1       2.130   4.835  19.219  0.00  0.00    +0.000 A 
ATOM     17  C   UNL     1       1.559   4.721  20.485  0.00  0.00    +0.000 A 
ATOM     18  C   UNL     1       1.210   3.467  20.983  0.00  0.00    +0.000 A 
ATOM     19  C   UNL     1       1.411   2.328  20.207  0.00  0.00    +0.000 A 
ATOM     20  C   UNL     1       1.982   2.440  18.939  0.00  0.00    +0.000 A 
ENDBRANCH  14  15
ENDBRANCH  13  14
ENDBRANCH  12  13
ENDBRANCH  11  12
ENDBRANCH   1  11
TORSDOF 9
ENDMDL
