MODEL 1
REMARK VINA RESULT:      -4.6      0.000      0.000
REMARK  Name = 
REMARK  12 active torsions:
REMARK  status: ('A' for Active; 'I' for Inactive)
REMARK    1  A    between atoms: S_2  and  O_3
REMARK    2  A    between atoms: S_2  and  C_4
REMARK    3  A    between atoms: C_4  and  C_5
REMARK    4  A    between atoms: C_5  and  C_6
REMARK    5  A    between atoms: C_6  and  S_7
REMARK    6  A    between atoms: S_7  and  S_8
REMARK    7  A    between atoms: S_8  and  S_9
REMARK    8  A    between atoms: S_9  and  C_10
REMARK    9  A    between atoms: C_10  and  C_11
REMARK   10  A    between atoms: C_11  and  C_12
REMARK   11  A    between atoms: C_12  and  S_13
REMARK   12  A    between atoms: S_13  and  O_15
REMARK                            x       y       z     vdW  Elec       q    Type
REMARK                         _______ _______ _______ _____ _____    ______ ____
ROOT
ATOM      1  S   UNL     1       4.533   7.027  16.902  0.00  0.00    +0.000 S 
ENDROOT
BRANCH   1   2
ATOM      2  S   UNL     1       3.615   5.476  17.881  0.00  0.00    +0.000 S 
BRANCH   2   3
ATOM      3  C   UNL     1       3.044   6.234  19.436  0.00  0.00    +0.000 C 
BRANCH   3   4
ATOM      4  C   UNL     1       2.429   5.200  20.388  0.00  0.00    +0.000 C 
BRANCH   4   5
ATOM      5  C   UNL     1       2.893   3.749  20.240  0.00  0.00    +0.000 C 
BRANCH   5   7
ATOM      6  O   UNL     1       1.546   2.524  22.263  0.00  0.00    +0.000 OA
ATOM      7  S   UNL     1       1.620   2.587  20.775  0.00  0.00    +0.000 S 
BRANCH   7   8
ATOM      8  O   UNL     1       0.375   3.463  20.281  0.00  0.00    +0.000 OA
ATOM      9  H   UNL     1       0.728   4.202  19.721  0.00  0.00    +0.000 HD
ENDBRANCH   7   8
ENDBRANCH   5   7
ENDBRANCH   4   5
ENDBRANCH   3   4
ENDBRANCH   2   3
ENDBRANCH   1   2
BRANCH   1  10
ATOM     10  S   UNL     1       6.483   7.012  17.536  0.00  0.00    +0.000 S 
BRANCH  10  11
ATOM     11  C   UNL     1       6.759   5.280  18.029  0.00  0.00    +0.000 C 
BRANCH  11  12
ATOM     12  C   UNL     1       7.334   4.437  16.878  0.00  0.00    +0.000 C 
BRANCH  12  13
ATOM     13  C   UNL     1       6.320   3.868  15.880  0.00  0.00    +0.000 C 
BRANCH  13  14
ATOM     14  S   UNL     1       6.438   4.722  14.294  0.00  0.00    +0.000 S 
ATOM     15  O   UNL     1       7.770   5.388  14.169  0.00  0.00    +0.000 OA
BRANCH  14  16
ATOM     16  O   UNL     1       6.478   3.386  13.409  0.00  0.00    +0.000 OA
ATOM     17  H   UNL     1       6.472   3.636  12.451  0.00  0.00    +0.000 HD
ENDBRANCH  14  16
ENDBRANCH  13  14
ENDBRANCH  12  13
ENDBRANCH  11  12
ENDBRANCH  10  11
ENDBRANCH   1  10
TORSDOF 12
ENDMDL
MODEL 2
REMARK VINA RESULT:      -4.6      2.136      2.772
REMARK  Name = 
REMARK  12 active torsions:
REMARK  status: ('A' for Active; 'I' for Inactive)
REMARK    1  A    between atoms: S_2  and  O_3
REMARK    2  A    between atoms: S_2  and  C_4
REMARK    3  A    between atoms: C_4  and  C_5
REMARK    4  A    between atoms: C_5  and  C_6
REMARK    5  A    between atoms: C_6  and  S_7
REMARK    6  A    between atoms: S_7  and  S_8
REMARK    7  A    between atoms: S_8  and  S_9
REMARK    8  A    between atoms: S_9  and  C_10
REMARK    9  A    between atoms: C_10  and  C_11
REMARK   10  A    between atoms: C_11  and  C_12
REMARK   11  A    between atoms: C_12  and  S_13
REMARK   12  A    between atoms: S_13  and  O_15
REMARK                            x       y       z     vdW  Elec       q    Type
REMARK                         _______ _______ _______ _____ _____    ______ ____
ROOT
ATOM      1  S   UNL     1       3.113   5.042  17.677  0.00  0.00    +0.000 S 
ENDROOT
BRANCH   1   2
ATOM      2  S   UNL     1       3.926   3.160  17.733  0.00  0.00    +0.000 S 
BRANCH   2   3
ATOM      3  C   UNL     1       2.473   2.067  17.626  0.00  0.00    +0.000 C 
BRANCH   3   4
ATOM      4  C   UNL     1       1.323   2.550  18.520  0.00  0.00    +0.000 C 
BRANCH   4   5
ATOM      5  C   UNL     1       1.417   2.236  20.015  0.00  0.00    +0.000 C 
BRANCH   5   7
ATOM      6  O   UNL     1       1.304   4.839  20.801  0.00  0.00    +0.000 OA
ATOM      7  S   UNL     1       2.137   3.609  20.937  0.00  0.00    +0.000 S 
BRANCH   7   8
ATOM      8  O   UNL     1       1.848   3.006  22.390  0.00  0.00    +0.000 OA
ATOM      9  H   UNL     1       2.238   3.626  23.059  0.00  0.00    +0.000 HD
ENDBRANCH   7   8
ENDBRANCH   5   7
ENDBRANCH   4   5
ENDBRANCH   3   4
ENDBRANCH   2   3
ENDBRANCH   1   2
BRANCH   1  10
ATOM     10  S   UNL     1       4.266   6.187  18.926  0.00  0.00    +0.000 S 
BRANCH  10  11
ATOM     11  C   UNL     1       5.699   5.121  19.285  0.00  0.00    +0.000 C 
BRANCH  11  12
ATOM     12  C   UNL     1       7.033   5.853  19.062  0.00  0.00    +0.000 C 
BRANCH  12  13
ATOM     13  C   UNL     1       7.316   6.332  17.634  0.00  0.00    +0.000 C 
BRANCH  13  14
ATOM     14  S   UNL     1       7.085   4.987  16.452  0.00  0.00    +0.000 S 
ATOM     15  O   UNL     1       7.580   5.399  15.104  0.00  0.00    +0.000 OA
BRANCH  14  16
ATOM     16  O   UNL     1       8.191   4.027  17.103  0.00  0.00    +0.000 OA
ATOM     17  H   UNL     1       7.930   3.085  16.947  0.00  0.00    +0.000 HD
ENDBRANCH  14  16
ENDBRANCH  13  14
ENDBRANCH  12  13
ENDBRANCH  11  12
ENDBRANCH  10  11
ENDBRANCH   1  10
TORSDOF 12
ENDMDL
MODEL 3
REMARK VINA RESULT:      -4.5      2.699      5.979
REMARK  Name = 
REMARK  12 active torsions:
REMARK  status: ('A' for Active; 'I' for Inactive)
REMARK    1  A    between atoms: S_2  and  O_3
REMARK    2  A    between atoms: S_2  and  C_4
REMARK    3  A    between atoms: C_4  and  C_5
REMARK    4  A    between atoms: C_5  and  C_6
REMARK    5  A    between atoms: C_6  and  S_7
REMARK    6  A    between atoms: S_7  and  S_8
REMARK    7  A    between atoms: S_8  and  S_9
REMARK    8  A    between atoms: S_9  and  C_10
REMARK    9  A    between atoms: C_10  and  C_11
REMARK   10  A    between atoms: C_11  and  C_12
REMARK   11  A    between atoms: C_12  and  S_13
REMARK   12  A    between atoms: S_13  and  O_15
REMARK                            x       y       z     vdW  Elec       q    Type
REMARK                         _______ _______ _______ _____ _____    ______ ____
ROOT
ATOM      1  S   UNL     1       1.936   5.946  18.265  0.00  0.00    +0.000 S 
ENDROOT
BRANCH   1   2
ATOM      2  S   UNL     1       3.043   7.616  17.828  0.00  0.00    +0.000 S 
BRANCH   2   3
ATOM      3  C   UNL     1       4.577   6.935  17.119  0.00  0.00    +0.000 C 
BRANCH   3   4
ATOM      4  C   UNL     1       4.535   5.404  17.022  0.00  0.00    +0.000 C 
BRANCH   4   5
ATOM      5  C   UNL     1       5.094   4.767  15.748  0.00  0.00    +0.000 C 
BRANCH   5   7
ATOM      6  O   UNL     1       7.629   5.758  15.717  0.00  0.00    +0.000 OA
ATOM      7  S   UNL     1       6.872   4.483  15.874  0.00  0.00    +0.000 S 
BRANCH   7   8
ATOM      8  O   UNL     1       6.875   4.125  17.433  0.00  0.00    +0.000 OA
ATOM      9  H   UNL     1       6.098   4.580  17.850  0.00  0.00    +0.000 HD
ENDBRANCH   7   8
ENDBRANCH   5   7
ENDBRANCH   4   5
ENDBRANCH   3   4
ENDBRANCH   2   3
ENDBRANCH   1   2
BRANCH   1  10
ATOM     10  S   UNL     1       2.135   5.657  20.285  0.00  0.00    +0.000 S 
BRANCH  10  11
ATOM     11  C   UNL     1       1.079   4.209  20.616  0.00  0.00    +0.000 C 
BRANCH  11  12
ATOM     12  C   UNL     1       1.905   2.960  20.963  0.00  0.00    +0.000 C 
BRANCH  12  13
ATOM     13  C   UNL     1       2.548   2.221  19.784  0.00  0.00    +0.000 C 
BRANCH  13  14
ATOM     14  S   UNL     1       4.302   2.631  19.654  0.00  0.00    +0.000 S 
ATOM     15  O   UNL     1       5.109   1.695  20.494  0.00  0.00    +0.000 OA
BRANCH  14  16
ATOM     16  O   UNL     1       4.450   2.164  18.128  0.00  0.00    +0.000 OA
ATOM     17  H   UNL     1       4.086   2.872  17.540  0.00  0.00    +0.000 HD
ENDBRANCH  14  16
ENDBRANCH  13  14
ENDBRANCH  12  13
ENDBRANCH  11  12
ENDBRANCH  10  11
ENDBRANCH   1  10
TORSDOF 12
ENDMDL
MODEL 4
REMARK VINA RESULT:      -4.5      2.625      3.233
REMARK  Name = 
REMARK  12 active torsions:
REMARK  status: ('A' for Active; 'I' for Inactive)
REMARK    1  A    between atoms: S_2  and  O_3
REMARK    2  A    between atoms: S_2  and  C_4
REMARK    3  A    between atoms: C_4  and  C_5
REMARK    4  A    between atoms: C_5  and  C_6
REMARK    5  A    between atoms: C_6  and  S_7
REMARK    6  A    between atoms: S_7  and  S_8
REMARK    7  A    between atoms: S_8  and  S_9
REMARK    8  A    between atoms: S_9  and  C_10
REMARK    9  A    between atoms: C_10  and  C_11
REMARK   10  A    between atoms: C_11  and  C_12
REMARK   11  A    between atoms: C_12  and  S_13
REMARK   12  A    between atoms: S_13  and  O_15
REMARK                            x       y       z     vdW  Elec       q    Type
REMARK                         _______ _______ _______ _____ _____    ______ ____
ROOT
ATOM      1  S   UNL     1       3.518   5.118  18.368  0.00  0.00    +0.000 S 
ENDROOT
BRANCH   1   2
ATOM      2  S   UNL     1       3.689   3.742  16.857  0.00  0.00    +0.000 S 
BRANCH   2   3
ATOM      3  C   UNL     1       2.960   2.233  17.572  0.00  0.00    +0.000 C 
BRANCH   3   4
ATOM      4  C   UNL     1       1.866   2.555  18.599  0.00  0.00    +0.000 C 
BRANCH   4   5
ATOM      5  C   UNL     1       2.023   1.960  20.001  0.00  0.00    +0.000 C 
BRANCH   5   7
ATOM      6  O   UNL     1       2.411   3.953  21.814  0.00  0.00    +0.000 OA
ATOM      7  S   UNL     1       1.352   3.057  21.267  0.00  0.00    +0.000 S 
BRANCH   7   8
ATOM      8  O   UNL     1       0.461   3.938  20.271  0.00  0.00    +0.000 OA
ATOM      9  H   UNL     1       0.915   3.949  19.389  0.00  0.00    +0.000 HD
ENDBRANCH   7   8
ENDBRANCH   5   7
ENDBRANCH   4   5
ENDBRANCH   3   4
ENDBRANCH   2   3
ENDBRANCH   1   2
BRANCH   1  10
ATOM     10  S   UNL     1       4.136   6.903  17.570  0.00  0.00    +0.000 S 
BRANCH  10  11
ATOM     11  C   UNL     1       5.087   6.408  16.098  0.00  0.00    +0.000 C 
BRANCH  11  12
ATOM     12  C   UNL     1       6.497   5.914  16.462  0.00  0.00    +0.000 C 
BRANCH  12  13
ATOM     13  C   UNL     1       7.216   6.671  17.584  0.00  0.00    +0.000 C 
BRANCH  13  14
ATOM     14  S   UNL     1       7.801   5.527  18.853  0.00  0.00    +0.000 S 
ATOM     15  O   UNL     1       6.778   5.398  19.936  0.00  0.00    +0.000 OA
BRANCH  14  16
ATOM     16  O   UNL     1       7.699   4.220  17.931  0.00  0.00    +0.000 OA
ATOM     17  H   UNL     1       7.454   4.495  17.012  0.00  0.00    +0.000 HD
ENDBRANCH  14  16
ENDBRANCH  13  14
ENDBRANCH  12  13
ENDBRANCH  11  12
ENDBRANCH  10  11
ENDBRANCH   1  10
TORSDOF 12
ENDMDL
MODEL 5
REMARK VINA RESULT:      -4.5      2.610      3.043
REMARK  Name = 
REMARK  12 active torsions:
REMARK  status: ('A' for Active; 'I' for Inactive)
REMARK    1  A    between atoms: S_2  and  O_3
REMARK    2  A    between atoms: S_2  and  C_4
REMARK    3  A    between atoms: C_4  and  C_5
REMARK    4  A    between atoms: C_5  and  C_6
REMARK    5  A    between atoms: C_6  and  S_7
REMARK    6  A    between atoms: S_7  and  S_8
REMARK    7  A    between atoms: S_8  and  S_9
REMARK    8  A    between atoms: S_9  and  C_10
REMARK    9  A    between atoms: C_10  and  C_11
REMARK   10  A    between atoms: C_11  and  C_12
REMARK   11  A    between atoms: C_12  and  S_13
REMARK   12  A    between atoms: S_13  and  O_15
REMARK                            x       y       z     vdW  Elec       q    Type
REMARK                         _______ _______ _______ _____ _____    ______ ____
ROOT
ATOM      1  S   UNL     1       2.515   7.294  19.148  0.00  0.00    +0.000 S 
ENDROOT
BRANCH   1   2
ATOM      2  S   UNL     1       1.588   6.161  20.583  0.00  0.00    +0.000 S 
BRANCH   2   3
ATOM      3  C   UNL     1       2.481   4.575  20.515  0.00  0.00    +0.000 C 
BRANCH   3   4
ATOM      4  C   UNL     1       1.607   3.446  19.953  0.00  0.00    +0.000 C 
BRANCH   4   5
ATOM      5  C   UNL     1       2.307   2.137  19.579  0.00  0.00    +0.000 C 
BRANCH   5   7
ATOM      6  O   UNL     1       2.080   3.215  17.090  0.00  0.00    +0.000 OA
ATOM      7  S   UNL     1       2.714   2.080  17.822  0.00  0.00    +0.000 S 
BRANCH   7   8
ATOM      8  O   UNL     1       4.262   2.442  17.997  0.00  0.00    +0.000 OA
ATOM      9  H   UNL     1       4.319   3.340  18.414  0.00  0.00    +0.000 HD
ENDBRANCH   7   8
ENDBRANCH   5   7
ENDBRANCH   4   5
ENDBRANCH   3   4
ENDBRANCH   2   3
ENDBRANCH   1   2
BRANCH   1  10
ATOM     10  S   UNL     1       3.733   6.006  18.118  0.00  0.00    +0.000 S 
BRANCH  10  11
ATOM     11  C   UNL     1       4.833   7.115  17.180  0.00  0.00    +0.000 C 
BRANCH  11  12
ATOM     12  C   UNL     1       5.171   6.551  15.790  0.00  0.00    +0.000 C 
BRANCH  12  13
ATOM     13  C   UNL     1       5.078   5.029  15.632  0.00  0.00    +0.000 C 
BRANCH  13  14
ATOM     14  S   UNL     1       6.725   4.295  15.547  0.00  0.00    +0.000 S 
ATOM     15  O   UNL     1       7.731   5.336  15.176  0.00  0.00    +0.000 OA
BRANCH  14  16
ATOM     16  O   UNL     1       6.852   4.036  17.124  0.00  0.00    +0.000 OA
ATOM     17  H   UNL     1       6.086   4.464  17.582  0.00  0.00    +0.000 HD
ENDBRANCH  14  16
ENDBRANCH  13  14
ENDBRANCH  12  13
ENDBRANCH  11  12
ENDBRANCH  10  11
ENDBRANCH   1  10
TORSDOF 12
ENDMDL
MODEL 6
REMARK VINA RESULT:      -4.4      2.474      6.449
REMARK  Name = 
REMARK  12 active torsions:
REMARK  status: ('A' for Active; 'I' for Inactive)
REMARK    1  A    between atoms: S_2  and  O_3
REMARK    2  A    between atoms: S_2  and  C_4
REMARK    3  A    between atoms: C_4  and  C_5
REMARK    4  A    between atoms: C_5  and  C_6
REMARK    5  A    between atoms: C_6  and  S_7
REMARK    6  A    between atoms: S_7  and  S_8
REMARK    7  A    between atoms: S_8  and  S_9
REMARK    8  A    between atoms: S_9  and  C_10
REMARK    9  A    between atoms: C_10  and  C_11
REMARK   10  A    between atoms: C_11  and  C_12
REMARK   11  A    between atoms: C_12  and  S_13
REMARK   12  A    between atoms: S_13  and  O_15
REMARK                            x       y       z     vdW  Elec       q    Type
REMARK                         _______ _______ _______ _____ _____    ______ ____
ROOT
ATOM      1  S   UNL     1       4.543   6.572  16.726  0.00  0.00    +0.000 S 
ENDROOT
BRANCH   1   2
ATOM      2  S   UNL     1       4.580   4.524  16.631  0.00  0.00    +0.000 S 
BRANCH   2   3
ATOM      3  C   UNL     1       6.178   4.165  15.835  0.00  0.00    +0.000 C 
BRANCH   3   4
ATOM      4  C   UNL     1       7.328   4.958  16.470  0.00  0.00    +0.000 C 
BRANCH   4   5
ATOM      5  C   UNL     1       7.798   4.521  17.859  0.00  0.00    +0.000 C 
BRANCH   5   7
ATOM      6  O   UNL     1       7.843   5.313  20.463  0.00  0.00    +0.000 OA
ATOM      7  S   UNL     1       7.289   5.694  19.132  0.00  0.00    +0.000 S 
BRANCH   7   8
ATOM      8  O   UNL     1       8.167   6.918  18.593  0.00  0.00    +0.000 OA
ATOM      9  H   UNL     1       8.957   6.542  18.126  0.00  0.00    +0.000 HD
ENDBRANCH   7   8
ENDBRANCH   5   7
ENDBRANCH   4   5
ENDBRANCH   3   4
ENDBRANCH   2   3
ENDBRANCH   1   2
BRANCH   1  10
ATOM     10  S   UNL     1       3.054   7.043  18.055  0.00  0.00    +0.000 S 
BRANCH  10  11
ATOM     11  C   UNL     1       3.343   5.902  19.445  0.00  0.00    +0.000 C 
BRANCH  11  12
ATOM     12  C   UNL     1       2.331   4.744  19.461  0.00  0.00    +0.000 C 
BRANCH  12  13
ATOM     13  C   UNL     1       1.545   4.546  20.761  0.00  0.00    +0.000 C 
BRANCH  13  14
ATOM     14  S   UNL     1       1.374   2.789  21.141  0.00  0.00    +0.000 S 
ATOM     15  O   UNL     1       1.582   1.975  19.904  0.00  0.00    +0.000 OA
BRANCH  14  16
ATOM     16  O   UNL     1       2.714   2.696  22.015  0.00  0.00    +0.000 OA
ATOM     17  H   UNL     1       3.495   2.694  21.405  0.00  0.00    +0.000 HD
ENDBRANCH  14  16
ENDBRANCH  13  14
ENDBRANCH  12  13
ENDBRANCH  11  12
ENDBRANCH  10  11
ENDBRANCH   1  10
TORSDOF 12
ENDMDL
MODEL 7
REMARK VINA RESULT:      -4.4      2.898      5.693
REMARK  Name = 
REMARK  12 active torsions:
REMARK  status: ('A' for Active; 'I' for Inactive)
REMARK    1  A    between atoms: S_2  and  O_3
REMARK    2  A    between atoms: S_2  and  C_4
REMARK    3  A    between atoms: C_4  and  C_5
REMARK    4  A    between atoms: C_5  and  C_6
REMARK    5  A    between atoms: C_6  and  S_7
REMARK    6  A    between atoms: S_7  and  S_8
REMARK    7  A    between atoms: S_8  and  S_9
REMARK    8  A    between atoms: S_9  and  C_10
REMARK    9  A    between atoms: C_10  and  C_11
REMARK   10  A    between atoms: C_11  and  C_12
REMARK   11  A    between atoms: C_12  and  S_13
REMARK   12  A    between atoms: S_13  and  O_15
REMARK                            x       y       z     vdW  Elec       q    Type
REMARK                         _______ _______ _______ _____ _____    ______ ____
ROOT
ATOM      1  S   UNL     1       2.973   5.636  17.960  0.00  0.00    +0.000 S 
ENDROOT
BRANCH   1   2
ATOM      2  S   UNL     1       4.376   6.935  17.221  0.00  0.00    +0.000 S 
BRANCH   2   3
ATOM      3  C   UNL     1       5.401   5.883  16.143  0.00  0.00    +0.000 C 
BRANCH   3   4
ATOM      4  C   UNL     1       5.904   4.630  16.872  0.00  0.00    +0.000 C 
BRANCH   4   5
ATOM      5  C   UNL     1       7.400   4.557  17.190  0.00  0.00    +0.000 C 
BRANCH   5   7
ATOM      6  O   UNL     1       7.858   6.874  18.543  0.00  0.00    +0.000 OA
ATOM      7  S   UNL     1       7.791   5.397  18.738  0.00  0.00    +0.000 S 
BRANCH   7   8
ATOM      8  O   UNL     1       6.397   5.081  19.458  0.00  0.00    +0.000 OA
ATOM      9  H   UNL     1       6.248   5.778  20.147  0.00  0.00    +0.000 HD
ENDBRANCH   7   8
ENDBRANCH   5   7
ENDBRANCH   4   5
ENDBRANCH   3   4
ENDBRANCH   2   3
ENDBRANCH   1   2
BRANCH   1  10
ATOM     10  S   UNL     1       2.422   6.388  19.787  0.00  0.00    +0.000 S 
BRANCH  10  11
ATOM     11  C   UNL     1       1.813   4.925  20.686  0.00  0.00    +0.000 C 
BRANCH  11  12
ATOM     12  C   UNL     1       2.815   3.760  20.639  0.00  0.00    +0.000 C 
BRANCH  12  13
ATOM     13  C   UNL     1       2.334   2.476  19.954  0.00  0.00    +0.000 C 
BRANCH  13  14
ATOM     14  S   UNL     1       3.666   1.730  18.990  0.00  0.00    +0.000 S 
ATOM     15  O   UNL     1       3.510   2.080  17.546  0.00  0.00    +0.000 OA
BRANCH  14  16
ATOM     16  O   UNL     1       4.823   2.660  19.593  0.00  0.00    +0.000 OA
ATOM     17  H   UNL     1       4.489   3.590  19.652  0.00  0.00    +0.000 HD
ENDBRANCH  14  16
ENDBRANCH  13  14
ENDBRANCH  12  13
ENDBRANCH  11  12
ENDBRANCH  10  11
ENDBRANCH   1  10
TORSDOF 12
ENDMDL
MODEL 8
REMARK VINA RESULT:      -4.4      2.812      3.677
REMARK  Name = 
REMARK  12 active torsions:
REMARK  status: ('A' for Active; 'I' for Inactive)
REMARK    1  A    between atoms: S_2  and  O_3
REMARK    2  A    between atoms: S_2  and  C_4
REMARK    3  A    between atoms: C_4  and  C_5
REMARK    4  A    between atoms: C_5  and  C_6
REMARK    5  A    between atoms: C_6  and  S_7
REMARK    6  A    between atoms: S_7  and  S_8
REMARK    7  A    between atoms: S_8  and  S_9
REMARK    8  A    between atoms: S_9  and  C_10
REMARK    9  A    between atoms: C_10  and  C_11
REMARK   10  A    between atoms: C_11  and  C_12
REMARK   11  A    between atoms: C_12  and  S_13
REMARK   12  A    between atoms: S_13  and  O_15
REMARK                            x       y       z     vdW  Elec       q    Type
REMARK                         _______ _______ _______ _____ _____    ______ ____
ROOT
ATOM      1  S   UNL     1       4.802   3.795  17.277  0.00  0.00    +0.000 S 
ENDROOT
BRANCH   1   2
ATOM      2  S   UNL     1       2.861   3.147  17.157  0.00  0.00    +0.000 S 
BRANCH   2   3
ATOM      3  C   UNL     1       2.736   1.926  18.503  0.00  0.00    +0.000 C 
BRANCH   3   4
ATOM      4  C   UNL     1       1.592   2.252  19.472  0.00  0.00    +0.000 C 
BRANCH   4   5
ATOM      5  C   UNL     1       1.181   3.721  19.602  0.00  0.00    +0.000 C 
BRANCH   5   7
ATOM      6  O   UNL     1       2.316   3.435  22.059  0.00  0.00    +0.000 OA
ATOM      7  S   UNL     1       1.876   4.476  21.086  0.00  0.00    +0.000 S 
BRANCH   7   8
ATOM      8  O   UNL     1       3.195   5.047  20.383  0.00  0.00    +0.000 OA
ATOM      9  H   UNL     1       2.921   5.489  19.538  0.00  0.00    +0.000 HD
ENDBRANCH   7   8
ENDBRANCH   5   7
ENDBRANCH   4   5
ENDBRANCH   3   4
ENDBRANCH   2   3
ENDBRANCH   1   2
BRANCH   1  10
ATOM     10  S   UNL     1       5.304   4.414  15.388  0.00  0.00    +0.000 S 
BRANCH  10  11
ATOM     11  C   UNL     1       5.242   6.231  15.502  0.00  0.00    +0.000 C 
BRANCH  11  12
ATOM     12  C   UNL     1       5.689   6.737  16.884  0.00  0.00    +0.000 C 
BRANCH  12  13
ATOM     13  C   UNL     1       7.195   6.713  17.164  0.00  0.00    +0.000 C 
BRANCH  13  14
ATOM     14  S   UNL     1       7.530   6.018  18.796  0.00  0.00    +0.000 S 
ATOM     15  O   UNL     1       8.231   4.705  18.660  0.00  0.00    +0.000 OA
BRANCH  14  16
ATOM     16  O   UNL     1       8.627   7.115  19.201  0.00  0.00    +0.000 OA
ATOM     17  H   UNL     1       8.716   7.129  20.187  0.00  0.00    +0.000 HD
ENDBRANCH  14  16
ENDBRANCH  13  14
ENDBRANCH  12  13
ENDBRANCH  11  12
ENDBRANCH  10  11
ENDBRANCH   1  10
TORSDOF 12
ENDMDL
MODEL 9
REMARK VINA RESULT:      -4.4      2.839      3.209
REMARK  Name = 
REMARK  12 active torsions:
REMARK  status: ('A' for Active; 'I' for Inactive)
REMARK    1  A    between atoms: S_2  and  O_3
REMARK    2  A    between atoms: S_2  and  C_4
REMARK    3  A    between atoms: C_4  and  C_5
REMARK    4  A    between atoms: C_5  and  C_6
REMARK    5  A    between atoms: C_6  and  S_7
REMARK    6  A    between atoms: S_7  and  S_8
REMARK    7  A    between atoms: S_8  and  S_9
REMARK    8  A    between atoms: S_9  and  C_10
REMARK    9  A    between atoms: C_10  and  C_11
REMARK   10  A    between atoms: C_11  and  C_12
REMARK   11  A    between atoms: C_12  and  S_13
REMARK   12  A    between atoms: S_13  and  O_15
REMARK                            x       y       z     vdW  Elec       q    Type
REMARK                         _______ _______ _______ _____ _____    ______ ____
ROOT
ATOM      1  S   UNL     1       4.049   4.817  18.468  0.00  0.00    +0.000 S 
ENDROOT
BRANCH   1   2
ATOM      2  S   UNL     1       3.001   3.522  17.274  0.00  0.00    +0.000 S 
BRANCH   2   3
ATOM      3  C   UNL     1       1.266   3.830  17.733  0.00  0.00    +0.000 C 
BRANCH   3   4
ATOM      4  C   UNL     1       0.745   2.796  18.740  0.00  0.00    +0.000 C 
BRANCH   4   5
ATOM      5  C   UNL     1       1.775   2.129  19.655  0.00  0.00    +0.000 C 
BRANCH   5   7
ATOM      6  O   UNL     1       2.859   2.505  22.123  0.00  0.00    +0.000 OA
ATOM      7  S   UNL     1       1.582   2.659  21.369  0.00  0.00    +0.000 S 
BRANCH   7   8
ATOM      8  O   UNL     1       1.413   4.217  21.046  0.00  0.00    +0.000 OA
ATOM      9  H   UNL     1       1.791   4.381  20.143  0.00  0.00    +0.000 HD
ENDBRANCH   7   8
ENDBRANCH   5   7
ENDBRANCH   4   5
ENDBRANCH   3   4
ENDBRANCH   2   3
ENDBRANCH   1   2
BRANCH   1  10
ATOM     10  S   UNL     1       4.578   6.388  17.261  0.00  0.00    +0.000 S 
BRANCH  10  11
ATOM     11  C   UNL     1       5.586   5.608  15.960  0.00  0.00    +0.000 C 
BRANCH  11  12
ATOM     12  C   UNL     1       7.069   5.513  16.358  0.00  0.00    +0.000 C 
BRANCH  12  13
ATOM     13  C   UNL     1       7.387   4.679  17.603  0.00  0.00    +0.000 C 
BRANCH  13  14
ATOM     14  S   UNL     1       8.121   5.710  18.891  0.00  0.00    +0.000 S 
ATOM     15  O   UNL     1       8.030   7.151  18.506  0.00  0.00    +0.000 OA
BRANCH  14  16
ATOM     16  O   UNL     1       6.978   5.425  19.978  0.00  0.00    +0.000 OA
ATOM     17  H   UNL     1       6.512   6.274  20.183  0.00  0.00    +0.000 HD
ENDBRANCH  14  16
ENDBRANCH  13  14
ENDBRANCH  12  13
ENDBRANCH  11  12
ENDBRANCH  10  11
ENDBRANCH   1  10
TORSDOF 12
ENDMDL
