MODEL 1
REMARK VINA RESULT:      -7.0      0.000      0.000
REMARK  Name = 
REMARK  6 active torsions:
REMARK  status: ('A' for Active; 'I' for Inactive)
REMARK    1  A    between atoms: C_1  and  O_2
REMARK    2  A    between atoms: O_2  and  C_3
REMARK    3  A    between atoms: C_7  and  O_8
REMARK    4  A    between atoms: O_8  and  C_9
REMARK    5  A    between atoms: C_19  and  O_20
REMARK    6  A    between atoms: O_20  and  C_21
REMARK                            x       y       z     vdW  Elec       q    Type
REMARK                         _______ _______ _______ _____ _____    ______ ____
ROOT
ATOM      1  C   UNL     1       0.523  10.590  21.137  0.00  0.00    +0.000 A 
ATOM      2  C   UNL     1       0.917   9.238  21.115  0.00  0.00    +0.000 A 
ATOM      3  C   UNL     1       1.490   8.652  19.959  0.00  0.00    +0.000 A 
ATOM      4  C   UNL     1       2.046   7.347  19.911  0.00  0.00    +0.000 A 
ATOM      5  C   UNL     1       2.679   6.889  18.750  0.00  0.00    +0.000 A 
ATOM      6  C   UNL     1       2.633   7.740  17.654  0.00  0.00    +0.000 A 
ATOM      7  N   UNL     1       2.082   8.972  17.649  0.00  0.00    +0.000 NA
ATOM      8  C   UNL     1       1.556   9.425  18.793  0.00  0.00    +0.000 A 
ATOM      9  C   UNL     1       1.087  10.721  18.800  0.00  0.00    +0.000 A 
ATOM     10  C   UNL     1       0.587  11.334  19.952  0.00  0.00    +0.000 A 
ENDROOT
BRANCH   1  12
ATOM     11  C   UNL     1      -0.886  10.442  23.041  0.00  0.00    +0.000 C 
ATOM     12  O   UNL     1       0.057  11.191  22.275  0.00  0.00    +0.000 OA
ENDBRANCH   1  12
BRANCH  10  13
ATOM     13  O   UNL     1       0.247  12.639  19.711  0.00  0.00    +0.000 OA
ATOM     14  C   UNL     1      -0.518  12.981  18.570  0.00  0.00    +0.000 C 
ENDBRANCH  10  13
BRANCH   5  15
ATOM     15  O   UNL     1       3.304   5.663  18.785  0.00  0.00    +0.000 OA
BRANCH  15  16
ATOM     16  C   UNL     1       3.012   4.761  17.694  0.00  0.00    +0.000 C 
ATOM     17  C   UNL     1       3.984   3.575  17.681  0.00  0.00    +0.000 C 
ATOM     18  C   UNL     1       3.732   2.579  18.809  0.00  0.00    +0.000 C 
ATOM     19  C   UNL     1       2.284   2.106  18.879  0.00  0.00    +0.000 C 
ATOM     20  C   UNL     1       1.265   3.239  18.823  0.00  0.00    +0.000 C 
ATOM     21  C   UNL     1       1.560   4.270  17.741  0.00  0.00    +0.000 C 
ENDBRANCH  15  16
ENDBRANCH   5  15
TORSDOF 4
ENDMDL
MODEL 2
REMARK VINA RESULT:      -6.9      2.131      3.539
REMARK  Name = 
REMARK  6 active torsions:
REMARK  status: ('A' for Active; 'I' for Inactive)
REMARK    1  A    between atoms: C_1  and  O_2
REMARK    2  A    between atoms: O_2  and  C_3
REMARK    3  A    between atoms: C_7  and  O_8
REMARK    4  A    between atoms: O_8  and  C_9
REMARK    5  A    between atoms: C_19  and  O_20
REMARK    6  A    between atoms: O_20  and  C_21
REMARK                            x       y       z     vdW  Elec       q    Type
REMARK                         _______ _______ _______ _____ _____    ______ ____
ROOT
ATOM      1  C   UNL     1       0.553  10.530  19.072  0.00  0.00    +0.000 A 
ATOM      2  C   UNL     1       1.458   9.869  18.218  0.00  0.00    +0.000 A 
ATOM      3  C   UNL     1       2.021   8.615  18.564  0.00  0.00    +0.000 A 
ATOM      4  C   UNL     1       2.816   7.824  17.694  0.00  0.00    +0.000 A 
ATOM      5  C   UNL     1       3.247   6.553  18.089  0.00  0.00    +0.000 A 
ATOM      6  C   UNL     1       2.937   6.180  19.389  0.00  0.00    +0.000 A 
ATOM      7  N   UNL     1       2.215   6.919  20.258  0.00  0.00    +0.000 NA
ATOM      8  C   UNL     1       1.740   8.095  19.833  0.00  0.00    +0.000 A 
ATOM      9  C   UNL     1       0.922   8.793  20.697  0.00  0.00    +0.000 A 
ATOM     10  C   UNL     1       0.303   9.994  20.341  0.00  0.00    +0.000 A 
ENDROOT
BRANCH   1  12
ATOM     11  C   UNL     1      -1.383  11.563  18.165  0.00  0.00    +0.000 C 
ATOM     12  O   UNL     1      -0.069  11.694  18.707  0.00  0.00    +0.000 OA
ENDBRANCH   1  12
BRANCH  10  13
ATOM     13  O   UNL     1      -0.505  10.451  21.348  0.00  0.00    +0.000 OA
ATOM     14  C   UNL     1      -0.400   9.912  22.652  0.00  0.00    +0.000 C 
ENDBRANCH  10  13
BRANCH   5  15
ATOM     15  O   UNL     1       3.918   5.775  17.172  0.00  0.00    +0.000 OA
BRANCH  15  16
ATOM     16  C   UNL     1       5.049   6.388  16.514  0.00  0.00    +0.000 C 
ATOM     17  C   UNL     1       6.195   6.638  17.501  0.00  0.00    +0.000 C 
ATOM     18  C   UNL     1       6.909   5.360  17.932  0.00  0.00    +0.000 C 
ATOM     19  C   UNL     1       7.370   4.506  16.755  0.00  0.00    +0.000 C 
ATOM     20  C   UNL     1       6.292   4.282  15.700  0.00  0.00    +0.000 C 
ATOM     21  C   UNL     1       5.533   5.548  15.325  0.00  0.00    +0.000 C 
ENDBRANCH  15  16
ENDBRANCH   5  15
TORSDOF 4
ENDMDL
MODEL 3
REMARK VINA RESULT:      -6.8      0.952      1.447
REMARK  Name = 
REMARK  6 active torsions:
REMARK  status: ('A' for Active; 'I' for Inactive)
REMARK    1  A    between atoms: C_1  and  O_2
REMARK    2  A    between atoms: O_2  and  C_3
REMARK    3  A    between atoms: C_7  and  O_8
REMARK    4  A    between atoms: O_8  and  C_9
REMARK    5  A    between atoms: C_19  and  O_20
REMARK    6  A    between atoms: O_20  and  C_21
REMARK                            x       y       z     vdW  Elec       q    Type
REMARK                         _______ _______ _______ _____ _____    ______ ____
ROOT
ATOM      1  C   UNL     1       0.410  10.216  21.851  0.00  0.00    +0.000 A 
ATOM      2  C   UNL     1       0.784   8.859  21.776  0.00  0.00    +0.000 A 
ATOM      3  C   UNL     1       1.340   8.309  20.595  0.00  0.00    +0.000 A 
ATOM      4  C   UNL     1       1.877   6.998  20.495  0.00  0.00    +0.000 A 
ATOM      5  C   UNL     1       2.496   6.575  19.314  0.00  0.00    +0.000 A 
ATOM      6  C   UNL     1       2.456   7.467  18.250  0.00  0.00    +0.000 A 
ATOM      7  N   UNL     1       1.924   8.706  18.296  0.00  0.00    +0.000 NA
ATOM      8  C   UNL     1       1.412   9.124  19.459  0.00  0.00    +0.000 A 
ATOM      9  C   UNL     1       0.962  10.426  19.517  0.00  0.00    +0.000 A 
ATOM     10  C   UNL     1       0.477  11.002  20.695  0.00  0.00    +0.000 A 
ENDROOT
BRANCH   1  12
ATOM     11  C   UNL     1      -1.449  10.987  23.109  0.00  0.00    +0.000 C 
ATOM     12  O   UNL     1      -0.040  10.780  23.014  0.00  0.00    +0.000 OA
ENDBRANCH   1  12
BRANCH  10  13
ATOM     13  O   UNL     1       0.155  12.320  20.504  0.00  0.00    +0.000 OA
ATOM     14  C   UNL     1      -0.771  12.693  19.502  0.00  0.00    +0.000 C 
ENDBRANCH  10  13
BRANCH   5  15
ATOM     15  O   UNL     1       3.103   5.339  19.299  0.00  0.00    +0.000 OA
BRANCH  15  16
ATOM     16  C   UNL     1       2.260   4.206  19.606  0.00  0.00    +0.000 C 
ATOM     17  C   UNL     1       1.569   3.672  18.346  0.00  0.00    +0.000 C 
ATOM     18  C   UNL     1       2.518   2.940  17.403  0.00  0.00    +0.000 C 
ATOM     19  C   UNL     1       3.325   1.846  18.096  0.00  0.00    +0.000 C 
ATOM     20  C   UNL     1       3.979   2.297  19.397  0.00  0.00    +0.000 C 
ATOM     21  C   UNL     1       3.048   3.090  20.304  0.00  0.00    +0.000 C 
ENDBRANCH  15  16
ENDBRANCH   5  15
TORSDOF 4
ENDMDL
MODEL 4
REMARK VINA RESULT:      -6.7      5.127      7.920
REMARK  Name = 
REMARK  6 active torsions:
REMARK  status: ('A' for Active; 'I' for Inactive)
REMARK    1  A    between atoms: C_1  and  O_2
REMARK    2  A    between atoms: O_2  and  C_3
REMARK    3  A    between atoms: C_7  and  O_8
REMARK    4  A    between atoms: O_8  and  C_9
REMARK    5  A    between atoms: C_19  and  O_20
REMARK    6  A    between atoms: O_20  and  C_21
REMARK                            x       y       z     vdW  Elec       q    Type
REMARK                         _______ _______ _______ _____ _____    ______ ____
ROOT
ATOM      1  C   UNL     1       6.345   4.036  13.928  0.00  0.00    +0.000 A 
ATOM      2  C   UNL     1       5.275   3.628  14.749  0.00  0.00    +0.000 A 
ATOM      3  C   UNL     1       5.013   4.257  15.991  0.00  0.00    +0.000 A 
ATOM      4  C   UNL     1       3.870   4.004  16.795  0.00  0.00    +0.000 A 
ATOM      5  C   UNL     1       3.646   4.747  17.959  0.00  0.00    +0.000 A 
ATOM      6  C   UNL     1       4.642   5.647  18.312  0.00  0.00    +0.000 A 
ATOM      7  N   UNL     1       5.759   5.889  17.594  0.00  0.00    +0.000 NA
ATOM      8  C   UNL     1       5.915   5.230  16.439  0.00  0.00    +0.000 A 
ATOM      9  C   UNL     1       7.009   5.560  15.669  0.00  0.00    +0.000 A 
ATOM     10  C   UNL     1       7.239   4.999  14.410  0.00  0.00    +0.000 A 
ENDROOT
BRANCH   1  12
ATOM     11  C   UNL     1       5.379   3.182  11.935  0.00  0.00    +0.000 C 
ATOM     12  O   UNL     1       6.551   3.499  12.686  0.00  0.00    +0.000 OA
ENDBRANCH   1  12
BRANCH  10  13
ATOM     13  O   UNL     1       8.354   5.539  13.824  0.00  0.00    +0.000 OA
ATOM     14  C   UNL     1       8.323   5.955  12.473  0.00  0.00    +0.000 C 
ENDBRANCH  10  13
BRANCH   5  15
ATOM     15  O   UNL     1       2.469   4.547  18.646  0.00  0.00    +0.000 OA
BRANCH  15  16
ATOM     16  C   UNL     1       2.034   3.177  18.791  0.00  0.00    +0.000 C 
ATOM     17  C   UNL     1       3.174   2.283  19.291  0.00  0.00    +0.000 C 
ATOM     18  C   UNL     1       3.523   2.516  20.758  0.00  0.00    +0.000 C 
ATOM     19  C   UNL     1       2.311   2.435  21.681  0.00  0.00    +0.000 C 
ATOM     20  C   UNL     1       1.116   3.248  21.198  0.00  0.00    +0.000 C 
ATOM     21  C   UNL     1       0.815   3.067  19.716  0.00  0.00    +0.000 C 
ENDBRANCH  15  16
ENDBRANCH   5  15
TORSDOF 4
ENDMDL
MODEL 5
REMARK VINA RESULT:      -6.7      4.859      8.109
REMARK  Name = 
REMARK  6 active torsions:
REMARK  status: ('A' for Active; 'I' for Inactive)
REMARK    1  A    between atoms: C_1  and  O_2
REMARK    2  A    between atoms: O_2  and  C_3
REMARK    3  A    between atoms: C_7  and  O_8
REMARK    4  A    between atoms: O_8  and  C_9
REMARK    5  A    between atoms: C_19  and  O_20
REMARK    6  A    between atoms: O_20  and  C_21
REMARK                            x       y       z     vdW  Elec       q    Type
REMARK                         _______ _______ _______ _____ _____    ______ ____
ROOT
ATOM      1  C   UNL     1       6.384   3.943  13.699  0.00  0.00    +0.000 A 
ATOM      2  C   UNL     1       5.621   3.508  14.801  0.00  0.00    +0.000 A 
ATOM      3  C   UNL     1       5.700   4.156  16.059  0.00  0.00    +0.000 A 
ATOM      4  C   UNL     1       4.855   3.871  17.164  0.00  0.00    +0.000 A 
ATOM      5  C   UNL     1       4.942   4.631  18.335  0.00  0.00    +0.000 A 
ATOM      6  C   UNL     1       5.950   5.585  18.371  0.00  0.00    +0.000 A 
ATOM      7  N   UNL     1       6.795   5.860  17.356  0.00  0.00    +0.000 NA
ATOM      8  C   UNL     1       6.642   5.180  16.213  0.00  0.00    +0.000 A 
ATOM      9  C   UNL     1       7.446   5.541  15.154  0.00  0.00    +0.000 A 
ATOM     10  C   UNL     1       7.329   4.959  13.888  0.00  0.00    +0.000 A 
ENDROOT
BRANCH   1  12
ATOM     11  C   UNL     1       4.915   3.290  11.953  0.00  0.00    +0.000 C 
ATOM     12  O   UNL     1       6.246   3.386  12.457  0.00  0.00    +0.000 OA
ENDBRANCH   1  12
BRANCH  10  13
ATOM     13  O   UNL     1       8.196   5.535  12.997  0.00  0.00    +0.000 OA
ATOM     14  C   UNL     1       7.722   6.049  11.767  0.00  0.00    +0.000 C 
ENDBRANCH  10  13
BRANCH   5  15
ATOM     15  O   UNL     1       4.028   4.395  19.337  0.00  0.00    +0.000 OA
BRANCH  15  16
ATOM     16  C   UNL     1       2.774   5.107  19.245  0.00  0.00    +0.000 C 
ATOM     17  C   UNL     1       1.915   4.569  18.095  0.00  0.00    +0.000 C 
ATOM     18  C   UNL     1       1.319   3.193  18.381  0.00  0.00    +0.000 C 
ATOM     19  C   UNL     1       0.569   3.130  19.707  0.00  0.00    +0.000 C 
ATOM     20  C   UNL     1       1.346   3.718  20.880  0.00  0.00    +0.000 C 
ATOM     21  C   UNL     1       1.999   5.058  20.568  0.00  0.00    +0.000 C 
ENDBRANCH  15  16
ENDBRANCH   5  15
TORSDOF 4
ENDMDL
MODEL 6
REMARK VINA RESULT:      -6.6      2.229      7.759
REMARK  Name = 
REMARK  6 active torsions:
REMARK  status: ('A' for Active; 'I' for Inactive)
REMARK    1  A    between atoms: C_1  and  O_2
REMARK    2  A    between atoms: O_2  and  C_3
REMARK    3  A    between atoms: C_7  and  O_8
REMARK    4  A    between atoms: O_8  and  C_9
REMARK    5  A    between atoms: C_19  and  O_20
REMARK    6  A    between atoms: O_20  and  C_21
REMARK                            x       y       z     vdW  Elec       q    Type
REMARK                         _______ _______ _______ _____ _____    ______ ____
ROOT
ATOM      1  C   UNL     1       4.890   4.979  17.652  0.00  0.00    +0.000 A 
ATOM      2  C   UNL     1       4.201   6.131  17.224  0.00  0.00    +0.000 A 
ATOM      3  C   UNL     1       3.299   6.814  18.076  0.00  0.00    +0.000 A 
ATOM      4  C   UNL     1       2.689   8.059  17.769  0.00  0.00    +0.000 A 
ATOM      5  C   UNL     1       1.888   8.708  18.715  0.00  0.00    +0.000 A 
ATOM      6  C   UNL     1       1.659   8.017  19.898  0.00  0.00    +0.000 A 
ATOM      7  N   UNL     1       2.191   6.817  20.212  0.00  0.00    +0.000 NA
ATOM      8  C   UNL     1       3.022   6.252  19.328  0.00  0.00    +0.000 A 
ATOM      9  C   UNL     1       3.635   5.075  19.704  0.00  0.00    +0.000 A 
ATOM     10  C   UNL     1       4.580   4.430  18.902  0.00  0.00    +0.000 A 
ENDROOT
BRANCH   1  12
ATOM     11  C   UNL     1       7.147   4.918  16.921  0.00  0.00    +0.000 C 
ATOM     12  O   UNL     1       5.832   4.366  16.871  0.00  0.00    +0.000 OA
ENDBRANCH   1  12
BRANCH  10  13
ATOM     13  O   UNL     1       5.085   3.320  19.528  0.00  0.00    +0.000 OA
ATOM     14  C   UNL     1       4.215   2.320  20.022  0.00  0.00    +0.000 C 
ENDBRANCH  10  13
BRANCH   5  15
ATOM     15  O   UNL     1       1.411   9.964  18.418  0.00  0.00    +0.000 OA
BRANCH  15  16
ATOM     16  C   UNL     1       0.768  10.679  19.496  0.00  0.00    +0.000 C 
ATOM     17  C   UNL     1       1.335  12.097  19.637  0.00  0.00    +0.000 C 
ATOM     18  C   UNL     1       0.899  13.034  18.514  0.00  0.00    +0.000 C 
ATOM     19  C   UNL     1      -0.613  13.062  18.311  0.00  0.00    +0.000 C 
ATOM     20  C   UNL     1      -1.247  11.677  18.236  0.00  0.00    +0.000 C 
ATOM     21  C   UNL     1      -0.755  10.722  19.315  0.00  0.00    +0.000 C 
ENDBRANCH  15  16
ENDBRANCH   5  15
TORSDOF 4
ENDMDL
MODEL 7
REMARK VINA RESULT:      -6.6      1.889      3.464
REMARK  Name = 
REMARK  6 active torsions:
REMARK  status: ('A' for Active; 'I' for Inactive)
REMARK    1  A    between atoms: C_1  and  O_2
REMARK    2  A    between atoms: O_2  and  C_3
REMARK    3  A    between atoms: C_7  and  O_8
REMARK    4  A    between atoms: O_8  and  C_9
REMARK    5  A    between atoms: C_19  and  O_20
REMARK    6  A    between atoms: O_20  and  C_21
REMARK                            x       y       z     vdW  Elec       q    Type
REMARK                         _______ _______ _______ _____ _____    ______ ____
ROOT
ATOM      1  C   UNL     1       0.483  10.572  19.347  0.00  0.00    +0.000 A 
ATOM      2  C   UNL     1       1.391   9.947  18.469  0.00  0.00    +0.000 A 
ATOM      3  C   UNL     1       1.945   8.675  18.759  0.00  0.00    +0.000 A 
ATOM      4  C   UNL     1       2.742   7.922  17.857  0.00  0.00    +0.000 A 
ATOM      5  C   UNL     1       3.162   6.631  18.193  0.00  0.00    +0.000 A 
ATOM      6  C   UNL     1       2.839   6.197  19.472  0.00  0.00    +0.000 A 
ATOM      7  N   UNL     1       2.115   6.897  20.370  0.00  0.00    +0.000 NA
ATOM      8  C   UNL     1       1.650   8.096  19.999  0.00  0.00    +0.000 A 
ATOM      9  C   UNL     1       0.830   8.756  20.889  0.00  0.00    +0.000 A 
ATOM     10  C   UNL     1       0.220   9.977  20.587  0.00  0.00    +0.000 A 
ENDROOT
BRANCH   1  12
ATOM     11  C   UNL     1       0.634  12.940  19.267  0.00  0.00    +0.000 C 
ATOM     12  O   UNL     1      -0.128  11.756  19.035  0.00  0.00    +0.000 OA
ENDBRANCH   1  12
BRANCH  10  13
ATOM     13  O   UNL     1      -0.593  10.390  21.609  0.00  0.00    +0.000 OA
ATOM     14  C   UNL     1      -0.543   9.748  22.868  0.00  0.00    +0.000 C 
ENDBRANCH  10  13
BRANCH   5  15
ATOM     15  O   UNL     1       3.835   5.894  17.245  0.00  0.00    +0.000 OA
BRANCH  15  16
ATOM     16  C   UNL     1       4.795   4.933  17.739  0.00  0.00    +0.000 C 
ATOM     17  C   UNL     1       4.918   3.735  16.791  0.00  0.00    +0.000 C 
ATOM     18  C   UNL     1       5.649   4.067  15.493  0.00  0.00    +0.000 C 
ATOM     19  C   UNL     1       7.003   4.732  15.722  0.00  0.00    +0.000 C 
ATOM     20  C   UNL     1       6.958   5.888  16.714  0.00  0.00    +0.000 C 
ATOM     21  C   UNL     1       6.166   5.577  17.978  0.00  0.00    +0.000 C 
ENDBRANCH  15  16
ENDBRANCH   5  15
TORSDOF 4
ENDMDL
MODEL 8
REMARK VINA RESULT:      -6.5      5.654      8.199
REMARK  Name = 
REMARK  6 active torsions:
REMARK  status: ('A' for Active; 'I' for Inactive)
REMARK    1  A    between atoms: C_1  and  O_2
REMARK    2  A    between atoms: O_2  and  C_3
REMARK    3  A    between atoms: C_7  and  O_8
REMARK    4  A    between atoms: O_8  and  C_9
REMARK    5  A    between atoms: C_19  and  O_20
REMARK    6  A    between atoms: O_20  and  C_21
REMARK                            x       y       z     vdW  Elec       q    Type
REMARK                         _______ _______ _______ _____ _____    ______ ____
ROOT
ATOM      1  C   UNL     1       6.328   3.976  13.417  0.00  0.00    +0.000 A 
ATOM      2  C   UNL     1       5.482   3.528  14.451  0.00  0.00    +0.000 A 
ATOM      3  C   UNL     1       5.509   4.119  15.739  0.00  0.00    +0.000 A 
ATOM      4  C   UNL     1       4.587   3.825  16.777  0.00  0.00    +0.000 A 
ATOM      5  C   UNL     1       4.630   4.532  17.984  0.00  0.00    +0.000 A 
ATOM      6  C   UNL     1       5.671   5.440  18.122  0.00  0.00    +0.000 A 
ATOM      7  N   UNL     1       6.588   5.721  17.173  0.00  0.00    +0.000 NA
ATOM      8  C   UNL     1       6.479   5.096  15.995  0.00  0.00    +0.000 A 
ATOM      9  C   UNL     1       7.361   5.466  15.002  0.00  0.00    +0.000 A 
ATOM     10  C   UNL     1       7.299   4.942  13.708  0.00  0.00    +0.000 A 
ENDROOT
BRANCH   1  12
ATOM     11  C   UNL     1       4.941   3.121  11.692  0.00  0.00    +0.000 C 
ATOM     12  O   UNL     1       6.246   3.476  12.146  0.00  0.00    +0.000 OA
ENDBRANCH   1  12
BRANCH  10  13
ATOM     13  O   UNL     1       8.242   5.517  12.896  0.00  0.00    +0.000 OA
ATOM     14  C   UNL     1       7.859   6.151  11.691  0.00  0.00    +0.000 C 
ENDBRANCH  10  13
BRANCH   5  15
ATOM     15  O   UNL     1       3.647   4.293  18.918  0.00  0.00    +0.000 OA
BRANCH  15  16
ATOM     16  C   UNL     1       3.286   2.911  19.132  0.00  0.00    +0.000 C 
ATOM     17  C   UNL     1       3.560   2.484  20.579  0.00  0.00    +0.000 C 
ATOM     18  C   UNL     1       2.577   3.084  21.580  0.00  0.00    +0.000 C 
ATOM     19  C   UNL     1       1.118   2.847  21.201  0.00  0.00    +0.000 C 
ATOM     20  C   UNL     1       0.799   3.186  19.749  0.00  0.00    +0.000 C 
ATOM     21  C   UNL     1       1.822   2.646  18.759  0.00  0.00    +0.000 C 
ENDBRANCH  15  16
ENDBRANCH   5  15
TORSDOF 4
ENDMDL
MODEL 9
REMARK VINA RESULT:      -6.5      5.235      7.284
REMARK  Name = 
REMARK  6 active torsions:
REMARK  status: ('A' for Active; 'I' for Inactive)
REMARK    1  A    between atoms: C_1  and  O_2
REMARK    2  A    between atoms: O_2  and  C_3
REMARK    3  A    between atoms: C_7  and  O_8
REMARK    4  A    between atoms: O_8  and  C_9
REMARK    5  A    between atoms: C_19  and  O_20
REMARK    6  A    between atoms: O_20  and  C_21
REMARK                            x       y       z     vdW  Elec       q    Type
REMARK                         _______ _______ _______ _____ _____    ______ ____
ROOT
ATOM      1  C   UNL     1       6.361   5.275  15.472  0.00  0.00    +0.000 A 
ATOM      2  C   UNL     1       5.468   4.211  15.707  0.00  0.00    +0.000 A 
ATOM      3  C   UNL     1       5.112   3.820  17.021  0.00  0.00    +0.000 A 
ATOM      4  C   UNL     1       4.108   2.864  17.331  0.00  0.00    +0.000 A 
ATOM      5  C   UNL     1       3.755   2.614  18.662  0.00  0.00    +0.000 A 
ATOM      6  C   UNL     1       4.506   3.273  19.626  0.00  0.00    +0.000 A 
ATOM      7  N   UNL     1       5.491   4.159  19.372  0.00  0.00    +0.000 NA
ATOM      8  C   UNL     1       5.756   4.449  18.093  0.00  0.00    +0.000 A 
ATOM      9  C   UNL     1       6.695   5.429  17.851  0.00  0.00    +0.000 A 
ATOM     10  C   UNL     1       7.003   5.874  16.562  0.00  0.00    +0.000 A 
ENDROOT
BRANCH   1  12
ATOM     11  C   UNL     1       7.233   4.773  13.322  0.00  0.00    +0.000 C 
ATOM     12  O   UNL     1       6.640   5.721  14.208  0.00  0.00    +0.000 OA
ENDBRANCH   1  12
BRANCH  10  13
ATOM     13  O   UNL     1       7.917   6.894  16.597  0.00  0.00    +0.000 OA
ATOM     14  C   UNL     1       7.784   7.943  17.537  0.00  0.00    +0.000 C 
ENDBRANCH  10  13
BRANCH   5  15
ATOM     15  O   UNL     1       2.700   1.765  18.911  0.00  0.00    +0.000 OA
BRANCH  15  16
ATOM     16  C   UNL     1       1.377   2.331  18.784  0.00  0.00    +0.000 C 
ATOM     17  C   UNL     1       0.660   2.374  20.139  0.00  0.00    +0.000 C 
ATOM     18  C   UNL     1       1.220   3.435  21.081  0.00  0.00    +0.000 C 
ATOM     19  C   UNL     1       1.288   4.822  20.448  0.00  0.00    +0.000 C 
ATOM     20  C   UNL     1       1.927   4.833  19.064  0.00  0.00    +0.000 C 
ATOM     21  C   UNL     1       1.418   3.727  18.149  0.00  0.00    +0.000 C 
ENDBRANCH  15  16
ENDBRANCH   5  15
TORSDOF 4
ENDMDL
