MODEL 1
REMARK VINA RESULT:      -6.3      0.000      0.000
REMARK  Name = 
REMARK  10 active torsions:
REMARK  status: ('A' for Active; 'I' for Inactive)
REMARK    1  A    between atoms: O_1  and  C_2
REMARK    2  A    between atoms: C_2  and  C_3
REMARK    3  A    between atoms: C_3  and  C_4
REMARK    4  A    between atoms: C_4  and  O_5
REMARK    5  A    between atoms: O_5  and  C_6
REMARK    6  A    between atoms: C_17  and  O_18
REMARK    7  A    between atoms: O_18  and  C_19
REMARK    8  A    between atoms: C_19  and  C_20
REMARK    9  A    between atoms: C_20  and  C_21
REMARK   10  A    between atoms: C_21  and  O_22
REMARK                            x       y       z     vdW  Elec       q    Type
REMARK                         _______ _______ _______ _____ _____    ______ ____
ROOT
ATOM      1  C   UNL     1      -2.435  11.484  17.447  0.00  0.00    +0.000 A 
ATOM      2  N   UNL     1      -3.686  11.559  17.904  0.00  0.00    +0.000 NA
ATOM      3  C   UNL     1      -3.862  12.072  19.145  0.00  0.00    +0.000 A 
ATOM      4  N   UNL     1      -5.173  12.143  19.622  0.00  0.00    +0.000 N 
ATOM      5  C   UNL     1      -5.623  13.231  20.492  0.00  0.00    +0.000 C 
ATOM      6  C   UNL     1      -6.406  12.608  21.643  0.00  0.00    +0.000 C 
ATOM      7  C   UNL     1      -7.605  11.838  21.090  0.00  0.00    +0.000 C 
ATOM      8  C   UNL     1      -7.186  10.834  20.009  0.00  0.00    +0.000 C 
ATOM      9  C   UNL     1      -6.260  11.443  18.944  0.00  0.00    +0.000 C 
ATOM     10  C   UNL     1      -2.770  12.474  19.950  0.00  0.00    +0.000 A 
ATOM     11  N   UNL     1      -2.921  12.868  21.236  0.00  0.00    +0.000 NA
ATOM     12  C   UNL     1      -1.857  13.300  21.887  0.00  0.00    +0.000 A 
ATOM     13  N   UNL     1      -0.630  13.338  21.393  0.00  0.00    +0.000 NA
ATOM     14  C   UNL     1      -0.457  12.890  20.129  0.00  0.00    +0.000 A 
ATOM     15  N   UNL     1       0.857  12.910  19.679  0.00  0.00    +0.000 N 
ATOM     16  C   UNL     1       1.935  12.706  20.640  0.00  0.00    +0.000 C 
ATOM     17  C   UNL     1       2.816  13.946  20.718  0.00  0.00    +0.000 C 
ATOM     18  C   UNL     1       3.314  14.340  19.330  0.00  0.00    +0.000 C 
ATOM     19  C   UNL     1       2.144  14.533  18.368  0.00  0.00    +0.000 C 
ATOM     20  C   UNL     1       1.217  13.312  18.324  0.00  0.00    +0.000 C 
ATOM     21  C   UNL     1      -1.524  12.417  19.334  0.00  0.00    +0.000 A 
ATOM     22  N   UNL     1      -1.352  11.902  18.092  0.00  0.00    +0.000 NA
ENDROOT
BRANCH   1  23
ATOM     23  O   UNL     1      -2.161  10.860  16.251  0.00  0.00    +0.000 OA
BRANCH  23  24
ATOM     24  C   UNL     1      -3.198  10.996  15.279  0.00  0.00    +0.000 C 
BRANCH  24  25
ATOM     25  C   UNL     1      -3.199   9.718  14.438  0.00  0.00    +0.000 C 
BRANCH  25  26
ATOM     26  C   UNL     1      -3.914   9.905  13.110  0.00  0.00    +0.000 C 
BRANCH  26  27
ATOM     27  O   UNL     1      -3.042   9.564  12.043  0.00  0.00    +0.000 OA
ATOM     28  H   UNL     1      -3.176  10.223  11.339  0.00  0.00    +0.000 HD
ENDBRANCH  26  27
ENDBRANCH  25  26
ENDBRANCH  24  25
ENDBRANCH  23  24
ENDBRANCH   1  23
BRANCH  12  29
ATOM     29  O   UNL     1      -2.095  13.712  23.177  0.00  0.00    +0.000 OA
BRANCH  29  30
ATOM     30  C   UNL     1      -3.391  14.283  23.337  0.00  0.00    +0.000 C 
BRANCH  30  31
ATOM     31  C   UNL     1      -3.848  14.057  24.773  0.00  0.00    +0.000 C 
BRANCH  31  32
ATOM     32  C   UNL     1      -4.325  12.626  24.994  0.00  0.00    +0.000 C 
BRANCH  32  33
ATOM     33  O   UNL     1      -3.930  11.811  23.897  0.00  0.00    +0.000 OA
ATOM     34  H   UNL     1      -3.497  12.384  23.243  0.00  0.00    +0.000 HD
ENDBRANCH  32  33
ENDBRANCH  31  32
ENDBRANCH  30  31
ENDBRANCH  29  30
ENDBRANCH  12  29
TORSDOF 10
ENDMDL
MODEL 2
REMARK VINA RESULT:      -6.2      6.746      9.356
REMARK  Name = 
REMARK  10 active torsions:
REMARK  status: ('A' for Active; 'I' for Inactive)
REMARK    1  A    between atoms: O_1  and  C_2
REMARK    2  A    between atoms: C_2  and  C_3
REMARK    3  A    between atoms: C_3  and  C_4
REMARK    4  A    between atoms: C_4  and  O_5
REMARK    5  A    between atoms: O_5  and  C_6
REMARK    6  A    between atoms: C_17  and  O_18
REMARK    7  A    between atoms: O_18  and  C_19
REMARK    8  A    between atoms: C_19  and  C_20
REMARK    9  A    between atoms: C_20  and  C_21
REMARK   10  A    between atoms: C_21  and  O_22
REMARK                            x       y       z     vdW  Elec       q    Type
REMARK                         _______ _______ _______ _____ _____    ______ ____
ROOT
ATOM      1  C   UNL     1       2.155   5.079  20.673  0.00  0.00    +0.000 A 
ATOM      2  N   UNL     1       3.098   4.886  19.750  0.00  0.00    +0.000 NA
ATOM      3  C   UNL     1       3.367   5.916  18.913  0.00  0.00    +0.000 A 
ATOM      4  N   UNL     1       4.351   5.707  17.945  0.00  0.00    +0.000 N 
ATOM      5  C   UNL     1       5.243   6.780  17.500  0.00  0.00    +0.000 C 
ATOM      6  C   UNL     1       5.290   6.741  15.977  0.00  0.00    +0.000 C 
ATOM      7  C   UNL     1       5.819   5.383  15.515  0.00  0.00    +0.000 C 
ATOM      8  C   UNL     1       5.035   4.224  16.141  0.00  0.00    +0.000 C 
ATOM      9  C   UNL     1       4.857   4.367  17.662  0.00  0.00    +0.000 C 
ATOM     10  C   UNL     1       2.654   7.136  18.977  0.00  0.00    +0.000 A 
ATOM     11  N   UNL     1       2.823   8.126  18.069  0.00  0.00    +0.000 NA
ATOM     12  C   UNL     1       2.173   9.261  18.251  0.00  0.00    +0.000 A 
ATOM     13  N   UNL     1       1.324   9.497  19.238  0.00  0.00    +0.000 NA
ATOM     14  C   UNL     1       1.102   8.494  20.118  0.00  0.00    +0.000 A 
ATOM     15  N   UNL     1       0.168   8.783  21.104  0.00  0.00    +0.000 N 
ATOM     16  C   UNL     1      -0.933   9.687  20.792  0.00  0.00    +0.000 C 
ATOM     17  C   UNL     1      -0.857  10.935  21.663  0.00  0.00    +0.000 C 
ATOM     18  C   UNL     1      -0.791  10.556  23.140  0.00  0.00    +0.000 C 
ATOM     19  C   UNL     1       0.374   9.605  23.405  0.00  0.00    +0.000 C 
ATOM     20  C   UNL     1       0.340   8.372  22.493  0.00  0.00    +0.000 C 
ATOM     21  C   UNL     1       1.749   7.243  20.029  0.00  0.00    +0.000 A 
ATOM     22  N   UNL     1       1.483   6.209  20.863  0.00  0.00    +0.000 NA
ENDROOT
BRANCH   1  23
ATOM     23  O   UNL     1       1.735   4.042  21.476  0.00  0.00    +0.000 OA
BRANCH  23  24
ATOM     24  C   UNL     1       1.675   2.783  20.806  0.00  0.00    +0.000 C 
BRANCH  24  25
ATOM     25  C   UNL     1       0.628   2.909  19.699  0.00  0.00    +0.000 C 
BRANCH  25  26
ATOM     26  C   UNL     1       0.971   2.063  18.485  0.00  0.00    +0.000 C 
BRANCH  26  27
ATOM     27  O   UNL     1       2.381   1.949  18.362  0.00  0.00    +0.000 OA
ATOM     28  H   UNL     1       2.580   1.012  18.192  0.00  0.00    +0.000 HD
ENDBRANCH  26  27
ENDBRANCH  25  26
ENDBRANCH  24  25
ENDBRANCH  23  24
ENDBRANCH   1  23
BRANCH  12  29
ATOM     29  O   UNL     1       2.421  10.228  17.306  0.00  0.00    +0.000 OA
BRANCH  29  30
ATOM     30  C   UNL     1       1.794  11.469  17.618  0.00  0.00    +0.000 C 
BRANCH  30  31
ATOM     31  C   UNL     1       2.878  12.496  17.924  0.00  0.00    +0.000 C 
BRANCH  31  32
ATOM     32  C   UNL     1       2.588  13.253  19.214  0.00  0.00    +0.000 C 
BRANCH  32  33
ATOM     33  O   UNL     1       1.695  12.500  20.026  0.00  0.00    +0.000 OA
ATOM     34  H   UNL     1       2.017  12.545  20.942  0.00  0.00    +0.000 HD
ENDBRANCH  32  33
ENDBRANCH  31  32
ENDBRANCH  30  31
ENDBRANCH  29  30
ENDBRANCH  12  29
TORSDOF 10
ENDMDL
MODEL 3
REMARK VINA RESULT:      -6.2      1.746      2.409
REMARK  Name = 
REMARK  10 active torsions:
REMARK  status: ('A' for Active; 'I' for Inactive)
REMARK    1  A    between atoms: O_1  and  C_2
REMARK    2  A    between atoms: C_2  and  C_3
REMARK    3  A    between atoms: C_3  and  C_4
REMARK    4  A    between atoms: C_4  and  O_5
REMARK    5  A    between atoms: O_5  and  C_6
REMARK    6  A    between atoms: C_17  and  O_18
REMARK    7  A    between atoms: O_18  and  C_19
REMARK    8  A    between atoms: C_19  and  C_20
REMARK    9  A    between atoms: C_20  and  C_21
REMARK   10  A    between atoms: C_21  and  O_22
REMARK                            x       y       z     vdW  Elec       q    Type
REMARK                         _______ _______ _______ _____ _____    ______ ____
ROOT
ATOM      1  C   UNL     1      -3.950  11.795  18.849  0.00  0.00    +0.000 A 
ATOM      2  N   UNL     1      -5.006  12.118  19.596  0.00  0.00    +0.000 NA
ATOM      3  C   UNL     1      -4.762  12.687  20.801  0.00  0.00    +0.000 A 
ATOM      4  N   UNL     1      -5.870  13.018  21.583  0.00  0.00    +0.000 N 
ATOM      5  C   UNL     1      -5.880  14.195  22.455  0.00  0.00    +0.000 C 
ATOM      6  C   UNL     1      -6.437  13.761  23.807  0.00  0.00    +0.000 C 
ATOM      7  C   UNL     1      -7.855  13.219  23.628  0.00  0.00    +0.000 C 
ATOM      8  C   UNL     1      -7.915  12.127  22.554  0.00  0.00    +0.000 C 
ATOM      9  C   UNL     1      -7.202  12.521  21.250  0.00  0.00    +0.000 C 
ATOM     10  C   UNL     1      -3.446  12.894  21.277  0.00  0.00    +0.000 A 
ATOM     11  N   UNL     1      -3.186  13.342  22.528  0.00  0.00    +0.000 NA
ATOM     12  C   UNL     1      -1.931  13.579  22.860  0.00  0.00    +0.000 A 
ATOM     13  N   UNL     1      -0.887  13.370  22.074  0.00  0.00    +0.000 NA
ATOM     14  C   UNL     1      -1.129  12.866  20.843  0.00  0.00    +0.000 A 
ATOM     15  N   UNL     1       0.006  12.624  20.081  0.00  0.00    +0.000 N 
ATOM     16  C   UNL     1       1.241  12.242  20.755  0.00  0.00    +0.000 C 
ATOM     17  C   UNL     1       2.319  13.294  20.520  0.00  0.00    +0.000 C 
ATOM     18  C   UNL     1       2.504  13.550  19.027  0.00  0.00    +0.000 C 
ATOM     19  C   UNL     1       1.178  13.938  18.375  0.00  0.00    +0.000 C 
ATOM     20  C   UNL     1       0.070  12.916  18.653  0.00  0.00    +0.000 C 
ATOM     21  C   UNL     1      -2.431  12.585  20.376  0.00  0.00    +0.000 A 
ATOM     22  N   UNL     1      -2.681  12.015  19.172  0.00  0.00    +0.000 NA
ENDROOT
BRANCH   1  23
ATOM     23  O   UNL     1      -4.110  11.100  17.671  0.00  0.00    +0.000 OA
BRANCH  23  24
ATOM     24  C   UNL     1      -3.503   9.808  17.677  0.00  0.00    +0.000 C 
BRANCH  24  25
ATOM     25  C   UNL     1      -2.900   9.585  16.289  0.00  0.00    +0.000 C 
BRANCH  25  26
ATOM     26  C   UNL     1      -2.893  10.856  15.456  0.00  0.00    +0.000 C 
BRANCH  26  27
ATOM     27  O   UNL     1      -2.056  11.826  16.068  0.00  0.00    +0.000 OA
ATOM     28  H   UNL     1      -2.600  12.309  16.714  0.00  0.00    +0.000 HD
ENDBRANCH  26  27
ENDBRANCH  25  26
ENDBRANCH  24  25
ENDBRANCH  23  24
ENDBRANCH   1  23
BRANCH  12  29
ATOM     29  O   UNL     1      -1.751  14.062  24.135  0.00  0.00    +0.000 OA
BRANCH  29  30
ATOM     30  C   UNL     1      -2.916  14.706  24.644  0.00  0.00    +0.000 C 
BRANCH  30  31
ATOM     31  C   UNL     1      -2.483  15.898  25.488  0.00  0.00    +0.000 C 
BRANCH  31  32
ATOM     32  C   UNL     1      -0.990  15.862  25.791  0.00  0.00    +0.000 C 
BRANCH  32  33
ATOM     33  O   UNL     1      -0.784  15.724  27.192  0.00  0.00    +0.000 OA
ATOM     34  H   UNL     1      -0.337  14.874  27.343  0.00  0.00    +0.000 HD
ENDBRANCH  32  33
ENDBRANCH  31  32
ENDBRANCH  30  31
ENDBRANCH  29  30
ENDBRANCH  12  29
TORSDOF 10
ENDMDL
MODEL 4
REMARK VINA RESULT:      -6.1      2.183      6.634
REMARK  Name = 
REMARK  10 active torsions:
REMARK  status: ('A' for Active; 'I' for Inactive)
REMARK    1  A    between atoms: O_1  and  C_2
REMARK    2  A    between atoms: C_2  and  C_3
REMARK    3  A    between atoms: C_3  and  C_4
REMARK    4  A    between atoms: C_4  and  O_5
REMARK    5  A    between atoms: O_5  and  C_6
REMARK    6  A    between atoms: C_17  and  O_18
REMARK    7  A    between atoms: O_18  and  C_19
REMARK    8  A    between atoms: C_19  and  C_20
REMARK    9  A    between atoms: C_20  and  C_21
REMARK   10  A    between atoms: C_21  and  O_22
REMARK                            x       y       z     vdW  Elec       q    Type
REMARK                         _______ _______ _______ _____ _____    ______ ____
ROOT
ATOM      1  C   UNL     1      -3.986  13.643  22.108  0.00  0.00    +0.000 A 
ATOM      2  N   UNL     1      -4.934  13.802  21.183  0.00  0.00    +0.000 NA
ATOM      3  C   UNL     1      -4.745  13.186  19.991  0.00  0.00    +0.000 A 
ATOM      4  N   UNL     1      -5.737  13.359  19.024  0.00  0.00    +0.000 N 
ATOM      5  C   UNL     1      -6.086  12.301  18.074  0.00  0.00    +0.000 C 
ATOM      6  C   UNL     1      -6.168  12.933  16.688  0.00  0.00    +0.000 C 
ATOM      7  C   UNL     1      -7.236  14.026  16.685  0.00  0.00    +0.000 C 
ATOM      8  C   UNL     1      -7.019  15.037  17.816  0.00  0.00    +0.000 C 
ATOM      9  C   UNL     1      -6.774  14.374  19.182  0.00  0.00    +0.000 C 
ATOM     10  C   UNL     1      -3.576  12.440  19.712  0.00  0.00    +0.000 A 
ATOM     11  N   UNL     1      -3.315  11.927  18.487  0.00  0.00    +0.000 NA
ATOM     12  C   UNL     1      -2.238  11.179  18.337  0.00  0.00    +0.000 A 
ATOM     13  N   UNL     1      -1.356  10.923  19.289  0.00  0.00    +0.000 NA
ATOM     14  C   UNL     1      -1.574  11.479  20.502  0.00  0.00    +0.000 A 
ATOM     15  N   UNL     1      -0.592  11.214  21.448  0.00  0.00    +0.000 N 
ATOM     16  C   UNL     1       0.786  11.036  21.006  0.00  0.00    +0.000 C 
ATOM     17  C   UNL     1       1.266   9.625  21.326  0.00  0.00    +0.000 C 
ATOM     18  C   UNL     1       1.065   9.312  22.806  0.00  0.00    +0.000 C 
ATOM     19  C   UNL     1      -0.392   9.523  23.212  0.00  0.00    +0.000 C 
ATOM     20  C   UNL     1      -0.905  10.920  22.843  0.00  0.00    +0.000 C 
ATOM     21  C   UNL     1      -2.698  12.287  20.781  0.00  0.00    +0.000 A 
ATOM     22  N   UNL     1      -2.891  12.905  21.971  0.00  0.00    +0.000 NA
ENDROOT
BRANCH   1  23
ATOM     23  O   UNL     1      -4.041  14.338  23.296  0.00  0.00    +0.000 OA
BRANCH  23  24
ATOM     24  C   UNL     1      -5.350  14.407  23.863  0.00  0.00    +0.000 C 
BRANCH  24  25
ATOM     25  C   UNL     1      -5.792  12.971  24.152  0.00  0.00    +0.000 C 
BRANCH  25  26
ATOM     26  C   UNL     1      -7.269  12.756  23.863  0.00  0.00    +0.000 C 
BRANCH  26  27
ATOM     27  O   UNL     1      -7.573  11.371  23.926  0.00  0.00    +0.000 OA
ATOM     28  H   UNL     1      -8.542  11.286  23.880  0.00  0.00    +0.000 HD
ENDBRANCH  26  27
ENDBRANCH  25  26
ENDBRANCH  24  25
ENDBRANCH  23  24
ENDBRANCH   1  23
BRANCH  12  29
ATOM     29  O   UNL     1      -2.059  10.668  17.073  0.00  0.00    +0.000 OA
BRANCH  29  30
ATOM     30  C   UNL     1      -3.242  10.742  16.282  0.00  0.00    +0.000 C 
BRANCH  30  31
ATOM     31  C   UNL     1      -2.877  10.445  14.833  0.00  0.00    +0.000 C 
BRANCH  31  32
ATOM     32  C   UNL     1      -4.066   9.901  14.052  0.00  0.00    +0.000 C 
BRANCH  32  33
ATOM     33  O   UNL     1      -3.821  10.018  12.655  0.00  0.00    +0.000 OA
ATOM     34  H   UNL     1      -4.154  10.885  12.367  0.00  0.00    +0.000 HD
ENDBRANCH  32  33
ENDBRANCH  31  32
ENDBRANCH  30  31
ENDBRANCH  29  30
ENDBRANCH  12  29
TORSDOF 10
ENDMDL
MODEL 5
REMARK VINA RESULT:      -5.9      2.061      6.707
REMARK  Name = 
REMARK  10 active torsions:
REMARK  status: ('A' for Active; 'I' for Inactive)
REMARK    1  A    between atoms: O_1  and  C_2
REMARK    2  A    between atoms: C_2  and  C_3
REMARK    3  A    between atoms: C_3  and  C_4
REMARK    4  A    between atoms: C_4  and  O_5
REMARK    5  A    between atoms: O_5  and  C_6
REMARK    6  A    between atoms: C_17  and  O_18
REMARK    7  A    between atoms: O_18  and  C_19
REMARK    8  A    between atoms: C_19  and  C_20
REMARK    9  A    between atoms: C_20  and  C_21
REMARK   10  A    between atoms: C_21  and  O_22
REMARK                            x       y       z     vdW  Elec       q    Type
REMARK                         _______ _______ _______ _____ _____    ______ ____
ROOT
ATOM      1  C   UNL     1      -4.375  13.253  22.599  0.00  0.00    +0.000 A 
ATOM      2  N   UNL     1      -5.336  13.478  21.702  0.00  0.00    +0.000 NA
ATOM      3  C   UNL     1      -5.086  13.109  20.422  0.00  0.00    +0.000 A 
ATOM      4  N   UNL     1      -6.093  13.352  19.486  0.00  0.00    +0.000 N 
ATOM      5  C   UNL     1      -6.333  12.452  18.355  0.00  0.00    +0.000 C 
ATOM      6  C   UNL     1      -6.482  13.312  17.104  0.00  0.00    +0.000 C 
ATOM      7  C   UNL     1      -7.658  14.272  17.279  0.00  0.00    +0.000 C 
ATOM      8  C   UNL     1      -7.544  15.080  18.578  0.00  0.00    +0.000 C 
ATOM      9  C   UNL     1      -7.229  14.210  19.806  0.00  0.00    +0.000 C 
ATOM     10  C   UNL     1      -3.847  12.550  20.034  0.00  0.00    +0.000 A 
ATOM     11  N   UNL     1      -3.537  12.296  18.741  0.00  0.00    +0.000 NA
ATOM     12  C   UNL     1      -2.388  11.701  18.477  0.00  0.00    +0.000 A 
ATOM     13  N   UNL     1      -1.482  11.368  19.383  0.00  0.00    +0.000 NA
ATOM     14  C   UNL     1      -1.754  11.672  20.672  0.00  0.00    +0.000 A 
ATOM     15  N   UNL     1      -0.749  11.342  21.571  0.00  0.00    +0.000 N 
ATOM     16  C   UNL     1       0.639  11.389  21.127  0.00  0.00    +0.000 C 
ATOM     17  C   UNL     1       1.264  10.000  21.197  0.00  0.00    +0.000 C 
ATOM     18  C   UNL     1       1.099   9.406  22.593  0.00  0.00    +0.000 C 
ATOM     19  C   UNL     1      -0.371   9.390  23.005  0.00  0.00    +0.000 C 
ATOM     20  C   UNL     1      -1.026  10.771  22.885  0.00  0.00    +0.000 C 
ATOM     21  C   UNL     1      -2.955  12.297  21.072  0.00  0.00    +0.000 A 
ATOM     22  N   UNL     1      -3.209  12.667  22.351  0.00  0.00    +0.000 NA
ENDROOT
BRANCH   1  23
ATOM     23  O   UNL     1      -4.499  13.713  23.892  0.00  0.00    +0.000 OA
BRANCH  23  24
ATOM     24  C   UNL     1      -3.983  15.029  24.088  0.00  0.00    +0.000 C 
BRANCH  24  25
ATOM     25  C   UNL     1      -2.986  14.955  25.245  0.00  0.00    +0.000 C 
BRANCH  25  26
ATOM     26  C   UNL     1      -1.545  15.005  24.766  0.00  0.00    +0.000 C 
BRANCH  26  27
ATOM     27  O   UNL     1      -1.501  14.835  23.357  0.00  0.00    +0.000 OA
ATOM     28  H   UNL     1      -0.971  15.566  22.995  0.00  0.00    +0.000 HD
ENDBRANCH  26  27
ENDBRANCH  25  26
ENDBRANCH  24  25
ENDBRANCH  23  24
ENDBRANCH   1  23
BRANCH  12  29
ATOM     29  O   UNL     1      -2.160  11.448  17.145  0.00  0.00    +0.000 OA
BRANCH  29  30
ATOM     30  C   UNL     1      -2.795  10.253  16.700  0.00  0.00    +0.000 C 
BRANCH  30  31
ATOM     31  C   UNL     1      -3.601  10.569  15.446  0.00  0.00    +0.000 C 
BRANCH  31  32
ATOM     32  C   UNL     1      -3.052   9.843  14.225  0.00  0.00    +0.000 C 
BRANCH  32  33
ATOM     33  O   UNL     1      -3.651  10.363  13.044  0.00  0.00    +0.000 OA
ATOM     34  H   UNL     1      -3.017  10.977  12.636  0.00  0.00    +0.000 HD
ENDBRANCH  32  33
ENDBRANCH  31  32
ENDBRANCH  30  31
ENDBRANCH  29  30
ENDBRANCH  12  29
TORSDOF 10
ENDMDL
MODEL 6
REMARK VINA RESULT:      -5.9      2.377      7.047
REMARK  Name = 
REMARK  10 active torsions:
REMARK  status: ('A' for Active; 'I' for Inactive)
REMARK    1  A    between atoms: O_1  and  C_2
REMARK    2  A    between atoms: C_2  and  C_3
REMARK    3  A    between atoms: C_3  and  C_4
REMARK    4  A    between atoms: C_4  and  O_5
REMARK    5  A    between atoms: O_5  and  C_6
REMARK    6  A    between atoms: C_17  and  O_18
REMARK    7  A    between atoms: O_18  and  C_19
REMARK    8  A    between atoms: C_19  and  C_20
REMARK    9  A    between atoms: C_20  and  C_21
REMARK   10  A    between atoms: C_21  and  O_22
REMARK                            x       y       z     vdW  Elec       q    Type
REMARK                         _______ _______ _______ _____ _____    ______ ____
ROOT
ATOM      1  C   UNL     1      -1.606  12.911  21.330  0.00  0.00    +0.000 A 
ATOM      2  N   UNL     1      -2.876  13.239  21.088  0.00  0.00    +0.000 NA
ATOM      3  C   UNL     1      -3.480  12.640  20.034  0.00  0.00    +0.000 A 
ATOM      4  N   UNL     1      -4.807  12.991  19.781  0.00  0.00    +0.000 N 
ATOM      5  C   UNL     1      -5.777  12.027  19.254  0.00  0.00    +0.000 C 
ATOM      6  C   UNL     1      -6.533  12.707  18.118  0.00  0.00    +0.000 C 
ATOM      7  C   UNL     1      -7.250  13.948  18.650  0.00  0.00    +0.000 C 
ATOM      8  C   UNL     1      -6.293  14.880  19.403  0.00  0.00    +0.000 C 
ATOM      9  C   UNL     1      -5.419  14.145  20.432  0.00  0.00    +0.000 C 
ATOM     10  C   UNL     1      -2.790  11.736  19.192  0.00  0.00    +0.000 A 
ATOM     11  N   UNL     1      -3.341  11.229  18.064  0.00  0.00    +0.000 NA
ATOM     12  C   UNL     1      -2.653  10.332  17.381  0.00  0.00    +0.000 A 
ATOM     13  N   UNL     1      -1.435   9.916  17.688  0.00  0.00    +0.000 NA
ATOM     14  C   UNL     1      -0.852  10.461  18.780  0.00  0.00    +0.000 A 
ATOM     15  N   UNL     1       0.442  10.021  19.027  0.00  0.00    +0.000 N 
ATOM     16  C   UNL     1       1.290   9.652  17.899  0.00  0.00    +0.000 C 
ATOM     17  C   UNL     1       1.662   8.176  17.977  0.00  0.00    +0.000 C 
ATOM     18  C   UNL     1       2.286   7.850  19.331  0.00  0.00    +0.000 C 
ATOM     19  C   UNL     1       1.358   8.264  20.471  0.00  0.00    +0.000 C 
ATOM     20  C   UNL     1       0.931   9.734  20.371  0.00  0.00    +0.000 C 
ATOM     21  C   UNL     1      -1.496  11.419  19.592  0.00  0.00    +0.000 A 
ATOM     22  N   UNL     1      -0.895  12.022  20.647  0.00  0.00    +0.000 NA
ENDROOT
BRANCH   1  23
ATOM     23  O   UNL     1      -0.884  13.569  22.302  0.00  0.00    +0.000 OA
BRANCH  23  24
ATOM     24  C   UNL     1      -1.638  13.867  23.477  0.00  0.00    +0.000 C 
BRANCH  24  25
ATOM     25  C   UNL     1      -1.087  15.176  24.046  0.00  0.00    +0.000 C 
BRANCH  25  26
ATOM     26  C   UNL     1      -1.454  15.365  25.509  0.00  0.00    +0.000 C 
BRANCH  26  27
ATOM     27  O   UNL     1      -0.307  15.768  26.244  0.00  0.00    +0.000 OA
ATOM     28  H   UNL     1       0.456  15.702  25.644  0.00  0.00    +0.000 HD
ENDBRANCH  26  27
ENDBRANCH  25  26
ENDBRANCH  24  25
ENDBRANCH  23  24
ENDBRANCH   1  23
BRANCH  12  29
ATOM     29  O   UNL     1      -3.291   9.840  16.266  0.00  0.00    +0.000 OA
BRANCH  29  30
ATOM     30  C   UNL     1      -3.101  10.665  15.120  0.00  0.00    +0.000 C 
BRANCH  30  31
ATOM     31  C   UNL     1      -2.864   9.769  13.911  0.00  0.00    +0.000 C 
BRANCH  31  32
ATOM     32  C   UNL     1      -3.929   9.974  12.840  0.00  0.00    +0.000 C 
BRANCH  32  33
ATOM     33  O   UNL     1      -5.184   9.498  13.311  0.00  0.00    +0.000 OA
ATOM     34  H   UNL     1      -5.550  10.170  13.910  0.00  0.00    +0.000 HD
ENDBRANCH  32  33
ENDBRANCH  31  32
ENDBRANCH  30  31
ENDBRANCH  29  30
ENDBRANCH  12  29
TORSDOF 10
ENDMDL
MODEL 7
REMARK VINA RESULT:      -5.8      6.944      9.655
REMARK  Name = 
REMARK  10 active torsions:
REMARK  status: ('A' for Active; 'I' for Inactive)
REMARK    1  A    between atoms: O_1  and  C_2
REMARK    2  A    between atoms: C_2  and  C_3
REMARK    3  A    between atoms: C_3  and  C_4
REMARK    4  A    between atoms: C_4  and  O_5
REMARK    5  A    between atoms: O_5  and  C_6
REMARK    6  A    between atoms: C_17  and  O_18
REMARK    7  A    between atoms: O_18  and  C_19
REMARK    8  A    between atoms: C_19  and  C_20
REMARK    9  A    between atoms: C_20  and  C_21
REMARK   10  A    between atoms: C_21  and  O_22
REMARK                            x       y       z     vdW  Elec       q    Type
REMARK                         _______ _______ _______ _____ _____    ______ ____
ROOT
ATOM      1  C   UNL     1       1.861   5.145  20.362  0.00  0.00    +0.000 A 
ATOM      2  N   UNL     1       2.819   4.950  19.455  0.00  0.00    +0.000 NA
ATOM      3  C   UNL     1       3.180   6.014  18.698  0.00  0.00    +0.000 A 
ATOM      4  N   UNL     1       4.179   5.805  17.746  0.00  0.00    +0.000 N 
ATOM      5  C   UNL     1       5.152   6.844  17.401  0.00  0.00    +0.000 C 
ATOM      6  C   UNL     1       5.246   6.902  15.880  0.00  0.00    +0.000 C 
ATOM      7  C   UNL     1       5.702   5.546  15.342  0.00  0.00    +0.000 C 
ATOM      8  C   UNL     1       4.826   4.402  15.866  0.00  0.00    +0.000 C 
ATOM      9  C   UNL     1       4.607   4.456  17.387  0.00  0.00    +0.000 C 
ATOM     10  C   UNL     1       2.546   7.272  18.825  0.00  0.00    +0.000 A 
ATOM     11  N   UNL     1       2.807   8.306  17.992  0.00  0.00    +0.000 NA
ATOM     12  C   UNL     1       2.225   9.467  18.232  0.00  0.00    +0.000 A 
ATOM     13  N   UNL     1       1.362   9.693  19.209  0.00  0.00    +0.000 NA
ATOM     14  C   UNL     1       1.047   8.651  20.012  0.00  0.00    +0.000 A 
ATOM     15  N   UNL     1       0.102   8.935  20.989  0.00  0.00    +0.000 N 
ATOM     16  C   UNL     1      -0.928   9.929  20.708  0.00  0.00    +0.000 C 
ATOM     17  C   UNL     1      -0.800  11.108  21.664  0.00  0.00    +0.000 C 
ATOM     18  C   UNL     1      -0.806  10.629  23.113  0.00  0.00    +0.000 C 
ATOM     19  C   UNL     1       0.286   9.588  23.345  0.00  0.00    +0.000 C 
ATOM     20  C   UNL     1       0.202   8.423  22.351  0.00  0.00    +0.000 C 
ATOM     21  C   UNL     1       1.615   7.369  19.856  0.00  0.00    +0.000 A 
ATOM     22  N   UNL     1       1.257   6.301  20.610  0.00  0.00    +0.000 NA
ENDROOT
BRANCH   1  23
ATOM     23  O   UNL     1       1.349   4.087  21.080  0.00  0.00    +0.000 OA
BRANCH  23  24
ATOM     24  C   UNL     1       1.750   2.808  20.588  0.00  0.00    +0.000 C 
BRANCH  24  25
ATOM     25  C   UNL     1       2.966   2.370  21.405  0.00  0.00    +0.000 C 
BRANCH  25  26
ATOM     26  C   UNL     1       4.179   2.098  20.530  0.00  0.00    +0.000 C 
BRANCH  26  27
ATOM     27  O   UNL     1       5.227   1.553  21.318  0.00  0.00    +0.000 OA
ATOM     28  H   UNL     1       5.599   2.280  21.846  0.00  0.00    +0.000 HD
ENDBRANCH  26  27
ENDBRANCH  25  26
ENDBRANCH  24  25
ENDBRANCH  23  24
ENDBRANCH   1  23
BRANCH  12  29
ATOM     29  O   UNL     1       2.565  10.476  17.362  0.00  0.00    +0.000 OA
BRANCH  29  30
ATOM     30  C   UNL     1       1.962  11.720  17.707  0.00  0.00    +0.000 C 
BRANCH  30  31
ATOM     31  C   UNL     1       3.065  12.732  17.992  0.00  0.00    +0.000 C 
BRANCH  31  32
ATOM     32  C   UNL     1       2.719  13.624  19.177  0.00  0.00    +0.000 C 
BRANCH  32  33
ATOM     33  O   UNL     1       2.908  14.990  18.825  0.00  0.00    +0.000 OA
ATOM     34  H   UNL     1       3.721  15.298  19.260  0.00  0.00    +0.000 HD
ENDBRANCH  32  33
ENDBRANCH  31  32
ENDBRANCH  30  31
ENDBRANCH  29  30
ENDBRANCH  12  29
TORSDOF 10
ENDMDL
MODEL 8
REMARK VINA RESULT:      -5.7      2.858      6.356
REMARK  Name = 
REMARK  10 active torsions:
REMARK  status: ('A' for Active; 'I' for Inactive)
REMARK    1  A    between atoms: O_1  and  C_2
REMARK    2  A    between atoms: C_2  and  C_3
REMARK    3  A    between atoms: C_3  and  C_4
REMARK    4  A    between atoms: C_4  and  O_5
REMARK    5  A    between atoms: O_5  and  C_6
REMARK    6  A    between atoms: C_17  and  O_18
REMARK    7  A    between atoms: O_18  and  C_19
REMARK    8  A    between atoms: C_19  and  C_20
REMARK    9  A    between atoms: C_20  and  C_21
REMARK   10  A    between atoms: C_21  and  O_22
REMARK                            x       y       z     vdW  Elec       q    Type
REMARK                         _______ _______ _______ _____ _____    ______ ____
ROOT
ATOM      1  C   UNL     1      -0.019  14.981  20.105  0.00  0.00    +0.000 A 
ATOM      2  N   UNL     1      -0.072  15.459  21.349  0.00  0.00    +0.000 NA
ATOM      3  C   UNL     1      -1.076  15.013  22.141  0.00  0.00    +0.000 A 
ATOM      4  N   UNL     1      -1.131  15.521  23.440  0.00  0.00    +0.000 N 
ATOM      5  C   UNL     1      -1.591  14.710  24.570  0.00  0.00    +0.000 C 
ATOM      6  C   UNL     1      -2.572  15.556  25.376  0.00  0.00    +0.000 C 
ATOM      7  C   UNL     1      -1.869  16.818  25.877  0.00  0.00    +0.000 C 
ATOM      8  C   UNL     1      -1.186  17.580  24.736  0.00  0.00    +0.000 C 
ATOM      9  C   UNL     1      -0.330  16.676  23.833  0.00  0.00    +0.000 C 
ATOM     10  C   UNL     1      -2.059  14.114  21.666  0.00  0.00    +0.000 A 
ATOM     11  N   UNL     1      -3.138  13.760  22.404  0.00  0.00    +0.000 NA
ATOM     12  C   UNL     1      -3.964  12.855  21.911  0.00  0.00    +0.000 A 
ATOM     13  N   UNL     1      -3.846  12.290  20.721  0.00  0.00    +0.000 NA
ATOM     14  C   UNL     1      -2.805  12.680  19.950  0.00  0.00    +0.000 A 
ATOM     15  N   UNL     1      -2.758  12.089  18.695  0.00  0.00    +0.000 N 
ATOM     16  C   UNL     1      -4.008  11.726  18.038  0.00  0.00    +0.000 C 
ATOM     17  C   UNL     1      -4.078  10.217  17.831  0.00  0.00    +0.000 C 
ATOM     18  C   UNL     1      -2.841   9.719  17.088  0.00  0.00    +0.000 C 
ATOM     19  C   UNL     1      -1.566  10.134  17.817  0.00  0.00    +0.000 C 
ATOM     20  C   UNL     1      -1.511  11.643  18.083  0.00  0.00    +0.000 C 
ATOM     21  C   UNL     1      -1.853  13.631  20.378  0.00  0.00    +0.000 A 
ATOM     22  N   UNL     1      -0.846  14.080  19.589  0.00  0.00    +0.000 NA
ENDROOT
BRANCH   1  23
ATOM     23  O   UNL     1       0.893  15.478  19.200  0.00  0.00    +0.000 OA
BRANCH  23  24
ATOM     24  C   UNL     1       2.015  14.623  18.983  0.00  0.00    +0.000 C 
BRANCH  24  25
ATOM     25  C   UNL     1       3.125  15.086  19.929  0.00  0.00    +0.000 C 
BRANCH  25  26
ATOM     26  C   UNL     1       3.386  14.084  21.042  0.00  0.00    +0.000 C 
BRANCH  26  27
ATOM     27  O   UNL     1       2.762  14.524  22.240  0.00  0.00    +0.000 OA
ATOM     28  H   UNL     1       3.468  14.692  22.887  0.00  0.00    +0.000 HD
ENDBRANCH  26  27
ENDBRANCH  25  26
ENDBRANCH  24  25
ENDBRANCH  23  24
ENDBRANCH   1  23
BRANCH  12  29
ATOM     29  O   UNL     1      -5.017  12.525  22.732  0.00  0.00    +0.000 OA
BRANCH  29  30
ATOM     30  C   UNL     1      -5.411  13.604  23.574  0.00  0.00    +0.000 C 
BRANCH  30  31
ATOM     31  C   UNL     1      -6.836  13.351  24.052  0.00  0.00    +0.000 C 
BRANCH  31  32
ATOM     32  C   UNL     1      -7.551  12.327  23.179  0.00  0.00    +0.000 C 
BRANCH  32  33
ATOM     33  O   UNL     1      -7.584  11.068  23.841  0.00  0.00    +0.000 OA
ATOM     34  H   UNL     1      -7.234  11.196  24.739  0.00  0.00    +0.000 HD
ENDBRANCH  32  33
ENDBRANCH  31  32
ENDBRANCH  30  31
ENDBRANCH  29  30
ENDBRANCH  12  29
TORSDOF 10
ENDMDL
MODEL 9
REMARK VINA RESULT:      -5.7      2.494      7.265
REMARK  Name = 
REMARK  10 active torsions:
REMARK  status: ('A' for Active; 'I' for Inactive)
REMARK    1  A    between atoms: O_1  and  C_2
REMARK    2  A    between atoms: C_2  and  C_3
REMARK    3  A    between atoms: C_3  and  C_4
REMARK    4  A    between atoms: C_4  and  O_5
REMARK    5  A    between atoms: O_5  and  C_6
REMARK    6  A    between atoms: C_17  and  O_18
REMARK    7  A    between atoms: O_18  and  C_19
REMARK    8  A    between atoms: C_19  and  C_20
REMARK    9  A    between atoms: C_20  and  C_21
REMARK   10  A    between atoms: C_21  and  O_22
REMARK                            x       y       z     vdW  Elec       q    Type
REMARK                         _______ _______ _______ _____ _____    ______ ____
ROOT
ATOM      1  C   UNL     1      -4.563  12.891  22.377  0.00  0.00    +0.000 A 
ATOM      2  N   UNL     1      -3.982  13.864  23.082  0.00  0.00    +0.000 NA
ATOM      3  C   UNL     1      -2.848  14.404  22.573  0.00  0.00    +0.000 A 
ATOM      4  N   UNL     1      -2.241  15.418  23.317  0.00  0.00    +0.000 N 
ATOM      5  C   UNL     1      -1.545  16.537  22.678  0.00  0.00    +0.000 C 
ATOM      6  C   UNL     1      -0.212  16.722  23.395  0.00  0.00    +0.000 C 
ATOM      7  C   UNL     1      -0.461  17.023  24.873  0.00  0.00    +0.000 C 
ATOM      8  C   UNL     1      -1.374  15.976  25.521  0.00  0.00    +0.000 C 
ATOM      9  C   UNL     1      -2.639  15.683  24.696  0.00  0.00    +0.000 C 
ATOM     10  C   UNL     1      -2.271  13.935  21.370  0.00  0.00    +0.000 A 
ATOM     11  N   UNL     1      -1.074  14.376  20.917  0.00  0.00    +0.000 NA
ATOM     12  C   UNL     1      -0.648  13.941  19.746  0.00  0.00    +0.000 A 
ATOM     13  N   UNL     1      -1.284  13.062  18.988  0.00  0.00    +0.000 NA
ATOM     14  C   UNL     1      -2.452  12.569  19.458  0.00  0.00    +0.000 A 
ATOM     15  N   UNL     1      -3.051  11.617  18.643  0.00  0.00    +0.000 N 
ATOM     16  C   UNL     1      -2.205  10.745  17.837  0.00  0.00    +0.000 C 
ATOM     17  C   UNL     1      -2.469  10.974  16.354  0.00  0.00    +0.000 C 
ATOM     18  C   UNL     1      -3.956  10.825  16.044  0.00  0.00    +0.000 C 
ATOM     19  C   UNL     1      -4.790  11.755  16.921  0.00  0.00    +0.000 C 
ATOM     20  C   UNL     1      -4.491  11.573  18.414  0.00  0.00    +0.000 C 
ATOM     21  C   UNL     1      -3.009  12.970  20.692  0.00  0.00    +0.000 A 
ATOM     22  N   UNL     1      -4.143  12.433  21.204  0.00  0.00    +0.000 NA
ENDROOT
BRANCH   1  23
ATOM     23  O   UNL     1      -5.643  12.206  22.886  0.00  0.00    +0.000 OA
BRANCH  23  24
ATOM     24  C   UNL     1      -6.229  12.822  24.033  0.00  0.00    +0.000 C 
BRANCH  24  25
ATOM     25  C   UNL     1      -7.503  13.528  23.566  0.00  0.00    +0.000 C 
BRANCH  25  26
ATOM     26  C   UNL     1      -7.443  15.029  23.791  0.00  0.00    +0.000 C 
BRANCH  26  27
ATOM     27  O   UNL     1      -6.177  15.384  24.328  0.00  0.00    +0.000 OA
ATOM     28  H   UNL     1      -6.230  16.318  24.597  0.00  0.00    +0.000 HD
ENDBRANCH  26  27
ENDBRANCH  25  26
ENDBRANCH  24  25
ENDBRANCH  23  24
ENDBRANCH   1  23
BRANCH  12  29
ATOM     29  O   UNL     1       0.559  14.459  19.340  0.00  0.00    +0.000 OA
BRANCH  29  30
ATOM     30  C   UNL     1       1.575  14.313  20.328  0.00  0.00    +0.000 C 
BRANCH  30  31
ATOM     31  C   UNL     1       2.650  13.378  19.785  0.00  0.00    +0.000 C 
BRANCH  31  32
ATOM     32  C   UNL     1       3.021  13.720  18.348  0.00  0.00    +0.000 C 
BRANCH  32  33
ATOM     33  O   UNL     1       2.294  12.890  17.451  0.00  0.00    +0.000 OA
ATOM     34  H   UNL     1       1.851  13.467  16.806  0.00  0.00    +0.000 HD
ENDBRANCH  32  33
ENDBRANCH  31  32
ENDBRANCH  30  31
ENDBRANCH  29  30
ENDBRANCH  12  29
TORSDOF 10
ENDMDL
