MODEL 1
REMARK VINA RESULT:      -7.2      0.000      0.000
REMARK  Name = 
REMARK  4 active torsions:
REMARK  status: ('A' for Active; 'I' for Inactive)
REMARK    1  A    between atoms: C_5  and  C_6
REMARK    2  A    between atoms: C_6  and  N_7
REMARK    3  A    between atoms: N_7  and  C_8
REMARK    4  A    between atoms: C_11  and  N_12
REMARK                            x       y       z     vdW  Elec       q    Type
REMARK                         _______ _______ _______ _____ _____    ______ ____
ROOT
ATOM      1  C   UNL     1       6.703   6.969  17.445  0.00  0.00    +0.000 A 
ATOM      2  C   UNL     1       5.594   6.786  16.624  0.00  0.00    +0.000 A 
ATOM      3  C   UNL     1       4.729   5.699  16.806  0.00  0.00    +0.000 A 
ATOM      4  C   UNL     1       4.954   4.741  17.798  0.00  0.00    +0.000 A 
ATOM      5  C   UNL     1       6.104   4.907  18.585  0.00  0.00    +0.000 A 
ATOM      6  C   UNL     1       6.977   5.986  18.397  0.00  0.00    +0.000 A 
ENDROOT
BRANCH   4   7
ATOM      7  N   UNL     1       4.125   3.650  17.984  0.00  0.00    +0.000 N 
ATOM      8  C   UNL     1       2.836   3.517  17.288  0.00  0.00    +0.000 C 
ATOM      9  C   UNL     1       1.660   3.695  18.258  0.00  0.00    +0.000 C 
ATOM     10  O   UNL     1       1.768   2.808  19.383  0.00  0.00    +0.000 OA
ATOM     11  C   UNL     1       2.984   3.072  20.103  0.00  0.00    +0.000 C 
ATOM     12  C   UNL     1       4.230   2.860  19.224  0.00  0.00    +0.000 C 
ENDBRANCH   4   7
BRANCH   1  13
ATOM     13  N   UNL     1       7.612   8.028  17.299  0.00  0.00    +0.000 N 
ATOM     14  H   UNL     1       7.113   8.869  17.006  0.00  0.00    +0.000 HD
BRANCH  13  15
ATOM     15  C   UNL     1       8.454   8.303  18.461  0.00  0.00    +0.000 C 
BRANCH  15  20
ATOM     16 CL   UNL     1       9.518  14.226  18.921  0.00  0.00    +0.000 Cl
ATOM     17  C   UNL     1       9.242  12.533  18.789  0.00  0.00    +0.000 A 
ATOM     18  C   UNL     1       8.510  12.036  17.713  0.00  0.00    +0.000 A 
ATOM     19  C   UNL     1       8.284  10.661  17.605  0.00  0.00    +0.000 A 
ATOM     20  C   UNL     1       8.797   9.772  18.566  0.00  0.00    +0.000 A 
ATOM     21  C   UNL     1       9.508  10.297  19.656  0.00  0.00    +0.000 A 
ATOM     22  C   UNL     1       9.739  11.671  19.762  0.00  0.00    +0.000 A 
ENDBRANCH  15  20
ENDBRANCH  13  15
ENDBRANCH   1  13
TORSDOF 4
ENDMDL
MODEL 2
REMARK VINA RESULT:      -7.1      6.495      7.984
REMARK  Name = 
REMARK  4 active torsions:
REMARK  status: ('A' for Active; 'I' for Inactive)
REMARK    1  A    between atoms: C_5  and  C_6
REMARK    2  A    between atoms: C_6  and  N_7
REMARK    3  A    between atoms: N_7  and  C_8
REMARK    4  A    between atoms: C_11  and  N_12
REMARK                            x       y       z     vdW  Elec       q    Type
REMARK                         _______ _______ _______ _____ _____    ______ ____
ROOT
ATOM      1  C   UNL     1       1.653   9.024  18.540  0.00  0.00    +0.000 A 
ATOM      2  C   UNL     1       1.425   8.674  19.869  0.00  0.00    +0.000 A 
ATOM      3  C   UNL     1       1.859   7.444  20.379  0.00  0.00    +0.000 A 
ATOM      4  C   UNL     1       2.511   6.506  19.575  0.00  0.00    +0.000 A 
ATOM      5  C   UNL     1       2.688   6.847  18.226  0.00  0.00    +0.000 A 
ATOM      6  C   UNL     1       2.245   8.072  17.710  0.00  0.00    +0.000 A 
ENDROOT
BRANCH   4   7
ATOM      7  N   UNL     1       2.931   5.278  20.052  0.00  0.00    +0.000 N 
ATOM      8  C   UNL     1       3.828   4.402  19.282  0.00  0.00    +0.000 C 
ATOM      9  C   UNL     1       3.085   3.165  18.762  0.00  0.00    +0.000 C 
ATOM     10  O   UNL     1       2.420   2.465  19.826  0.00  0.00    +0.000 OA
ATOM     11  C   UNL     1       1.460   3.328  20.458  0.00  0.00    +0.000 C 
ATOM     12  C   UNL     1       2.123   4.577  21.067  0.00  0.00    +0.000 C 
ENDBRANCH   4   7
BRANCH   1  13
ATOM     13  N   UNL     1       1.228  10.233  17.971  0.00  0.00    +0.000 N 
ATOM     14  H   UNL     1       0.713  10.045  17.110  0.00  0.00    +0.000 HD
BRANCH  13  15
ATOM     15  C   UNL     1       0.458  11.110  18.852  0.00  0.00    +0.000 C 
BRANCH  15  20
ATOM     16 CL   UNL     1      -5.444  11.053  17.598  0.00  0.00    +0.000 Cl
ATOM     17  C   UNL     1      -3.764  11.043  17.964  0.00  0.00    +0.000 A 
ATOM     18  C   UNL     1      -3.256  11.940  18.901  0.00  0.00    +0.000 A 
ATOM     19  C   UNL     1      -1.891  11.934  19.199  0.00  0.00    +0.000 A 
ATOM     20  C   UNL     1      -1.024  11.024  18.569  0.00  0.00    +0.000 A 
ATOM     21  C   UNL     1      -1.551  10.147  17.609  0.00  0.00    +0.000 A 
ATOM     22  C   UNL     1      -2.917  10.150  17.314  0.00  0.00    +0.000 A 
ENDBRANCH  15  20
ENDBRANCH  13  15
ENDBRANCH   1  13
TORSDOF 4
ENDMDL
MODEL 3
REMARK VINA RESULT:      -7.1      0.919      1.431
REMARK  Name = 
REMARK  4 active torsions:
REMARK  status: ('A' for Active; 'I' for Inactive)
REMARK    1  A    between atoms: C_5  and  C_6
REMARK    2  A    between atoms: C_6  and  N_7
REMARK    3  A    between atoms: N_7  and  C_8
REMARK    4  A    between atoms: C_11  and  N_12
REMARK                            x       y       z     vdW  Elec       q    Type
REMARK                         _______ _______ _______ _____ _____    ______ ____
ROOT
ATOM      1  C   UNL     1       7.488   7.062  18.181  0.00  0.00    +0.000 A 
ATOM      2  C   UNL     1       6.459   7.030  17.243  0.00  0.00    +0.000 A 
ATOM      3  C   UNL     1       5.535   5.978  17.218  0.00  0.00    +0.000 A 
ATOM      4  C   UNL     1       5.618   4.906  18.111  0.00  0.00    +0.000 A 
ATOM      5  C   UNL     1       6.689   4.923  19.017  0.00  0.00    +0.000 A 
ATOM      6  C   UNL     1       7.623   5.967  19.036  0.00  0.00    +0.000 A 
ENDROOT
BRANCH   4   7
ATOM      7  N   UNL     1       4.728   3.848  18.092  0.00  0.00    +0.000 N 
ATOM      8  C   UNL     1       3.665   3.735  17.082  0.00  0.00    +0.000 C 
ATOM      9  C   UNL     1       2.282   3.979  17.702  0.00  0.00    +0.000 C 
ATOM     10  O   UNL     1       2.055   3.122  18.833  0.00  0.00    +0.000 OA
ATOM     11  C   UNL     1       3.047   3.368  19.844  0.00  0.00    +0.000 C 
ATOM     12  C   UNL     1       4.471   3.092  19.331  0.00  0.00    +0.000 C 
ENDBRANCH   4   7
BRANCH   1  13
ATOM     13  N   UNL     1       8.451   8.079  18.243  0.00  0.00    +0.000 N 
ATOM     14  H   UNL     1       9.314   7.761  17.801  0.00  0.00    +0.000 HD
BRANCH  13  15
ATOM     15  C   UNL     1       8.039   9.373  17.702  0.00  0.00    +0.000 C 
BRANCH  15  20
ATOM     16 CL   UNL     1      11.186  13.774  20.376  0.00  0.00    +0.000 Cl
ATOM     17  C   UNL     1      10.267  12.535  19.614  0.00  0.00    +0.000 A 
ATOM     18  C   UNL     1      10.130  11.296  20.236  0.00  0.00    +0.000 A 
ATOM     19  C   UNL     1       9.385  10.289  19.618  0.00  0.00    +0.000 A 
ATOM     20  C   UNL     1       8.761  10.516  18.379  0.00  0.00    +0.000 A 
ATOM     21  C   UNL     1       8.934  11.763  17.757  0.00  0.00    +0.000 A 
ATOM     22  C   UNL     1       9.676  12.771  18.376  0.00  0.00    +0.000 A 
ENDBRANCH  15  20
ENDBRANCH  13  15
ENDBRANCH   1  13
TORSDOF 4
ENDMDL
MODEL 4
REMARK VINA RESULT:      -7.1      0.937      1.067
REMARK  Name = 
REMARK  4 active torsions:
REMARK  status: ('A' for Active; 'I' for Inactive)
REMARK    1  A    between atoms: C_5  and  C_6
REMARK    2  A    between atoms: C_6  and  N_7
REMARK    3  A    between atoms: N_7  and  C_8
REMARK    4  A    between atoms: C_11  and  N_12
REMARK                            x       y       z     vdW  Elec       q    Type
REMARK                         _______ _______ _______ _____ _____    ______ ____
ROOT
ATOM      1  C   UNL     1       7.517   6.957  18.381  0.00  0.00    +0.000 A 
ATOM      2  C   UNL     1       6.570   6.954  17.359  0.00  0.00    +0.000 A 
ATOM      3  C   UNL     1       5.612   5.937  17.264  0.00  0.00    +0.000 A 
ATOM      4  C   UNL     1       5.580   4.872  18.167  0.00  0.00    +0.000 A 
ATOM      5  C   UNL     1       6.572   4.858  19.160  0.00  0.00    +0.000 A 
ATOM      6  C   UNL     1       7.538   5.867  19.251  0.00  0.00    +0.000 A 
ENDROOT
BRANCH   4   7
ATOM      7  N   UNL     1       4.656   3.847  18.081  0.00  0.00    +0.000 N 
ATOM      8  C   UNL     1       3.588   3.837  17.070  0.00  0.00    +0.000 C 
ATOM      9  C   UNL     1       2.215   4.083  17.709  0.00  0.00    +0.000 C 
ATOM     10  O   UNL     1       1.961   3.159  18.781  0.00  0.00    +0.000 OA
ATOM     11  C   UNL     1       2.962   3.305  19.803  0.00  0.00    +0.000 C 
ATOM     12  C   UNL     1       4.376   3.017  19.267  0.00  0.00    +0.000 C 
ENDBRANCH   4   7
BRANCH   1  13
ATOM     13  N   UNL     1       8.509   7.940  18.516  0.00  0.00    +0.000 N 
ATOM     14  H   UNL     1       9.404   7.569  18.195  0.00  0.00    +0.000 HD
BRANCH  13  15
ATOM     15  C   UNL     1       8.220   9.222  17.878  0.00  0.00    +0.000 C 
BRANCH  15  20
ATOM     16 CL   UNL     1      10.860  13.932  20.573  0.00  0.00    +0.000 Cl
ATOM     17  C   UNL     1      10.130  12.575  19.809  0.00  0.00    +0.000 A 
ATOM     18  C   UNL     1       9.702  12.675  18.487  0.00  0.00    +0.000 A 
ATOM     19  C   UNL     1       9.109  11.574  17.865  0.00  0.00    +0.000 A 
ATOM     20  C   UNL     1       8.948  10.360  18.556  0.00  0.00    +0.000 A 
ATOM     21  C   UNL     1       9.362  10.289  19.895  0.00  0.00    +0.000 A 
ATOM     22  C   UNL     1       9.959  11.388  20.516  0.00  0.00    +0.000 A 
ENDBRANCH  15  20
ENDBRANCH  13  15
ENDBRANCH   1  13
TORSDOF 4
ENDMDL
MODEL 5
REMARK VINA RESULT:      -7.1      0.427      1.104
REMARK  Name = 
REMARK  4 active torsions:
REMARK  status: ('A' for Active; 'I' for Inactive)
REMARK    1  A    between atoms: C_5  and  C_6
REMARK    2  A    between atoms: C_6  and  N_7
REMARK    3  A    between atoms: N_7  and  C_8
REMARK    4  A    between atoms: C_11  and  N_12
REMARK                            x       y       z     vdW  Elec       q    Type
REMARK                         _______ _______ _______ _____ _____    ______ ____
ROOT
ATOM      1  C   UNL     1       7.011   7.069  17.528  0.00  0.00    +0.000 A 
ATOM      2  C   UNL     1       7.401   5.954  18.266  0.00  0.00    +0.000 A 
ATOM      3  C   UNL     1       6.549   4.852  18.418  0.00  0.00    +0.000 A 
ATOM      4  C   UNL     1       5.268   4.833  17.863  0.00  0.00    +0.000 A 
ATOM      5  C   UNL     1       4.866   5.984  17.166  0.00  0.00    +0.000 A 
ATOM      6  C   UNL     1       5.711   7.091  17.023  0.00  0.00    +0.000 A 
ENDROOT
BRANCH   4   7
ATOM      7  N   UNL     1       4.403   3.765  18.017  0.00  0.00    +0.000 N 
ATOM      8  C   UNL     1       3.197   3.607  17.190  0.00  0.00    +0.000 C 
ATOM      9  C   UNL     1       1.924   3.856  18.010  0.00  0.00    +0.000 C 
ATOM     10  O   UNL     1       1.890   3.035  19.189  0.00  0.00    +0.000 OA
ATOM     11  C   UNL     1       3.023   3.326  20.025  0.00  0.00    +0.000 C 
ATOM     12  C   UNL     1       4.355   3.048  19.304  0.00  0.00    +0.000 C 
ENDBRANCH   4   7
BRANCH   1  13
ATOM     13  N   UNL     1       7.814   8.206  17.356  0.00  0.00    +0.000 N 
ATOM     14  H   UNL     1       7.249   8.972  16.989  0.00  0.00    +0.000 HD
BRANCH  13  15
ATOM     15  C   UNL     1       8.563   8.635  18.536  0.00  0.00    +0.000 C 
BRANCH  15  20
ATOM     16 CL   UNL     1       9.646  14.570  18.400  0.00  0.00    +0.000 Cl
ATOM     17  C   UNL     1       9.363  12.874  18.432  0.00  0.00    +0.000 A 
ATOM     18  C   UNL     1       8.403  12.319  17.589  0.00  0.00    +0.000 A 
ATOM     19  C   UNL     1       8.171  10.941  17.615  0.00  0.00    +0.000 A 
ATOM     20  C   UNL     1       8.906  10.106  18.474  0.00  0.00    +0.000 A 
ATOM     21  C   UNL     1       9.850  10.689  19.334  0.00  0.00    +0.000 A 
ATOM     22  C   UNL     1      10.085  12.066  19.306  0.00  0.00    +0.000 A 
ENDBRANCH  15  20
ENDBRANCH  13  15
ENDBRANCH   1  13
TORSDOF 4
ENDMDL
MODEL 6
REMARK VINA RESULT:      -7.1      5.983      7.413
REMARK  Name = 
REMARK  4 active torsions:
REMARK  status: ('A' for Active; 'I' for Inactive)
REMARK    1  A    between atoms: C_5  and  C_6
REMARK    2  A    between atoms: C_6  and  N_7
REMARK    3  A    between atoms: N_7  and  C_8
REMARK    4  A    between atoms: C_11  and  N_12
REMARK                            x       y       z     vdW  Elec       q    Type
REMARK                         _______ _______ _______ _____ _____    ______ ____
ROOT
ATOM      1  C   UNL     1       1.692   7.982  19.727  0.00  0.00    +0.000 A 
ATOM      2  C   UNL     1       2.368   7.976  18.509  0.00  0.00    +0.000 A 
ATOM      3  C   UNL     1       2.985   6.814  18.030  0.00  0.00    +0.000 A 
ATOM      4  C   UNL     1       2.974   5.623  18.759  0.00  0.00    +0.000 A 
ATOM      5  C   UNL     1       2.336   5.655  20.009  0.00  0.00    +0.000 A 
ATOM      6  C   UNL     1       1.728   6.819  20.497  0.00  0.00    +0.000 A 
ENDROOT
BRANCH   4   7
ATOM      7  N   UNL     1       3.593   4.469  18.315  0.00  0.00    +0.000 N 
ATOM      8  C   UNL     1       2.968   3.572  17.331  0.00  0.00    +0.000 C 
ATOM      9  C   UNL     1       2.529   2.253  17.981  0.00  0.00    +0.000 C 
ATOM     10  O   UNL     1       3.617   1.624  18.680  0.00  0.00    +0.000 OA
ATOM     11  C   UNL     1       4.103   2.493  19.717  0.00  0.00    +0.000 C 
ATOM     12  C   UNL     1       4.624   3.827  19.152  0.00  0.00    +0.000 C 
ENDBRANCH   4   7
BRANCH   1  13
ATOM     13  N   UNL     1       1.071   9.119  20.265  0.00  0.00    +0.000 N 
ATOM     14  H   UNL     1       1.513   9.364  21.151  0.00  0.00    +0.000 HD
BRANCH  13  15
ATOM     15  C   UNL     1       1.005  10.281  19.380  0.00  0.00    +0.000 C 
BRANCH  15  20
ATOM     16 CL   UNL     1      -4.496  11.456  17.194  0.00  0.00    +0.000 Cl
ATOM     17  C   UNL     1      -2.935  11.095  17.822  0.00  0.00    +0.000 A 
ATOM     18  C   UNL     1      -2.468  11.777  18.943  0.00  0.00    +0.000 A 
ATOM     19  C   UNL     1      -1.200  11.485  19.453  0.00  0.00    +0.000 A 
ATOM     20  C   UNL     1      -0.394  10.502  18.853  0.00  0.00    +0.000 A 
ATOM     21  C   UNL     1      -0.873   9.847  17.708  0.00  0.00    +0.000 A 
ATOM     22  C   UNL     1      -2.142  10.135  17.200  0.00  0.00    +0.000 A 
ENDBRANCH  15  20
ENDBRANCH  13  15
ENDBRANCH   1  13
TORSDOF 4
ENDMDL
MODEL 7
REMARK VINA RESULT:      -7.1      0.615      1.578
REMARK  Name = 
REMARK  4 active torsions:
REMARK  status: ('A' for Active; 'I' for Inactive)
REMARK    1  A    between atoms: C_5  and  C_6
REMARK    2  A    between atoms: C_6  and  N_7
REMARK    3  A    between atoms: N_7  and  C_8
REMARK    4  A    between atoms: C_11  and  N_12
REMARK                            x       y       z     vdW  Elec       q    Type
REMARK                         _______ _______ _______ _____ _____    ______ ____
ROOT
ATOM      1  C   UNL     1       7.057   7.234  17.569  0.00  0.00    +0.000 A 
ATOM      2  C   UNL     1       7.481   6.169  18.360  0.00  0.00    +0.000 A 
ATOM      3  C   UNL     1       6.687   5.026  18.522  0.00  0.00    +0.000 A 
ATOM      4  C   UNL     1       5.430   4.916  17.924  0.00  0.00    +0.000 A 
ATOM      5  C   UNL     1       4.991   6.017  17.173  0.00  0.00    +0.000 A 
ATOM      6  C   UNL     1       5.777   7.166  17.019  0.00  0.00    +0.000 A 
ENDROOT
BRANCH   4   7
ATOM      7  N   UNL     1       4.621   3.806  18.085  0.00  0.00    +0.000 N 
ATOM      8  C   UNL     1       3.479   3.532  17.200  0.00  0.00    +0.000 C 
ATOM      9  C   UNL     1       2.146   3.745  17.929  0.00  0.00    +0.000 C 
ATOM     10  O   UNL     1       2.087   2.985  19.148  0.00  0.00    +0.000 OA
ATOM     11  C   UNL     1       3.148   3.388  20.031  0.00  0.00    +0.000 C 
ATOM     12  C   UNL     1       4.535   3.155  19.405  0.00  0.00    +0.000 C 
ENDBRANCH   4   7
BRANCH   1  13
ATOM     13  N   UNL     1       7.802   8.409  17.385  0.00  0.00    +0.000 N 
ATOM     14  H   UNL     1       7.181   9.165  17.095  0.00  0.00    +0.000 HD
BRANCH  13  15
ATOM     15  C   UNL     1       8.625   8.820  18.520  0.00  0.00    +0.000 C 
BRANCH  15  20
ATOM     16 CL   UNL     1      10.080  14.671  18.251  0.00  0.00    +0.000 Cl
ATOM     17  C   UNL     1       9.640  13.010  18.337  0.00  0.00    +0.000 A 
ATOM     18  C   UNL     1      10.370  12.145  19.148  0.00  0.00    +0.000 A 
ATOM     19  C   UNL     1      10.015  10.795  19.218  0.00  0.00    +0.000 A 
ATOM     20  C   UNL     1       8.920  10.302  18.486  0.00  0.00    +0.000 A 
ATOM     21  C   UNL     1       8.215  11.186  17.654  0.00  0.00    +0.000 A 
ATOM     22  C   UNL     1       8.567  12.536  17.587  0.00  0.00    +0.000 A 
ENDBRANCH  15  20
ENDBRANCH  13  15
ENDBRANCH   1  13
TORSDOF 4
ENDMDL
MODEL 8
REMARK VINA RESULT:      -7.1      6.676      8.227
REMARK  Name = 
REMARK  4 active torsions:
REMARK  status: ('A' for Active; 'I' for Inactive)
REMARK    1  A    between atoms: C_5  and  C_6
REMARK    2  A    between atoms: C_6  and  N_7
REMARK    3  A    between atoms: N_7  and  C_8
REMARK    4  A    between atoms: C_11  and  N_12
REMARK                            x       y       z     vdW  Elec       q    Type
REMARK                         _______ _______ _______ _____ _____    ______ ____
ROOT
ATOM      1  C   UNL     1       1.320   9.051  19.468  0.00  0.00    +0.000 A 
ATOM      2  C   UNL     1       1.880   9.013  18.194  0.00  0.00    +0.000 A 
ATOM      3  C   UNL     1       2.628   7.909  17.765  0.00  0.00    +0.000 A 
ATOM      4  C   UNL     1       2.868   6.815  18.600  0.00  0.00    +0.000 A 
ATOM      5  C   UNL     1       2.343   6.888  19.899  0.00  0.00    +0.000 A 
ATOM      6  C   UNL     1       1.605   7.996  20.336  0.00  0.00    +0.000 A 
ENDROOT
BRANCH   4   7
ATOM      7  N   UNL     1       3.619   5.724  18.204  0.00  0.00    +0.000 N 
ATOM      8  C   UNL     1       3.168   4.341  18.421  0.00  0.00    +0.000 C 
ATOM      9  C   UNL     1       4.007   3.646  19.502  0.00  0.00    +0.000 C 
ATOM     10  O   UNL     1       5.411   3.723  19.208  0.00  0.00    +0.000 OA
ATOM     11  C   UNL     1       5.825   5.098  19.138  0.00  0.00    +0.000 C 
ATOM     12  C   UNL     1       5.077   5.867  18.035  0.00  0.00    +0.000 C 
ENDBRANCH   4   7
BRANCH   1  13
ATOM     13  N   UNL     1       0.577  10.135  19.958  0.00  0.00    +0.000 N 
ATOM     14  H   UNL     1       1.087  10.585  20.719  0.00  0.00    +0.000 HD
BRANCH  13  15
ATOM     15  C   UNL     1       0.163  11.119  18.960  0.00  0.00    +0.000 C 
BRANCH  15  20
ATOM     16 CL   UNL     1      -5.737  11.077  17.693  0.00  0.00    +0.000 Cl
ATOM     17  C   UNL     1      -4.057  11.064  18.064  0.00  0.00    +0.000 A 
ATOM     18  C   UNL     1      -3.539  12.007  18.950  0.00  0.00    +0.000 A 
ATOM     19  C   UNL     1      -2.175  11.997  19.251  0.00  0.00    +0.000 A 
ATOM     20  C   UNL     1      -1.320  11.039  18.678  0.00  0.00    +0.000 A 
ATOM     21  C   UNL     1      -1.858  10.116  17.768  0.00  0.00    +0.000 A 
ATOM     22  C   UNL     1      -3.223  10.122  17.470  0.00  0.00    +0.000 A 
ENDBRANCH  15  20
ENDBRANCH  13  15
ENDBRANCH   1  13
TORSDOF 4
ENDMDL
MODEL 9
REMARK VINA RESULT:      -7.1      6.643      8.242
REMARK  Name = 
REMARK  4 active torsions:
REMARK  status: ('A' for Active; 'I' for Inactive)
REMARK    1  A    between atoms: C_5  and  C_6
REMARK    2  A    between atoms: C_6  and  N_7
REMARK    3  A    between atoms: N_7  and  C_8
REMARK    4  A    between atoms: C_11  and  N_12
REMARK                            x       y       z     vdW  Elec       q    Type
REMARK                         _______ _______ _______ _____ _____    ______ ____
ROOT
ATOM      1  C   UNL     1       1.372   9.040  19.594  0.00  0.00    +0.000 A 
ATOM      2  C   UNL     1       1.561   7.945  20.434  0.00  0.00    +0.000 A 
ATOM      3  C   UNL     1       2.300   6.831  20.015  0.00  0.00    +0.000 A 
ATOM      4  C   UNL     1       2.854   6.757  18.735  0.00  0.00    +0.000 A 
ATOM      5  C   UNL     1       2.612   7.843  17.880  0.00  0.00    +0.000 A 
ATOM      6  C   UNL     1       1.864   8.953  18.291  0.00  0.00    +0.000 A 
ENDROOT
BRANCH   4   7
ATOM      7  N   UNL     1       3.570   5.660  18.293  0.00  0.00    +0.000 N 
ATOM      8  C   UNL     1       3.139   4.280  18.565  0.00  0.00    +0.000 C 
ATOM      9  C   UNL     1       4.063   3.599  19.583  0.00  0.00    +0.000 C 
ATOM     10  O   UNL     1       5.439   3.670  19.173  0.00  0.00    +0.000 OA
ATOM     11  C   UNL     1       5.846   5.044  19.050  0.00  0.00    +0.000 C 
ATOM     12  C   UNL     1       5.009   5.799  18.002  0.00  0.00    +0.000 C 
ENDBRANCH   4   7
BRANCH   1  13
ATOM     13  N   UNL     1       0.628  10.174  19.953  0.00  0.00    +0.000 N 
ATOM     14  H   UNL     1       1.128  10.698  20.672  0.00  0.00    +0.000 HD
BRANCH  13  15
ATOM     15  C   UNL     1       0.240  11.050  18.850  0.00  0.00    +0.000 C 
BRANCH  15  20
ATOM     16 CL   UNL     1      -5.678  11.095  17.668  0.00  0.00    +0.000 Cl
ATOM     17  C   UNL     1      -3.993  11.057  18.013  0.00  0.00    +0.000 A 
ATOM     18  C   UNL     1      -3.458  11.950  18.939  0.00  0.00    +0.000 A 
ATOM     19  C   UNL     1      -2.090  11.920  19.220  0.00  0.00    +0.000 A 
ATOM     20  C   UNL     1      -1.247  10.990  18.586  0.00  0.00    +0.000 A 
ATOM     21  C   UNL     1      -1.802  10.117  17.637  0.00  0.00    +0.000 A 
ATOM     22  C   UNL     1      -3.171  10.143  17.359  0.00  0.00    +0.000 A 
ENDBRANCH  15  20
ENDBRANCH  13  15
ENDBRANCH   1  13
TORSDOF 4
ENDMDL
