MODEL 1
REMARK VINA RESULT:      -7.9      0.000      0.000
REMARK  Name = 
REMARK  7 active torsions:
REMARK  status: ('A' for Active; 'I' for Inactive)
REMARK    1  A    between atoms: C_1  and  S_2
REMARK    2  A    between atoms: S_2  and  N_5
REMARK    3  A    between atoms: N_5  and  C_6
REMARK    4  A    between atoms: C_11  and  N_12
REMARK    5  A    between atoms: N_18  and  C_19
REMARK    6  A    between atoms: C_22  and  C_23
REMARK    7  A    between atoms: C_23  and  N_24
REMARK                            x       y       z     vdW  Elec       q    Type
REMARK                         _______ _______ _______ _____ _____    ______ ____
ROOT
ATOM      1  N   UNL     1       5.003   3.108  18.944  0.00  0.00    +0.000 N 
ATOM      2  C   UNL     1       5.924   4.122  18.646  0.00  0.00    +0.000 A 
ATOM      3  N   UNL     1       6.240   5.057  19.536  0.00  0.00    +0.000 NA
ATOM      4  C   UNL     1       6.997   6.044  19.084  0.00  0.00    +0.000 A 
ATOM      5  N   UNL     1       7.461   6.161  17.851  0.00  0.00    +0.000 NA
ATOM      6  C   UNL     1       7.110   5.172  17.034  0.00  0.00    +0.000 A 
ATOM      7  N   UNL     1       7.472   5.362  15.704  0.00  0.00    +0.000 N 
ATOM      8  N   UNL     1       6.387   4.120  17.406  0.00  0.00    +0.000 NA
ATOM      9  H   UNL     1       4.810   2.624  18.073  0.00  0.00    +0.000 HD
ATOM     10  H   UNL     1       7.845   6.297  15.611  0.00  0.00    +0.000 HD
ENDROOT
BRANCH   1  16
ATOM     11  C   UNL     1       2.791   4.111  19.265  0.00  0.00    +0.000 A 
ATOM     12  C   UNL     1       1.636   4.297  20.035  0.00  0.00    +0.000 A 
ATOM     13  C   UNL     1       1.463   3.593  21.225  0.00  0.00    +0.000 A 
ATOM     14  C   UNL     1       2.429   2.681  21.631  0.00  0.00    +0.000 A 
ATOM     15  C   UNL     1       3.581   2.500  20.867  0.00  0.00    +0.000 A 
ATOM     16  C   UNL     1       3.818   3.251  19.706  0.00  0.00    +0.000 A 
BRANCH  11  17
ATOM     17  N   UNL     1       2.935   4.851  18.026  0.00  0.00    +0.000 N 
ATOM     18  H   UNL     1       2.153   4.616  17.409  0.00  0.00    +0.000 HD
BRANCH  17  20
ATOM     19  C   UNL     1       4.146   7.017  17.013  0.00  0.00    +0.000 C 
ATOM     20  S   UNL     1       2.918   6.547  18.219  0.00  0.00    +0.000 S 
ATOM     21  O   UNL     1       3.415   6.877  19.530  0.00  0.00    +0.000 OA
ATOM     22  O   UNL     1       1.627   6.996  17.740  0.00  0.00    +0.000 OA
ENDBRANCH  17  20
ENDBRANCH  11  17
ENDBRANCH   1  16
BRANCH   7  23
ATOM     23  C   UNL     1       6.987   4.769  14.532  0.00  0.00    +0.000 A 
ATOM     24  C   UNL     1       5.762   4.093  14.585  0.00  0.00    +0.000 A 
ATOM     25  C   UNL     1       5.191   3.536  13.439  0.00  0.00    +0.000 A 
ATOM     26  C   UNL     1       5.821   3.664  12.196  0.00  0.00    +0.000 A 
ATOM     27  C   UNL     1       7.077   4.277  12.148  0.00  0.00    +0.000 A 
ATOM     28  C   UNL     1       7.641   4.835  13.298  0.00  0.00    +0.000 A 
BRANCH  26  29
ATOM     29  C   UNL     1       5.148   3.124  10.960  0.00  0.00    +0.000 C 
BRANCH  29  30
ATOM     30  N   UNL     1       3.691   3.224  11.022  0.00  0.00    +0.000 NA
ATOM     31  H   UNL     1       3.362   3.653  10.157  0.00  0.00    +0.000 HD
ATOM     32  H   UNL     1       3.437   3.865  11.771  0.00  0.00    +0.000 HD
ENDBRANCH  29  30
ENDBRANCH  26  29
ENDBRANCH   7  23
TORSDOF 6
ENDMDL
MODEL 2
REMARK VINA RESULT:      -7.8      1.139      1.506
REMARK  Name = 
REMARK  7 active torsions:
REMARK  status: ('A' for Active; 'I' for Inactive)
REMARK    1  A    between atoms: C_1  and  S_2
REMARK    2  A    between atoms: S_2  and  N_5
REMARK    3  A    between atoms: N_5  and  C_6
REMARK    4  A    between atoms: C_11  and  N_12
REMARK    5  A    between atoms: N_18  and  C_19
REMARK    6  A    between atoms: C_22  and  C_23
REMARK    7  A    between atoms: C_23  and  N_24
REMARK                            x       y       z     vdW  Elec       q    Type
REMARK                         _______ _______ _______ _____ _____    ______ ____
ROOT
ATOM      1  N   UNL     1       5.251   3.299  19.142  0.00  0.00    +0.000 N 
ATOM      2  C   UNL     1       6.137   4.314  18.751  0.00  0.00    +0.000 A 
ATOM      3  N   UNL     1       6.502   5.278  19.590  0.00  0.00    +0.000 NA
ATOM      4  C   UNL     1       7.213   6.259  19.057  0.00  0.00    +0.000 A 
ATOM      5  N   UNL     1       7.589   6.343  17.792  0.00  0.00    +0.000 NA
ATOM      6  C   UNL     1       7.195   5.326  17.031  0.00  0.00    +0.000 A 
ATOM      7  N   UNL     1       7.462   5.480  15.674  0.00  0.00    +0.000 N 
ATOM      8  N   UNL     1       6.513   4.278  17.483  0.00  0.00    +0.000 NA
ATOM      9  H   UNL     1       5.005   2.787  18.301  0.00  0.00    +0.000 HD
ATOM     10  H   UNL     1       7.815   6.416  15.528  0.00  0.00    +0.000 HD
ENDROOT
BRANCH   1  16
ATOM     11  C   UNL     1       3.462   4.697  20.063  0.00  0.00    +0.000 A 
ATOM     12  C   UNL     1       2.372   4.873  20.925  0.00  0.00    +0.000 A 
ATOM     13  C   UNL     1       1.890   3.803  21.676  0.00  0.00    +0.000 A 
ATOM     14  C   UNL     1       2.476   2.551  21.543  0.00  0.00    +0.000 A 
ATOM     15  C   UNL     1       3.564   2.377  20.689  0.00  0.00    +0.000 A 
ATOM     16  C   UNL     1       4.120   3.453  19.980  0.00  0.00    +0.000 A 
BRANCH  11  17
ATOM     17  N   UNL     1       3.933   5.829  19.287  0.00  0.00    +0.000 N 
ATOM     18  H   UNL     1       4.891   5.642  18.979  0.00  0.00    +0.000 HD
BRANCH  17  20
ATOM     19  C   UNL     1       2.216   7.663  18.355  0.00  0.00    +0.000 C 
ATOM     20  S   UNL     1       3.017   6.142  17.881  0.00  0.00    +0.000 S 
ATOM     21  O   UNL     1       2.011   5.121  17.737  0.00  0.00    +0.000 OA
ATOM     22  O   UNL     1       3.971   6.447  16.835  0.00  0.00    +0.000 OA
ENDBRANCH  17  20
ENDBRANCH  11  17
ENDBRANCH   1  16
BRANCH   7  23
ATOM     23  C   UNL     1       6.905   4.848  14.556  0.00  0.00    +0.000 A 
ATOM     24  C   UNL     1       7.684   4.730  13.399  0.00  0.00    +0.000 A 
ATOM     25  C   UNL     1       7.212   4.054  12.272  0.00  0.00    +0.000 A 
ATOM     26  C   UNL     1       5.949   3.450  12.282  0.00  0.00    +0.000 A 
ATOM     27  C   UNL     1       5.139   3.624  13.408  0.00  0.00    +0.000 A 
ATOM     28  C   UNL     1       5.619   4.299  14.534  0.00  0.00    +0.000 A 
BRANCH  26  29
ATOM     29  C   UNL     1       5.492   2.658  11.083  0.00  0.00    +0.000 C 
BRANCH  29  30
ATOM     30  N   UNL     1       5.922   1.262  11.133  0.00  0.00    +0.000 NA
ATOM     31  H   UNL     1       6.767   1.207  11.702  0.00  0.00    +0.000 HD
ATOM     32  H   UNL     1       6.190   0.967  10.196  0.00  0.00    +0.000 HD
ENDBRANCH  29  30
ENDBRANCH  26  29
ENDBRANCH   7  23
TORSDOF 6
ENDMDL
MODEL 3
REMARK VINA RESULT:      -7.8      1.005      1.068
REMARK  Name = 
REMARK  7 active torsions:
REMARK  status: ('A' for Active; 'I' for Inactive)
REMARK    1  A    between atoms: C_1  and  S_2
REMARK    2  A    between atoms: S_2  and  N_5
REMARK    3  A    between atoms: N_5  and  C_6
REMARK    4  A    between atoms: C_11  and  N_12
REMARK    5  A    between atoms: N_18  and  C_19
REMARK    6  A    between atoms: C_22  and  C_23
REMARK    7  A    between atoms: C_23  and  N_24
REMARK                            x       y       z     vdW  Elec       q    Type
REMARK                         _______ _______ _______ _____ _____    ______ ____
ROOT
ATOM      1  N   UNL     1       5.311   3.277  19.041  0.00  0.00    +0.000 N 
ATOM      2  C   UNL     1       6.213   4.269  18.629  0.00  0.00    +0.000 A 
ATOM      3  N   UNL     1       6.610   5.232  19.455  0.00  0.00    +0.000 NA
ATOM      4  C   UNL     1       7.335   6.193  18.905  0.00  0.00    +0.000 A 
ATOM      5  N   UNL     1       7.695   6.259  17.634  0.00  0.00    +0.000 NA
ATOM      6  C   UNL     1       7.269   5.246  16.887  0.00  0.00    +0.000 A 
ATOM      7  N   UNL     1       7.520   5.383  15.525  0.00  0.00    +0.000 N 
ATOM      8  N   UNL     1       6.571   4.216  17.356  0.00  0.00    +0.000 NA
ATOM      9  H   UNL     1       5.042   2.764  18.207  0.00  0.00    +0.000 HD
ATOM     10  H   UNL     1       7.891   6.310  15.366  0.00  0.00    +0.000 HD
ENDROOT
BRANCH   1  16
ATOM     11  C   UNL     1       3.563   4.719  19.971  0.00  0.00    +0.000 A 
ATOM     12  C   UNL     1       2.489   4.926  20.846  0.00  0.00    +0.000 A 
ATOM     13  C   UNL     1       1.997   3.873  21.615  0.00  0.00    +0.000 A 
ATOM     14  C   UNL     1       2.556   2.608  21.488  0.00  0.00    +0.000 A 
ATOM     15  C   UNL     1       3.629   2.405  20.620  0.00  0.00    +0.000 A 
ATOM     16  C   UNL     1       4.195   3.462  19.892  0.00  0.00    +0.000 A 
BRANCH  11  17
ATOM     17  N   UNL     1       4.045   5.833  19.176  0.00  0.00    +0.000 N 
ATOM     18  H   UNL     1       4.996   5.626  18.861  0.00  0.00    +0.000 HD
BRANCH  17  20
ATOM     19  C   UNL     1       2.314   7.661  18.257  0.00  0.00    +0.000 C 
ATOM     20  S   UNL     1       3.119   6.144  17.776  0.00  0.00    +0.000 S 
ATOM     21  O   UNL     1       2.117   5.119  17.635  0.00  0.00    +0.000 OA
ATOM     22  O   UNL     1       4.066   6.456  16.725  0.00  0.00    +0.000 OA
ENDBRANCH  17  20
ENDBRANCH  11  17
ENDBRANCH   1  16
BRANCH   7  23
ATOM     23  C   UNL     1       6.934   4.754  14.420  0.00  0.00    +0.000 A 
ATOM     24  C   UNL     1       5.675   4.163  14.581  0.00  0.00    +0.000 A 
ATOM     25  C   UNL     1       5.006   3.576  13.504  0.00  0.00    +0.000 A 
ATOM     26  C   UNL     1       5.571   3.589  12.224  0.00  0.00    +0.000 A 
ATOM     27  C   UNL     1       6.857   4.117  12.070  0.00  0.00    +0.000 A 
ATOM     28  C   UNL     1       7.519   4.705  13.151  0.00  0.00    +0.000 A 
BRANCH  26  29
ATOM     29  C   UNL     1       4.797   3.021  11.062  0.00  0.00    +0.000 C 
BRANCH  29  30
ATOM     30  N   UNL     1       3.690   3.882  10.647  0.00  0.00    +0.000 NA
ATOM     31  H   UNL     1       4.077   4.770  10.328  0.00  0.00    +0.000 HD
ATOM     32  H   UNL     1       3.118   4.097  11.461  0.00  0.00    +0.000 HD
ENDBRANCH  29  30
ENDBRANCH  26  29
ENDBRANCH   7  23
TORSDOF 6
ENDMDL
MODEL 4
REMARK VINA RESULT:      -7.7      0.651      1.128
REMARK  Name = 
REMARK  7 active torsions:
REMARK  status: ('A' for Active; 'I' for Inactive)
REMARK    1  A    between atoms: C_1  and  S_2
REMARK    2  A    between atoms: S_2  and  N_5
REMARK    3  A    between atoms: N_5  and  C_6
REMARK    4  A    between atoms: C_11  and  N_12
REMARK    5  A    between atoms: N_18  and  C_19
REMARK    6  A    between atoms: C_22  and  C_23
REMARK    7  A    between atoms: C_23  and  N_24
REMARK                            x       y       z     vdW  Elec       q    Type
REMARK                         _______ _______ _______ _____ _____    ______ ____
ROOT
ATOM      1  N   UNL     1       5.072   3.186  19.005  0.00  0.00    +0.000 N 
ATOM      2  C   UNL     1       5.942   4.237  18.680  0.00  0.00    +0.000 A 
ATOM      3  N   UNL     1       6.215   5.206  19.547  0.00  0.00    +0.000 NA
ATOM      4  C   UNL     1       6.922   6.218  19.069  0.00  0.00    +0.000 A 
ATOM      5  N   UNL     1       7.375   6.328  17.831  0.00  0.00    +0.000 NA
ATOM      6  C   UNL     1       7.070   5.305  17.039  0.00  0.00    +0.000 A 
ATOM      7  N   UNL     1       7.418   5.482  15.703  0.00  0.00    +0.000 N 
ATOM      8  N   UNL     1       6.400   4.228  17.438  0.00  0.00    +0.000 NA
ATOM      9  H   UNL     1       4.900   2.673  18.146  0.00  0.00    +0.000 HD
ATOM     10  H   UNL     1       7.744   6.431  15.587  0.00  0.00    +0.000 HD
ENDROOT
BRANCH   1  16
ATOM     11  C   UNL     1       2.841   4.138  19.347  0.00  0.00    +0.000 A 
ATOM     12  C   UNL     1       1.682   4.285  20.119  0.00  0.00    +0.000 A 
ATOM     13  C   UNL     1       1.523   3.552  21.293  0.00  0.00    +0.000 A 
ATOM     14  C   UNL     1       2.506   2.649  21.679  0.00  0.00    +0.000 A 
ATOM     15  C   UNL     1       3.661   2.508  20.912  0.00  0.00    +0.000 A 
ATOM     16  C   UNL     1       3.884   3.289  19.769  0.00  0.00    +0.000 A 
BRANCH  11  17
ATOM     17  N   UNL     1       2.971   4.909  18.124  0.00  0.00    +0.000 N 
ATOM     18  H   UNL     1       2.238   4.618  17.472  0.00  0.00    +0.000 HD
BRANCH  17  20
ATOM     19  C   UNL     1       4.029   7.187  17.190  0.00  0.00    +0.000 C 
ATOM     20  S   UNL     1       2.801   6.593  18.339  0.00  0.00    +0.000 S 
ATOM     21  O   UNL     1       3.215   6.944  19.673  0.00  0.00    +0.000 OA
ATOM     22  O   UNL     1       1.495   6.938  17.814  0.00  0.00    +0.000 OA
ENDBRANCH  17  20
ENDBRANCH  11  17
ENDBRANCH   1  16
BRANCH   7  23
ATOM     23  C   UNL     1       6.958   4.839  14.547  0.00  0.00    +0.000 A 
ATOM     24  C   UNL     1       7.755   4.887  13.397  0.00  0.00    +0.000 A 
ATOM     25  C   UNL     1       7.385   4.213  12.231  0.00  0.00    +0.000 A 
ATOM     26  C   UNL     1       6.215   3.447  12.192  0.00  0.00    +0.000 A 
ATOM     27  C   UNL     1       5.381   3.452  13.314  0.00  0.00    +0.000 A 
ATOM     28  C   UNL     1       5.758   4.126  14.479  0.00  0.00    +0.000 A 
BRANCH  26  29
ATOM     29  C   UNL     1       5.877   2.664  10.949  0.00  0.00    +0.000 C 
BRANCH  29  30
ATOM     30  N   UNL     1       6.112   1.230  11.104  0.00  0.00    +0.000 NA
ATOM     31  H   UNL     1       5.458   0.730  10.502  0.00  0.00    +0.000 HD
ATOM     32  H   UNL     1       5.883   0.960  12.058  0.00  0.00    +0.000 HD
ENDBRANCH  29  30
ENDBRANCH  26  29
ENDBRANCH   7  23
TORSDOF 6
ENDMDL
MODEL 5
REMARK VINA RESULT:      -7.6      5.363      7.784
REMARK  Name = 
REMARK  7 active torsions:
REMARK  status: ('A' for Active; 'I' for Inactive)
REMARK    1  A    between atoms: C_1  and  S_2
REMARK    2  A    between atoms: S_2  and  N_5
REMARK    3  A    between atoms: N_5  and  C_6
REMARK    4  A    between atoms: C_11  and  N_12
REMARK    5  A    between atoms: N_18  and  C_19
REMARK    6  A    between atoms: C_22  and  C_23
REMARK    7  A    between atoms: C_23  and  N_24
REMARK                            x       y       z     vdW  Elec       q    Type
REMARK                         _______ _______ _______ _____ _____    ______ ____
ROOT
ATOM      1  N   UNL     1       2.107   7.063  19.544  0.00  0.00    +0.000 N 
ATOM      2  C   UNL     1       1.626   8.108  20.346  0.00  0.00    +0.000 A 
ATOM      3  N   UNL     1       1.883   8.158  21.649  0.00  0.00    +0.000 NA
ATOM      4  C   UNL     1       1.244   9.103  22.321  0.00  0.00    +0.000 A 
ATOM      5  N   UNL     1       0.405   9.986  21.805  0.00  0.00    +0.000 NA
ATOM      6  C   UNL     1       0.223   9.873  20.493  0.00  0.00    +0.000 A 
ATOM      7  N   UNL     1      -0.766  10.702  19.971  0.00  0.00    +0.000 N 
ATOM      8  N   UNL     1       0.848   8.983  19.729  0.00  0.00    +0.000 NA
ATOM      9  H   UNL     1       1.655   7.157  18.640  0.00  0.00    +0.000 HD
ATOM     10  H   UNL     1      -1.234  11.157  20.743  0.00  0.00    +0.000 HD
ENDROOT
BRANCH   1  16
ATOM     11  C   UNL     1       3.439   5.030  19.850  0.00  0.00    +0.000 A 
ATOM     12  C   UNL     1       3.533   3.669  20.167  0.00  0.00    +0.000 A 
ATOM     13  C   UNL     1       2.409   2.969  20.600  0.00  0.00    +0.000 A 
ATOM     14  C   UNL     1       1.199   3.635  20.747  0.00  0.00    +0.000 A 
ATOM     15  C   UNL     1       1.105   4.989  20.427  0.00  0.00    +0.000 A 
ATOM     16  C   UNL     1       2.200   5.700  19.913  0.00  0.00    +0.000 A 
BRANCH  11  17
ATOM     17  N   UNL     1       4.631   5.732  19.412  0.00  0.00    +0.000 N 
ATOM     18  H   UNL     1       5.356   5.629  20.127  0.00  0.00    +0.000 HD
BRANCH  17  20
ATOM     19  C   UNL     1       5.940   6.654  17.263  0.00  0.00    +0.000 C 
ATOM     20  S   UNL     1       5.292   5.143  17.953  0.00  0.00    +0.000 S 
ATOM     21  O   UNL     1       4.225   4.674  17.106  0.00  0.00    +0.000 OA
ATOM     22  O   UNL     1       6.414   4.305  18.326  0.00  0.00    +0.000 OA
ENDBRANCH  17  20
ENDBRANCH  11  17
ENDBRANCH   1  16
BRANCH   7  23
ATOM     23  C   UNL     1      -1.484  10.623  18.772  0.00  0.00    +0.000 A 
ATOM     24  C   UNL     1      -2.599  11.454  18.608  0.00  0.00    +0.000 A 
ATOM     25  C   UNL     1      -3.320  11.471  17.412  0.00  0.00    +0.000 A 
ATOM     26  C   UNL     1      -2.926  10.673  16.332  0.00  0.00    +0.000 A 
ATOM     27  C   UNL     1      -1.856   9.791  16.514  0.00  0.00    +0.000 A 
ATOM     28  C   UNL     1      -1.137   9.781  17.712  0.00  0.00    +0.000 A 
BRANCH  26  29
ATOM     29  C   UNL     1      -3.671  10.766  15.024  0.00  0.00    +0.000 C 
BRANCH  29  30
ATOM     30  N   UNL     1      -2.890  10.269  13.893  0.00  0.00    +0.000 NA
ATOM     31  H   UNL     1      -2.939   9.250  13.894  0.00  0.00    +0.000 HD
ATOM     32  H   UNL     1      -1.911  10.506  14.040  0.00  0.00    +0.000 HD
ENDBRANCH  29  30
ENDBRANCH  26  29
ENDBRANCH   7  23
TORSDOF 6
ENDMDL
MODEL 6
REMARK VINA RESULT:      -7.4      2.235      3.294
REMARK  Name = 
REMARK  7 active torsions:
REMARK  status: ('A' for Active; 'I' for Inactive)
REMARK    1  A    between atoms: C_1  and  S_2
REMARK    2  A    between atoms: S_2  and  N_5
REMARK    3  A    between atoms: N_5  and  C_6
REMARK    4  A    between atoms: C_11  and  N_12
REMARK    5  A    between atoms: N_18  and  C_19
REMARK    6  A    between atoms: C_22  and  C_23
REMARK    7  A    between atoms: C_23  and  N_24
REMARK                            x       y       z     vdW  Elec       q    Type
REMARK                         _______ _______ _______ _____ _____    ______ ____
ROOT
ATOM      1  N   UNL     1       3.817   4.584  17.743  0.00  0.00    +0.000 N 
ATOM      2  C   UNL     1       5.159   4.504  17.341  0.00  0.00    +0.000 A 
ATOM      3  N   UNL     1       6.140   4.983  18.098  0.00  0.00    +0.000 NA
ATOM      4  C   UNL     1       7.341   4.990  17.540  0.00  0.00    +0.000 A 
ATOM      5  N   UNL     1       7.631   4.555  16.325  0.00  0.00    +0.000 NA
ATOM      6  C   UNL     1       6.592   4.076  15.648  0.00  0.00    +0.000 A 
ATOM      7  N   UNL     1       6.864   3.752  14.321  0.00  0.00    +0.000 N 
ATOM      8  N   UNL     1       5.359   3.992  16.137  0.00  0.00    +0.000 NA
ATOM      9  H   UNL     1       3.257   4.304  16.944  0.00  0.00    +0.000 HD
ATOM     10  H   UNL     1       7.802   4.062  14.109  0.00  0.00    +0.000 HD
ENDROOT
BRANCH   1  16
ATOM     11  C   UNL     1       2.833   5.538  19.773  0.00  0.00    +0.000 A 
ATOM     12  C   UNL     1       2.189   6.588  20.440  0.00  0.00    +0.000 A 
ATOM     13  C   UNL     1       1.958   7.797  19.788  0.00  0.00    +0.000 A 
ATOM     14  C   UNL     1       2.398   7.970  18.482  0.00  0.00    +0.000 A 
ATOM     15  C   UNL     1       3.035   6.922  17.817  0.00  0.00    +0.000 A 
ATOM     16  C   UNL     1       3.211   5.668  18.421  0.00  0.00    +0.000 A 
BRANCH  11  17
ATOM     17  N   UNL     1       3.068   4.295  20.484  0.00  0.00    +0.000 N 
ATOM     18  H   UNL     1       3.383   4.513  21.433  0.00  0.00    +0.000 HD
BRANCH  17  20
ATOM     19  C   UNL     1       2.081   2.020  19.468  0.00  0.00    +0.000 C 
ATOM     20  S   UNL     1       1.685   3.307  20.638  0.00  0.00    +0.000 S 
ATOM     21  O   UNL     1       0.534   4.026  20.156  0.00  0.00    +0.000 OA
ATOM     22  O   UNL     1       1.743   2.734  21.968  0.00  0.00    +0.000 OA
ENDBRANCH  17  20
ENDBRANCH  11  17
ENDBRANCH   1  16
BRANCH   7  23
ATOM     23  C   UNL     1       6.005   3.585  13.228  0.00  0.00    +0.000 A 
ATOM     24  C   UNL     1       6.260   2.536  12.337  0.00  0.00    +0.000 A 
ATOM     25  C   UNL     1       5.405   2.273  11.263  0.00  0.00    +0.000 A 
ATOM     26  C   UNL     1       4.252   3.041  11.067  0.00  0.00    +0.000 A 
ATOM     27  C   UNL     1       4.030   4.132  11.913  0.00  0.00    +0.000 A 
ATOM     28  C   UNL     1       4.887   4.388  12.988  0.00  0.00    +0.000 A 
BRANCH  26  29
ATOM     29  C   UNL     1       3.303   2.691   9.950  0.00  0.00    +0.000 C 
BRANCH  29  30
ATOM     30  N   UNL     1       2.920   3.853   9.150  0.00  0.00    +0.000 NA
ATOM     31  H   UNL     1       3.286   4.689   9.604  0.00  0.00    +0.000 HD
ATOM     32  H   UNL     1       1.906   3.942   9.164  0.00  0.00    +0.000 HD
ENDBRANCH  29  30
ENDBRANCH  26  29
ENDBRANCH   7  23
TORSDOF 6
ENDMDL
MODEL 7
REMARK VINA RESULT:      -7.4      2.044      3.104
REMARK  Name = 
REMARK  7 active torsions:
REMARK  status: ('A' for Active; 'I' for Inactive)
REMARK    1  A    between atoms: C_1  and  S_2
REMARK    2  A    between atoms: S_2  and  N_5
REMARK    3  A    between atoms: N_5  and  C_6
REMARK    4  A    between atoms: C_11  and  N_12
REMARK    5  A    between atoms: N_18  and  C_19
REMARK    6  A    between atoms: C_22  and  C_23
REMARK    7  A    between atoms: C_23  and  N_24
REMARK                            x       y       z     vdW  Elec       q    Type
REMARK                         _______ _______ _______ _____ _____    ______ ____
ROOT
ATOM      1  N   UNL     1       4.120   5.639  18.090  0.00  0.00    +0.000 N 
ATOM      2  C   UNL     1       5.439   5.863  17.671  0.00  0.00    +0.000 A 
ATOM      3  N   UNL     1       6.222   6.744  18.285  0.00  0.00    +0.000 NA
ATOM      4  C   UNL     1       7.387   6.978  17.701  0.00  0.00    +0.000 A 
ATOM      5  N   UNL     1       7.823   6.408  16.590  0.00  0.00    +0.000 NA
ATOM      6  C   UNL     1       6.983   5.527  16.056  0.00  0.00    +0.000 A 
ATOM      7  N   UNL     1       7.372   5.033  14.814  0.00  0.00    +0.000 N 
ATOM      8  N   UNL     1       5.811   5.197  16.589  0.00  0.00    +0.000 NA
ATOM      9  H   UNL     1       3.684   5.056  17.382  0.00  0.00    +0.000 HD
ATOM     10  H   UNL     1       8.190   5.547  14.515  0.00  0.00    +0.000 HD
ENDROOT
BRANCH   1  16
ATOM     11  C   UNL     1       2.601   6.481  19.818  0.00  0.00    +0.000 A 
ATOM     12  C   UNL     1       1.664   7.421  20.266  0.00  0.00    +0.000 A 
ATOM     13  C   UNL     1       1.360   8.536  19.488  0.00  0.00    +0.000 A 
ATOM     14  C   UNL     1       2.014   8.729  18.278  0.00  0.00    +0.000 A 
ATOM     15  C   UNL     1       2.942   7.791  17.830  0.00  0.00    +0.000 A 
ATOM     16  C   UNL     1       3.211   6.620  18.554  0.00  0.00    +0.000 A 
BRANCH  11  17
ATOM     17  N   UNL     1       2.903   5.337  20.656  0.00  0.00    +0.000 N 
ATOM     18  H   UNL     1       2.445   5.462  21.563  0.00  0.00    +0.000 HD
BRANCH  17  20
ATOM     19  C   UNL     1       1.672   3.112  21.504  0.00  0.00    +0.000 C 
ATOM     20  S   UNL     1       2.355   3.847  20.029  0.00  0.00    +0.000 S 
ATOM     21  O   UNL     1       3.490   3.064  19.611  0.00  0.00    +0.000 OA
ATOM     22  O   UNL     1       1.257   4.162  19.138  0.00  0.00    +0.000 OA
ENDBRANCH  17  20
ENDBRANCH  11  17
ENDBRANCH   1  16
BRANCH   7  23
ATOM     23  C   UNL     1       6.628   4.412  13.804  0.00  0.00    +0.000 A 
ATOM     24  C   UNL     1       5.282   4.120  14.053  0.00  0.00    +0.000 A 
ATOM     25  C   UNL     1       4.467   3.560  13.066  0.00  0.00    +0.000 A 
ATOM     26  C   UNL     1       4.974   3.299  11.788  0.00  0.00    +0.000 A 
ATOM     27  C   UNL     1       6.334   3.524  11.555  0.00  0.00    +0.000 A 
ATOM     28  C   UNL     1       7.143   4.088  12.545  0.00  0.00    +0.000 A 
BRANCH  26  29
ATOM     29  C   UNL     1       4.056   2.769  10.716  0.00  0.00    +0.000 C 
BRANCH  29  30
ATOM     30  N   UNL     1       3.232   3.814  10.111  0.00  0.00    +0.000 NA
ATOM     31  H   UNL     1       2.719   3.405   9.331  0.00  0.00    +0.000 HD
ATOM     32  H   UNL     1       3.842   4.523   9.710  0.00  0.00    +0.000 HD
ENDBRANCH  29  30
ENDBRANCH  26  29
ENDBRANCH   7  23
TORSDOF 6
ENDMDL
MODEL 8
REMARK VINA RESULT:      -7.4      5.475      7.935
REMARK  Name = 
REMARK  7 active torsions:
REMARK  status: ('A' for Active; 'I' for Inactive)
REMARK    1  A    between atoms: C_1  and  S_2
REMARK    2  A    between atoms: S_2  and  N_5
REMARK    3  A    between atoms: N_5  and  C_6
REMARK    4  A    between atoms: C_11  and  N_12
REMARK    5  A    between atoms: N_18  and  C_19
REMARK    6  A    between atoms: C_22  and  C_23
REMARK    7  A    between atoms: C_23  and  N_24
REMARK                            x       y       z     vdW  Elec       q    Type
REMARK                         _______ _______ _______ _____ _____    ______ ____
ROOT
ATOM      1  N   UNL     1       2.143   7.498  19.533  0.00  0.00    +0.000 N 
ATOM      2  C   UNL     1       1.532   8.438  20.376  0.00  0.00    +0.000 A 
ATOM      3  N   UNL     1       1.709   8.407  21.693  0.00  0.00    +0.000 NA
ATOM      4  C   UNL     1       0.957   9.245  22.390  0.00  0.00    +0.000 A 
ATOM      5  N   UNL     1       0.078  10.096  21.887  0.00  0.00    +0.000 NA
ATOM      6  C   UNL     1      -0.019  10.070  20.562  0.00  0.00    +0.000 A 
ATOM      7  N   UNL     1      -1.042  10.857  20.039  0.00  0.00    +0.000 N 
ATOM      8  N   UNL     1       0.720   9.294  19.776  0.00  0.00    +0.000 NA
ATOM      9  H   UNL     1       1.736   7.626  18.611  0.00  0.00    +0.000 HD
ATOM     10  H   UNL     1      -1.589  11.213  20.811  0.00  0.00    +0.000 HD
ENDROOT
BRANCH   1  16
ATOM     11  C   UNL     1       3.432   5.432  19.267  0.00  0.00    +0.000 A 
ATOM     12  C   UNL     1       3.597   4.060  19.494  0.00  0.00    +0.000 A 
ATOM     13  C   UNL     1       2.698   3.367  20.302  0.00  0.00    +0.000 A 
ATOM     14  C   UNL     1       1.652   4.050  20.909  0.00  0.00    +0.000 A 
ATOM     15  C   UNL     1       1.485   5.415  20.679  0.00  0.00    +0.000 A 
ATOM     16  C   UNL     1       2.328   6.122  19.808  0.00  0.00    +0.000 A 
BRANCH  11  17
ATOM     17  N   UNL     1       4.392   6.126  18.429  0.00  0.00    +0.000 N 
ATOM     18  H   UNL     1       4.520   7.074  18.791  0.00  0.00    +0.000 HD
BRANCH  17  20
ATOM     19  C   UNL     1       6.877   6.697  17.605  0.00  0.00    +0.000 C 
ATOM     20  S   UNL     1       5.936   5.400  18.389  0.00  0.00    +0.000 S 
ATOM     21  O   UNL     1       5.900   4.263  17.505  0.00  0.00    +0.000 OA
ATOM     22  O   UNL     1       6.374   5.302  19.766  0.00  0.00    +0.000 OA
ENDBRANCH  17  20
ENDBRANCH  11  17
ENDBRANCH   1  16
BRANCH   7  23
ATOM     23  C   UNL     1      -1.681  10.814  18.795  0.00  0.00    +0.000 A 
ATOM     24  C   UNL     1      -1.171   9.957  17.813  0.00  0.00    +0.000 A 
ATOM     25  C   UNL     1      -1.800   9.819  16.573  0.00  0.00    +0.000 A 
ATOM     26  C   UNL     1      -2.978  10.519  16.291  0.00  0.00    +0.000 A 
ATOM     27  C   UNL     1      -3.454  11.428  17.241  0.00  0.00    +0.000 A 
ATOM     28  C   UNL     1      -2.822  11.559  18.481  0.00  0.00    +0.000 A 
BRANCH  26  29
ATOM     29  C   UNL     1      -3.683  10.294  14.977  0.00  0.00    +0.000 C 
BRANCH  29  30
ATOM     30  N   UNL     1      -2.754  10.064  13.872  0.00  0.00    +0.000 NA
ATOM     31  H   UNL     1      -2.012   9.447  14.200  0.00  0.00    +0.000 HD
ATOM     32  H   UNL     1      -2.306  10.946  13.631  0.00  0.00    +0.000 HD
ENDBRANCH  29  30
ENDBRANCH  26  29
ENDBRANCH   7  23
TORSDOF 6
ENDMDL
MODEL 9
REMARK VINA RESULT:      -7.4      4.924      7.029
REMARK  Name = 
REMARK  7 active torsions:
REMARK  status: ('A' for Active; 'I' for Inactive)
REMARK    1  A    between atoms: C_1  and  S_2
REMARK    2  A    between atoms: S_2  and  N_5
REMARK    3  A    between atoms: N_5  and  C_6
REMARK    4  A    between atoms: C_11  and  N_12
REMARK    5  A    between atoms: N_18  and  C_19
REMARK    6  A    between atoms: C_22  and  C_23
REMARK    7  A    between atoms: C_23  and  N_24
REMARK                            x       y       z     vdW  Elec       q    Type
REMARK                         _______ _______ _______ _____ _____    ______ ____
ROOT
ATOM      1  N   UNL     1       1.258  10.010  18.093  0.00  0.00    +0.000 N 
ATOM      2  C   UNL     1       1.382   8.955  19.009  0.00  0.00    +0.000 A 
ATOM      3  N   UNL     1       0.973   9.076  20.267  0.00  0.00    +0.000 NA
ATOM      4  C   UNL     1       1.287   8.072  21.069  0.00  0.00    +0.000 A 
ATOM      5  N   UNL     1       1.947   6.980  20.720  0.00  0.00    +0.000 NA
ATOM      6  C   UNL     1       2.300   6.936  19.439  0.00  0.00    +0.000 A 
ATOM      7  N   UNL     1       3.118   5.861  19.100  0.00  0.00    +0.000 N 
ATOM      8  N   UNL     1       1.996   7.876  18.550  0.00  0.00    +0.000 NA
ATOM      9  H   UNL     1       1.777   9.738  17.263  0.00  0.00    +0.000 HD
ATOM     10  H   UNL     1       3.372   5.380  19.951  0.00  0.00    +0.000 HD
ENDROOT
BRANCH   1  16
ATOM     11  C   UNL     1       0.457  12.115  19.055  0.00  0.00    +0.000 A 
ATOM     12  C   UNL     1       0.615  13.487  19.292  0.00  0.00    +0.000 A 
ATOM     13  C   UNL     1       1.781  14.138  18.897  0.00  0.00    +0.000 A 
ATOM     14  C   UNL     1       2.802  13.415  18.294  0.00  0.00    +0.000 A 
ATOM     15  C   UNL     1       2.643  12.051  18.055  0.00  0.00    +0.000 A 
ATOM     16  C   UNL     1       1.449  11.385  18.370  0.00  0.00    +0.000 A 
BRANCH  11  17
ATOM     17  N   UNL     1      -0.765  11.464  19.488  0.00  0.00    +0.000 N 
ATOM     18  H   UNL     1      -1.067  11.885  20.371  0.00  0.00    +0.000 HD
BRANCH  17  20
ATOM     19  C   UNL     1      -2.403   9.907  18.048  0.00  0.00    +0.000 C 
ATOM     20  S   UNL     1      -2.066  11.624  18.395  0.00  0.00    +0.000 S 
ATOM     21  O   UNL     1      -1.595  12.252  17.188  0.00  0.00    +0.000 OA
ATOM     22  O   UNL     1      -3.177  12.150  19.163  0.00  0.00    +0.000 OA
ENDBRANCH  17  20
ENDBRANCH  11  17
ENDBRANCH   1  16
BRANCH   7  23
ATOM     23  C   UNL     1       3.967   5.671  18.003  0.00  0.00    +0.000 A 
ATOM     24  C   UNL     1       4.213   4.363  17.570  0.00  0.00    +0.000 A 
ATOM     25  C   UNL     1       4.998   4.108  16.443  0.00  0.00    +0.000 A 
ATOM     26  C   UNL     1       5.541   5.163  15.700  0.00  0.00    +0.000 A 
ATOM     27  C   UNL     1       5.357   6.467  16.168  0.00  0.00    +0.000 A 
ATOM     28  C   UNL     1       4.567   6.716  17.294  0.00  0.00    +0.000 A 
BRANCH  26  29
ATOM     29  C   UNL     1       6.319   4.867  14.443  0.00  0.00    +0.000 C 
BRANCH  29  30
ATOM     30  N   UNL     1       7.672   5.419  14.474  0.00  0.00    +0.000 NA
ATOM     31  H   UNL     1       7.741   6.051  15.272  0.00  0.00    +0.000 HD
ATOM     32  H   UNL     1       7.812   5.992  13.645  0.00  0.00    +0.000 HD
ENDBRANCH  29  30
ENDBRANCH  26  29
ENDBRANCH   7  23
TORSDOF 6
ENDMDL
