MODEL 1
REMARK VINA RESULT:      -6.7      0.000      0.000
REMARK  Name = 
REMARK  5 active torsions:
REMARK  status: ('A' for Active; 'I' for Inactive)
REMARK    1  A    between atoms: N1_5  and  C1*_6
REMARK    2  A    between atoms: C4*_8  and  C5*_9
REMARK    3  A    between atoms: C5*_9  and  O5*_10
REMARK    4  A    between atoms: C3*_11  and  O3*_12
REMARK    5  A    between atoms: C2*_13  and  O2*_14
REMARK                            x       y       z     vdW  Elec       q    Type
REMARK                         _______ _______ _______ _____ _____    ______ ____
ROOT
ATOM      1  C1*   C A   1       4.392   4.002  19.475  0.00  0.00    +0.000 C 
ATOM      2  O4*   C A   1       3.844   2.741  19.048  0.00  0.00    +0.000 OA
ATOM      3  C4*   C A   1       2.449   2.719  19.397  0.00  0.00    +0.000 C 
ATOM      4  C3*   C A   1       2.022   4.169  19.569  0.00  0.00    +0.000 C 
ATOM      5  C2*   C A   1       3.270   4.800  20.162  0.00  0.00    +0.000 C 
ENDROOT
BRANCH   1  10
ATOM      6  N4    C A   1       7.557   5.259  15.254  0.00  0.00    +0.000 N 
ATOM      7  C4    C A   1       6.667   5.197  16.286  0.00  0.00    +0.000 A 
ATOM      8  C5    C A   1       5.230   5.025  16.023  0.00  0.00    +0.000 A 
ATOM      9  C6    C A   1       4.491   4.684  17.083  0.00  0.00    +0.000 A 
ATOM     10  N1    C A   1       5.043   4.632  18.346  0.00  0.00    +0.000 N 
ATOM     11  C2    C A   1       6.335   5.074  18.571  0.00  0.00    +0.000 A 
ATOM     12  O2    C A   1       6.750   5.311  19.707  0.00  0.00    +0.000 OA
ATOM     13  N3    C A   1       7.145   5.262  17.484  0.00  0.00    +0.000 NA
ATOM     14  H41   C A   1       7.345   5.888  14.490  0.00  0.00    +0.000 HD
ATOM     15  H42   C A   1       8.525   5.379  15.561  0.00  0.00    +0.000 HD
ENDBRANCH   1  10
BRANCH   4  16
ATOM     16  O3*   C A   1       0.867   4.294  20.388  0.00  0.00    +0.000 OA
ATOM     17  H3*   C A   1       1.141   4.401  21.316  0.00  0.00    +0.000 HD
ENDBRANCH   4  16
BRANCH   5  18
ATOM     18  O2*   C A   1       3.295   6.213  20.002  0.00  0.00    +0.000 OA
ATOM     19  H2*   C A   1       2.683   6.608  20.645  0.00  0.00    +0.000 HD
ENDBRANCH   5  18
BRANCH   3  20
ATOM     20  C5*   C A   1       1.680   2.008  18.290  0.00  0.00    +0.000 C 
BRANCH  20  21
ATOM     21  O5*   C A   1       0.275   2.177  18.478  0.00  0.00    +0.000 OA
ATOM     22  H5*   C A   1       0.173   2.824  19.203  0.00  0.00    +0.000 HD
ENDBRANCH  20  21
ENDBRANCH   3  20
TORSDOF 5
ENDMDL
MODEL 2
REMARK VINA RESULT:      -6.6      1.352      1.397
REMARK  Name = 
REMARK  5 active torsions:
REMARK  status: ('A' for Active; 'I' for Inactive)
REMARK    1  A    between atoms: N1_5  and  C1*_6
REMARK    2  A    between atoms: C4*_8  and  C5*_9
REMARK    3  A    between atoms: C5*_9  and  O5*_10
REMARK    4  A    between atoms: C3*_11  and  O3*_12
REMARK    5  A    between atoms: C2*_13  and  O2*_14
REMARK                            x       y       z     vdW  Elec       q    Type
REMARK                         _______ _______ _______ _____ _____    ______ ____
ROOT
ATOM      1  C1*   C A   1       5.308   4.688  18.890  0.00  0.00    +0.000 C 
ATOM      2  O4*   C A   1       5.278   3.252  18.988  0.00  0.00    +0.000 OA
ATOM      3  C4*   C A   1       4.001   2.867  19.528  0.00  0.00    +0.000 C 
ATOM      4  C3*   C A   1       3.055   4.032  19.275  0.00  0.00    +0.000 C 
ATOM      5  C2*   C A   1       3.975   5.230  19.435  0.00  0.00    +0.000 C 
ENDROOT
BRANCH   1  10
ATOM      6  N4    C A   1       7.638   5.258  14.026  0.00  0.00    +0.000 N 
ATOM      7  C4    C A   1       6.883   5.309  15.161  0.00  0.00    +0.000 A 
ATOM      8  C5    C A   1       5.554   4.682  15.202  0.00  0.00    +0.000 A 
ATOM      9  C6    C A   1       5.029   4.530  16.422  0.00  0.00    +0.000 A 
ATOM     10  N1    C A   1       5.656   5.054  17.533  0.00  0.00    +0.000 N 
ATOM     11  C2    C A   1       6.763   5.873  17.401  0.00  0.00    +0.000 A 
ATOM     12  O2    C A   1       7.163   6.578  18.329  0.00  0.00    +0.000 OA
ATOM     13  N3    C A   1       7.400   5.896  16.190  0.00  0.00    +0.000 NA
ATOM     14  H41   C A   1       7.192   5.514  13.156  0.00  0.00    +0.000 HD
ATOM     15  H42   C A   1       8.542   5.728  14.120  0.00  0.00    +0.000 HD
ENDBRANCH   1  10
BRANCH   4  16
ATOM     16  O3*   C A   1       1.950   4.028  20.168  0.00  0.00    +0.000 OA
ATOM     17  H3*   C A   1       1.879   4.900  20.595  0.00  0.00    +0.000 HD
ENDBRANCH   4  16
BRANCH   5  18
ATOM     18  O2*   C A   1       3.456   6.401  18.817  0.00  0.00    +0.000 OA
ATOM     19  H2*   C A   1       3.391   7.102  19.487  0.00  0.00    +0.000 HD
ENDBRANCH   5  18
BRANCH   3  20
ATOM     20  C5*   C A   1       3.549   1.583  18.844  0.00  0.00    +0.000 C 
BRANCH  20  21
ATOM     21  O5*   C A   1       2.198   1.710  18.400  0.00  0.00    +0.000 OA
ATOM     22  H5*   C A   1       2.185   1.401  17.473  0.00  0.00    +0.000 HD
ENDBRANCH  20  21
ENDBRANCH   3  20
TORSDOF 5
ENDMDL
MODEL 3
REMARK VINA RESULT:      -6.5      2.469      5.581
REMARK  Name = 
REMARK  5 active torsions:
REMARK  status: ('A' for Active; 'I' for Inactive)
REMARK    1  A    between atoms: N1_5  and  C1*_6
REMARK    2  A    between atoms: C4*_8  and  C5*_9
REMARK    3  A    between atoms: C5*_9  and  O5*_10
REMARK    4  A    between atoms: C3*_11  and  O3*_12
REMARK    5  A    between atoms: C2*_13  and  O2*_14
REMARK                            x       y       z     vdW  Elec       q    Type
REMARK                         _______ _______ _______ _____ _____    ______ ____
ROOT
ATOM      1  C1*   C A   1       5.413   4.227  17.741  0.00  0.00    +0.000 C 
ATOM      2  O4*   C A   1       6.431   4.320  18.755  0.00  0.00    +0.000 OA
ATOM      3  C4*   C A   1       7.440   5.235  18.292  0.00  0.00    +0.000 C 
ATOM      4  C3*   C A   1       6.784   6.100  17.225  0.00  0.00    +0.000 C 
ATOM      5  C2*   C A   1       5.834   5.118  16.560  0.00  0.00    +0.000 C 
ENDROOT
BRANCH   1  10
ATOM      6  N4    C A   1       0.744   4.068  20.497  0.00  0.00    +0.000 N 
ATOM      7  C4    C A   1       1.823   4.345  19.710  0.00  0.00    +0.000 A 
ATOM      8  C5    C A   1       2.823   5.336  20.135  0.00  0.00    +0.000 A 
ATOM      9  C6    C A   1       3.972   5.320  19.451  0.00  0.00    +0.000 A 
ATOM     10  N1    C A   1       4.128   4.510  18.347  0.00  0.00    +0.000 N 
ATOM     11  C2    C A   1       3.056   3.804  17.829  0.00  0.00    +0.000 A 
ATOM     12  O2    C A   1       3.088   3.313  16.700  0.00  0.00    +0.000 OA
ATOM     13  N3    C A   1       1.937   3.681  18.607  0.00  0.00    +0.000 NA
ATOM     14  H41   C A   1       0.214   4.850  20.856  0.00  0.00    +0.000 HD
ATOM     15  H42   C A   1       0.121   3.363  20.097  0.00  0.00    +0.000 HD
ENDBRANCH   1  10
BRANCH   4  16
ATOM     16  O3*   C A   1       7.737   6.672  16.340  0.00  0.00    +0.000 OA
ATOM     17  H3*   C A   1       7.807   7.626  16.516  0.00  0.00    +0.000 HD
ENDBRANCH   4  16
BRANCH   5  18
ATOM     18  O2*   C A   1       4.793   5.770  15.843  0.00  0.00    +0.000 OA
ATOM     19  H2*   C A   1       5.154   6.575  15.436  0.00  0.00    +0.000 HD
ENDBRANCH   5  18
BRANCH   3  20
ATOM     20  C5*   C A   1       7.943   6.048  19.479  0.00  0.00    +0.000 C 
BRANCH  20  21
ATOM     21  O5*   C A   1       8.084   5.210  20.625  0.00  0.00    +0.000 OA
ATOM     22  H5*   C A   1       7.306   5.386  21.190  0.00  0.00    +0.000 HD
ENDBRANCH  20  21
ENDBRANCH   3  20
TORSDOF 5
ENDMDL
MODEL 4
REMARK VINA RESULT:      -6.5      1.199      1.256
REMARK  Name = 
REMARK  5 active torsions:
REMARK  status: ('A' for Active; 'I' for Inactive)
REMARK    1  A    between atoms: N1_5  and  C1*_6
REMARK    2  A    between atoms: C4*_8  and  C5*_9
REMARK    3  A    between atoms: C5*_9  and  O5*_10
REMARK    4  A    between atoms: C3*_11  and  O3*_12
REMARK    5  A    between atoms: C2*_13  and  O2*_14
REMARK                            x       y       z     vdW  Elec       q    Type
REMARK                         _______ _______ _______ _____ _____    ______ ____
ROOT
ATOM      1  C1*   C A   1       5.081   3.616  18.591  0.00  0.00    +0.000 C 
ATOM      2  O4*   C A   1       4.079   2.691  18.128  0.00  0.00    +0.000 OA
ATOM      3  C4*   C A   1       2.875   2.922  18.879  0.00  0.00    +0.000 C 
ATOM      4  C3*   C A   1       2.978   4.333  19.440  0.00  0.00    +0.000 C 
ATOM      5  C2*   C A   1       4.465   4.454  19.726  0.00  0.00    +0.000 C 
ENDROOT
BRANCH   1  10
ATOM      6  N4    C A   1       7.620   5.183  14.062  0.00  0.00    +0.000 N 
ATOM      7  C4    C A   1       6.914   5.052  15.222  0.00  0.00    +0.000 A 
ATOM      8  C5    C A   1       5.444   5.059  15.207  0.00  0.00    +0.000 A 
ATOM      9  C6    C A   1       4.857   4.635  16.331  0.00  0.00    +0.000 A 
ATOM     10  N1    C A   1       5.603   4.343  17.453  0.00  0.00    +0.000 N 
ATOM     11  C2    C A   1       6.959   4.620  17.494  0.00  0.00    +0.000 A 
ATOM     12  O2    C A   1       7.584   4.645  18.556  0.00  0.00    +0.000 OA
ATOM     13  N3    C A   1       7.591   4.891  16.311  0.00  0.00    +0.000 NA
ATOM     14  H41   C A   1       7.359   5.935  13.439  0.00  0.00    +0.000 HD
ATOM     15  H42   C A   1       8.632   5.163  14.199  0.00  0.00    +0.000 HD
ENDBRANCH   1  10
BRANCH   4  16
ATOM     16  O3*   C A   1       2.153   4.517  20.582  0.00  0.00    +0.000 OA
ATOM     17  H3*   C A   1       2.714   4.677  21.361  0.00  0.00    +0.000 HD
ENDBRANCH   4  16
BRANCH   5  18
ATOM     18  O2*   C A   1       4.891   5.806  19.830  0.00  0.00    +0.000 OA
ATOM     19  H2*   C A   1       5.817   5.863  19.540  0.00  0.00    +0.000 HD
ENDBRANCH   5  18
BRANCH   3  20
ATOM     20  C5*   C A   1       1.679   2.745  17.951  0.00  0.00    +0.000 C 
BRANCH  20  21
ATOM     21  O5*   C A   1       1.162   4.018  17.565  0.00  0.00    +0.000 OA
ATOM     22  H5*   C A   1       0.189   3.931  17.569  0.00  0.00    +0.000 HD
ENDBRANCH  20  21
ENDBRANCH   3  20
TORSDOF 5
ENDMDL
MODEL 5
REMARK VINA RESULT:      -6.5      1.732      2.902
REMARK  Name = 
REMARK  5 active torsions:
REMARK  status: ('A' for Active; 'I' for Inactive)
REMARK    1  A    between atoms: N1_5  and  C1*_6
REMARK    2  A    between atoms: C4*_8  and  C5*_9
REMARK    3  A    between atoms: C5*_9  and  O5*_10
REMARK    4  A    between atoms: C3*_11  and  O3*_12
REMARK    5  A    between atoms: C2*_13  and  O2*_14
REMARK                            x       y       z     vdW  Elec       q    Type
REMARK                         _______ _______ _______ _____ _____    ______ ____
ROOT
ATOM      1  C1*   C A   1       3.411   3.886  17.396  0.00  0.00    +0.000 C 
ATOM      2  O4*   C A   1       2.398   4.631  18.099  0.00  0.00    +0.000 OA
ATOM      3  C4*   C A   1       1.503   3.693  18.721  0.00  0.00    +0.000 C 
ATOM      4  C3*   C A   1       2.263   2.379  18.835  0.00  0.00    +0.000 C 
ATOM      5  C2*   C A   1       3.105   2.389  17.570  0.00  0.00    +0.000 C 
ENDROOT
BRANCH   1  10
ATOM      6  N4    C A   1       7.951   6.683  18.386  0.00  0.00    +0.000 N 
ATOM      7  C4    C A   1       6.941   5.775  18.260  0.00  0.00    +0.000 A 
ATOM      8  C5    C A   1       6.095   5.434  19.413  0.00  0.00    +0.000 A 
ATOM      9  C6    C A   1       4.970   4.773  19.122  0.00  0.00    +0.000 A 
ATOM     10  N1    C A   1       4.712   4.342  17.838  0.00  0.00    +0.000 N 
ATOM     11  C2    C A   1       5.674   4.451  16.849  0.00  0.00    +0.000 A 
ATOM     12  O2    C A   1       5.588   3.825  15.791  0.00  0.00    +0.000 OA
ATOM     13  N3    C A   1       6.747   5.265  17.088  0.00  0.00    +0.000 NA
ATOM     14  H41   C A   1       8.587   6.569  19.164  0.00  0.00    +0.000 HD
ATOM     15  H42   C A   1       8.467   6.838  17.518  0.00  0.00    +0.000 HD
ENDBRANCH   1  10
BRANCH   4  16
ATOM     16  O3*   C A   1       1.390   1.263  18.940  0.00  0.00    +0.000 OA
ATOM     17  H3*   C A   1       0.731   1.302  18.225  0.00  0.00    +0.000 HD
ENDBRANCH   4  16
BRANCH   5  18
ATOM     18  O2*   C A   1       4.220   1.510  17.652  0.00  0.00    +0.000 OA
ATOM     19  H2*   C A   1       3.973   0.659  17.251  0.00  0.00    +0.000 HD
ENDBRANCH   5  18
BRANCH   3  20
ATOM     20  C5*   C A   1       1.081   4.246  20.077  0.00  0.00    +0.000 C 
BRANCH  20  21
ATOM     21  O5*   C A   1       0.782   3.178  20.974  0.00  0.00    +0.000 OA
ATOM     22  H5*   C A   1       1.552   3.097  21.570  0.00  0.00    +0.000 HD
ENDBRANCH  20  21
ENDBRANCH   3  20
TORSDOF 5
ENDMDL
MODEL 6
REMARK VINA RESULT:      -6.4      1.770      2.497
REMARK  Name = 
REMARK  5 active torsions:
REMARK  status: ('A' for Active; 'I' for Inactive)
REMARK    1  A    between atoms: N1_5  and  C1*_6
REMARK    2  A    between atoms: C4*_8  and  C5*_9
REMARK    3  A    between atoms: C5*_9  and  O5*_10
REMARK    4  A    between atoms: C3*_11  and  O3*_12
REMARK    5  A    between atoms: C2*_13  and  O2*_14
REMARK                            x       y       z     vdW  Elec       q    Type
REMARK                         _______ _______ _______ _____ _____    ______ ____
ROOT
ATOM      1  C1*   C A   1       3.758   4.681  18.407  0.00  0.00    +0.000 C 
ATOM      2  O4*   C A   1       4.557   3.962  19.366  0.00  0.00    +0.000 OA
ATOM      3  C4*   C A   1       3.774   2.864  19.867  0.00  0.00    +0.000 C 
ATOM      4  C3*   C A   1       2.686   2.601  18.835  0.00  0.00    +0.000 C 
ATOM      5  C2*   C A   1       2.380   4.002  18.333  0.00  0.00    +0.000 C 
ENDROOT
BRANCH   1  10
ATOM      6  N4    C A   1       7.506   5.491  14.571  0.00  0.00    +0.000 N 
ATOM      7  C4    C A   1       6.398   5.239  15.326  0.00  0.00    +0.000 A 
ATOM      8  C5    C A   1       5.934   3.859  15.534  0.00  0.00    +0.000 A 
ATOM      9  C6    C A   1       5.035   3.698  16.510  0.00  0.00    +0.000 A 
ATOM     10  N1    C A   1       4.502   4.785  17.169  0.00  0.00    +0.000 N 
ATOM     11  C2    C A   1       4.771   6.074  16.742  0.00  0.00    +0.000 A 
ATOM     12  O2    C A   1       4.095   7.035  17.115  0.00  0.00    +0.000 OA
ATOM     13  N3    C A   1       5.806   6.253  15.865  0.00  0.00    +0.000 NA
ATOM     14  H41   C A   1       7.566   5.046  13.665  0.00  0.00    +0.000 HD
ATOM     15  H42   C A   1       7.730   6.486  14.500  0.00  0.00    +0.000 HD
ENDBRANCH   1  10
BRANCH   4  16
ATOM     16  O3*   C A   1       1.567   1.931  19.397  0.00  0.00    +0.000 OA
ATOM     17  H3*   C A   1       1.549   2.083  20.358  0.00  0.00    +0.000 HD
ENDBRANCH   4  16
BRANCH   5  18
ATOM     18  O2*   C A   1       1.733   3.996  17.066  0.00  0.00    +0.000 OA
ATOM     19  H2*   C A   1       1.347   3.116  16.919  0.00  0.00    +0.000 HD
ENDBRANCH   5  18
BRANCH   3  20
ATOM     20  C5*   C A   1       4.691   1.664  20.072  0.00  0.00    +0.000 C 
BRANCH  20  21
ATOM     21  O5*   C A   1       4.529   0.732  19.005  0.00  0.00    +0.000 OA
ATOM     22  H5*   C A   1       5.428   0.439  18.759  0.00  0.00    +0.000 HD
ENDBRANCH  20  21
ENDBRANCH   3  20
TORSDOF 5
ENDMDL
MODEL 7
REMARK VINA RESULT:      -6.4      2.450      5.698
REMARK  Name = 
REMARK  5 active torsions:
REMARK  status: ('A' for Active; 'I' for Inactive)
REMARK    1  A    between atoms: N1_5  and  C1*_6
REMARK    2  A    between atoms: C4*_8  and  C5*_9
REMARK    3  A    between atoms: C5*_9  and  O5*_10
REMARK    4  A    between atoms: C3*_11  and  O3*_12
REMARK    5  A    between atoms: C2*_13  and  O2*_14
REMARK                            x       y       z     vdW  Elec       q    Type
REMARK                         _______ _______ _______ _____ _____    ______ ____
ROOT
ATOM      1  C1*   C A   1       5.759   4.048  17.946  0.00  0.00    +0.000 C 
ATOM      2  O4*   C A   1       6.691   4.862  18.682  0.00  0.00    +0.000 OA
ATOM      3  C4*   C A   1       7.532   5.546  17.737  0.00  0.00    +0.000 C 
ATOM      4  C3*   C A   1       6.780   5.554  16.414  0.00  0.00    +0.000 C 
ATOM      5  C2*   C A   1       6.064   4.215  16.447  0.00  0.00    +0.000 C 
ENDROOT
BRANCH   1  10
ATOM      6  N4    C A   1       1.077   4.572  20.634  0.00  0.00    +0.000 N 
ATOM      7  C4    C A   1       2.121   4.563  19.755  0.00  0.00    +0.000 A 
ATOM      8  C5    C A   1       2.891   5.789  19.498  0.00  0.00    +0.000 A 
ATOM      9  C6    C A   1       4.053   5.613  18.862  0.00  0.00    +0.000 A 
ATOM     10  N1    C A   1       4.416   4.373  18.378  0.00  0.00    +0.000 N 
ATOM     11  C2    C A   1       3.525   3.314  18.407  0.00  0.00    +0.000 A 
ATOM     12  O2    C A   1       3.706   2.298  17.735  0.00  0.00    +0.000 OA
ATOM     13  N3    C A   1       2.414   3.436  19.196  0.00  0.00    +0.000 NA
ATOM     14  H41   C A   1       0.390   5.307  20.536  0.00  0.00    +0.000 HD
ATOM     15  H42   C A   1       0.621   3.662  20.729  0.00  0.00    +0.000 HD
ENDBRANCH   1  10
BRANCH   4  16
ATOM     16  O3*   C A   1       7.651   5.717  15.304  0.00  0.00    +0.000 OA
ATOM     17  H3*   C A   1       8.286   6.429  15.495  0.00  0.00    +0.000 HD
ENDBRANCH   4  16
BRANCH   5  18
ATOM     18  O2*   C A   1       4.956   4.168  15.556  0.00  0.00    +0.000 OA
ATOM     19  H2*   C A   1       5.176   3.573  14.820  0.00  0.00    +0.000 HD
ENDBRANCH   5  18
BRANCH   3  20
ATOM     20  C5*   C A   1       7.815   6.949  18.261  0.00  0.00    +0.000 C 
BRANCH  20  21
ATOM     21  O5*   C A   1       7.739   7.897  17.197  0.00  0.00    +0.000 OA
ATOM     22  H5*   C A   1       8.515   7.731  16.627  0.00  0.00    +0.000 HD
ENDBRANCH  20  21
ENDBRANCH   3  20
TORSDOF 5
ENDMDL
MODEL 8
REMARK VINA RESULT:      -6.3      2.659      5.255
REMARK  Name = 
REMARK  5 active torsions:
REMARK  status: ('A' for Active; 'I' for Inactive)
REMARK    1  A    between atoms: N1_5  and  C1*_6
REMARK    2  A    between atoms: C4*_8  and  C5*_9
REMARK    3  A    between atoms: C5*_9  and  O5*_10
REMARK    4  A    between atoms: C3*_11  and  O3*_12
REMARK    5  A    between atoms: C2*_13  and  O2*_14
REMARK                            x       y       z     vdW  Elec       q    Type
REMARK                         _______ _______ _______ _____ _____    ______ ____
ROOT
ATOM      1  C1*   C A   1       4.664   5.280  17.536  0.00  0.00    +0.000 C 
ATOM      2  O4*   C A   1       4.439   5.376  16.117  0.00  0.00    +0.000 OA
ATOM      3  C4*   C A   1       5.688   5.127  15.449  0.00  0.00    +0.000 C 
ATOM      4  C3*   C A   1       6.563   4.366  16.434  0.00  0.00    +0.000 C 
ATOM      5  C2*   C A   1       6.156   4.982  17.762  0.00  0.00    +0.000 C 
ENDROOT
BRANCH   1  10
ATOM      6  N4    C A   1       0.250   2.683  19.323  0.00  0.00    +0.000 N 
ATOM      7  C4    C A   1       1.495   3.126  18.983  0.00  0.00    +0.000 A 
ATOM      8  C5    C A   1       2.216   2.527  17.849  0.00  0.00    +0.000 A 
ATOM      9  C6    C A   1       3.279   3.215  17.419  0.00  0.00    +0.000 A 
ATOM     10  N1    C A   1       3.719   4.334  18.093  0.00  0.00    +0.000 N 
ATOM     11  C2    C A   1       3.166   4.690  19.311  0.00  0.00    +0.000 A 
ATOM     12  O2    C A   1       3.719   5.494  20.063  0.00  0.00    +0.000 OA
ATOM     13  N3    C A   1       1.985   4.102  19.672  0.00  0.00    +0.000 NA
ATOM     14  H41   C A   1       0.118   1.684  19.415  0.00  0.00    +0.000 HD
ATOM     15  H42   C A   1      -0.149   3.175  20.125  0.00  0.00    +0.000 HD
ENDBRANCH   1  10
BRANCH   4  16
ATOM     16  O3*   C A   1       7.945   4.498  16.135  0.00  0.00    +0.000 OA
ATOM     17  H3*   C A   1       8.225   3.754  15.573  0.00  0.00    +0.000 HD
ENDBRANCH   4  16
BRANCH   5  18
ATOM     18  O2*   C A   1       6.487   4.155  18.870  0.00  0.00    +0.000 OA
ATOM     19  H2*   C A   1       6.050   3.294  18.755  0.00  0.00    +0.000 HD
ENDBRANCH   5  18
BRANCH   3  20
ATOM     20  C5*   C A   1       5.411   4.334  14.176  0.00  0.00    +0.000 C 
BRANCH  20  21
ATOM     21  O5*   C A   1       6.419   3.344  13.983  0.00  0.00    +0.000 OA
ATOM     22  H5*   C A   1       6.019   2.492  14.244  0.00  0.00    +0.000 HD
ENDBRANCH  20  21
ENDBRANCH   3  20
TORSDOF 5
ENDMDL
MODEL 9
REMARK VINA RESULT:      -6.3      2.635      3.867
REMARK  Name = 
REMARK  5 active torsions:
REMARK  status: ('A' for Active; 'I' for Inactive)
REMARK    1  A    between atoms: N1_5  and  C1*_6
REMARK    2  A    between atoms: C4*_8  and  C5*_9
REMARK    3  A    between atoms: C5*_9  and  O5*_10
REMARK    4  A    between atoms: C3*_11  and  O3*_12
REMARK    5  A    between atoms: C2*_13  and  O2*_14
REMARK                            x       y       z     vdW  Elec       q    Type
REMARK                         _______ _______ _______ _____ _____    ______ ____
ROOT
ATOM      1  C1*   C A   1       3.511   4.204  18.194  0.00  0.00    +0.000 C 
ATOM      2  O4*   C A   1       2.390   3.478  18.731  0.00  0.00    +0.000 OA
ATOM      3  C4*   C A   1       2.897   2.452  19.602  0.00  0.00    +0.000 C 
ATOM      4  C3*   C A   1       4.300   2.881  20.006  0.00  0.00    +0.000 C 
ATOM      5  C2*   C A   1       4.798   3.567  18.744  0.00  0.00    +0.000 C 
ENDROOT
BRANCH   1  10
ATOM      6  N4    C A   1       1.910   9.387  18.196  0.00  0.00    +0.000 N 
ATOM      7  C4    C A   1       2.497   8.168  18.377  0.00  0.00    +0.000 A 
ATOM      8  C5    C A   1       2.218   7.376  19.584  0.00  0.00    +0.000 A 
ATOM      9  C6    C A   1       2.599   6.096  19.530  0.00  0.00    +0.000 A 
ATOM     10  N1    C A   1       3.318   5.615  18.456  0.00  0.00    +0.000 N 
ATOM     11  C2    C A   1       3.791   6.474  17.479  0.00  0.00    +0.000 A 
ATOM     12  O2    C A   1       4.664   6.130  16.681  0.00  0.00    +0.000 OA
ATOM     13  N3    C A   1       3.271   7.739  17.435  0.00  0.00    +0.000 NA
ATOM     14  H41   C A   1       1.948  10.042  18.965  0.00  0.00    +0.000 HD
ATOM     15  H42   C A   1       2.180   9.840  17.321  0.00  0.00    +0.000 HD
ENDBRANCH   1  10
BRANCH   4  16
ATOM     16  O3*   C A   1       5.098   1.781  20.419  0.00  0.00    +0.000 OA
ATOM     17  H3*   C A   1       6.028   2.062  20.478  0.00  0.00    +0.000 HD
ENDBRANCH   4  16
BRANCH   5  18
ATOM     18  O2*   C A   1       5.892   4.440  18.996  0.00  0.00    +0.000 OA
ATOM     19  H2*   C A   1       6.477   4.023  19.652  0.00  0.00    +0.000 HD
ENDBRANCH   5  18
BRANCH   3  20
ATOM     20  C5*   C A   1       1.958   2.316  20.795  0.00  0.00    +0.000 C 
BRANCH  20  21
ATOM     21  O5*   C A   1       2.665   2.567  22.009  0.00  0.00    +0.000 OA
ATOM     22  H5*   C A   1       3.582   2.267  21.858  0.00  0.00    +0.000 HD
ENDBRANCH  20  21
ENDBRANCH   3  20
TORSDOF 5
ENDMDL
