MODEL 1
REMARK VINA RESULT:      -8.3      0.000      0.000
REMARK  Name = 
REMARK  4 active torsions:
REMARK  status: ('A' for Active; 'I' for Inactive)
REMARK    1  A    between atoms: C_1  and  C_2
REMARK    2  A    between atoms: C_4  and  C_5
REMARK    3  A    between atoms: N_8  and  C_9
REMARK    4  A    between atoms: C_9  and  N_11
REMARK                            x       y       z     vdW  Elec       q    Type
REMARK                         _______ _______ _______ _____ _____    ______ ____
ROOT
ATOM      1  C   UNL     1       2.864   6.316  18.918  0.00  0.00    +0.000 C 
ATOM      2  S   UNL     1       2.175   5.345  20.117  0.00  0.00    +0.000 S 
ENDROOT
BRANCH   1   3
ATOM      3  N   UNL     1       3.896   5.846  18.057  0.00  0.00    +0.000 N 
ATOM      4  C   UNL     1       4.659   6.826  17.225  0.00  0.00    +0.000 C 
ATOM      5  C   UNL     1       5.983   6.296  16.642  0.00  0.00    +0.000 C 
ATOM      6  N   UNL     1       5.701   5.030  15.978  0.00  0.00    +0.000 N 
ATOM      7  C   UNL     1       6.255   4.755  14.752  0.00  0.00    +0.000 A 
ATOM      8  C   UNL     1       5.635   3.852  13.887  0.00  0.00    +0.000 A 
ATOM      9  C   UNL     1       6.143   3.640  12.606  0.00  0.00    +0.000 A 
ATOM     10  C   UNL     1       7.280   4.322  12.211  0.00  0.00    +0.000 A 
ATOM     11  C   UNL     1       7.847   5.199  13.117  0.00  0.00    +0.000 A 
ATOM     12  N   UNL     1       7.353   5.433  14.356  0.00  0.00    +0.000 NA
ATOM     13  C   UNL     1       5.183   4.000  16.873  0.00  0.00    +0.000 C 
ATOM     14  C   UNL     1       3.840   4.481  17.466  0.00  0.00    +0.000 C 
ENDBRANCH   1   3
BRANCH   1  22
ATOM     15  C   UNL     1       0.390   9.272  22.825  0.00  0.00    +0.000 C 
ATOM     16  C   UNL     1       0.583   9.343  21.342  0.00  0.00    +0.000 A 
ATOM     17  C   UNL     1      -0.154  10.215  20.548  0.00  0.00    +0.000 A 
ATOM     18  C   UNL     1       0.063  10.220  19.174  0.00  0.00    +0.000 A 
ATOM     19  C   UNL     1      -0.701  11.167  18.298  0.00  0.00    +0.000 C 
ATOM     20  N   UNL     1       0.943   9.381  18.565  0.00  0.00    +0.000 NA
ATOM     21  C   UNL     1       1.613   8.494  19.337  0.00  0.00    +0.000 A 
ATOM     22  N   UNL     1       2.451   7.611  18.620  0.00  0.00    +0.000 N 
ATOM     23  C   UNL     1       1.503   8.494  20.721  0.00  0.00    +0.000 A 
ATOM     24  H   UNL     1       2.432   7.845  17.639  0.00  0.00    +0.000 HD
ENDBRANCH   1  22
TORSDOF 2
ENDMDL
MODEL 2
REMARK VINA RESULT:      -8.3      4.172      6.248
REMARK  Name = 
REMARK  4 active torsions:
REMARK  status: ('A' for Active; 'I' for Inactive)
REMARK    1  A    between atoms: C_1  and  C_2
REMARK    2  A    between atoms: C_4  and  C_5
REMARK    3  A    between atoms: N_8  and  C_9
REMARK    4  A    between atoms: C_9  and  N_11
REMARK                            x       y       z     vdW  Elec       q    Type
REMARK                         _______ _______ _______ _____ _____    ______ ____
ROOT
ATOM      1  C   UNL     1       0.510  10.843  19.052  0.00  0.00    +0.000 C 
ATOM      2  S   UNL     1       1.378  12.213  18.578  0.00  0.00    +0.000 S 
ENDROOT
BRANCH   1   3
ATOM      3  N   UNL     1       1.145   9.599  19.332  0.00  0.00    +0.000 N 
ATOM      4  C   UNL     1       1.603   8.739  18.198  0.00  0.00    +0.000 C 
ATOM      5  C   UNL     1       2.607   7.634  18.582  0.00  0.00    +0.000 C 
ATOM      6  N   UNL     1       2.050   6.900  19.711  0.00  0.00    +0.000 N 
ATOM      7  C   UNL     1       2.117   5.529  19.742  0.00  0.00    +0.000 A 
ATOM      8  C   UNL     1       1.189   4.797  20.485  0.00  0.00    +0.000 A 
ATOM      9  C   UNL     1       1.197   3.403  20.447  0.00  0.00    +0.000 A 
ATOM     10  C   UNL     1       2.148   2.756  19.677  0.00  0.00    +0.000 A 
ATOM     11  C   UNL     1       3.038   3.539  18.968  0.00  0.00    +0.000 A 
ATOM     12  N   UNL     1       3.030   4.893  18.977  0.00  0.00    +0.000 NA
ATOM     13  C   UNL     1       1.841   7.721  20.899  0.00  0.00    +0.000 C 
ATOM     14  C   UNL     1       0.820   8.832  20.566  0.00  0.00    +0.000 C 
ENDBRANCH   1   3
BRANCH   1  22
ATOM     15  C   UNL     1      -2.852  10.027  14.792  0.00  0.00    +0.000 C 
ATOM     16  C   UNL     1      -2.961  10.492  16.212  0.00  0.00    +0.000 A 
ATOM     17  C   UNL     1      -4.109  11.110  16.695  0.00  0.00    +0.000 A 
ATOM     18  C   UNL     1      -4.138  11.532  18.020  0.00  0.00    +0.000 A 
ATOM     19  C   UNL     1      -5.372  12.178  18.574  0.00  0.00    +0.000 C 
ATOM     20  N   UNL     1      -3.076  11.399  18.858  0.00  0.00    +0.000 NA
ATOM     21  C   UNL     1      -1.941  10.852  18.364  0.00  0.00    +0.000 A 
ATOM     22  N   UNL     1      -0.863  10.818  19.276  0.00  0.00    +0.000 N 
ATOM     23  C   UNL     1      -1.874  10.336  17.077  0.00  0.00    +0.000 A 
ATOM     24  H   UNL     1      -1.162  11.174  20.172  0.00  0.00    +0.000 HD
ENDBRANCH   1  22
TORSDOF 2
ENDMDL
MODEL 3
REMARK VINA RESULT:      -7.9      1.682      8.524
REMARK  Name = 
REMARK  4 active torsions:
REMARK  status: ('A' for Active; 'I' for Inactive)
REMARK    1  A    between atoms: C_1  and  C_2
REMARK    2  A    between atoms: C_4  and  C_5
REMARK    3  A    between atoms: N_8  and  C_9
REMARK    4  A    between atoms: C_9  and  N_11
REMARK                            x       y       z     vdW  Elec       q    Type
REMARK                         _______ _______ _______ _____ _____    ______ ____
ROOT
ATOM      1  C   UNL     1       6.117   4.651  17.271  0.00  0.00    +0.000 C 
ATOM      2  S   UNL     1       7.550   4.877  18.136  0.00  0.00    +0.000 S 
ENDROOT
BRANCH   1   3
ATOM      3  N   UNL     1       4.923   5.365  17.577  0.00  0.00    +0.000 N 
ATOM      4  C   UNL     1       4.890   6.848  17.396  0.00  0.00    +0.000 C 
ATOM      5  C   UNL     1       3.481   7.471  17.369  0.00  0.00    +0.000 C 
ATOM      6  N   UNL     1       2.758   6.988  18.538  0.00  0.00    +0.000 N 
ATOM      7  C   UNL     1       1.995   7.854  19.283  0.00  0.00    +0.000 A 
ATOM      8  C   UNL     1       1.733   7.581  20.627  0.00  0.00    +0.000 A 
ATOM      9  C   UNL     1       1.036   8.500  21.410  0.00  0.00    +0.000 A 
ATOM     10  C   UNL     1       0.592   9.677  20.833  0.00  0.00    +0.000 A 
ATOM     11  C   UNL     1       0.882   9.884  19.497  0.00  0.00    +0.000 A 
ATOM     12  N   UNL     1       1.577   9.011  18.729  0.00  0.00    +0.000 NA
ATOM     13  C   UNL     1       2.587   5.540  18.566  0.00  0.00    +0.000 C 
ATOM     14  C   UNL     1       3.979   4.872  18.617  0.00  0.00    +0.000 C 
ENDBRANCH   1   3
BRANCH   1  22
ATOM     15  C   UNL     1       8.727   6.004  12.637  0.00  0.00    +0.000 C 
ATOM     16  C   UNL     1       7.647   5.056  13.060  0.00  0.00    +0.000 A 
ATOM     17  C   UNL     1       6.839   4.406  12.135  0.00  0.00    +0.000 A 
ATOM     18  C   UNL     1       5.843   3.550  12.596  0.00  0.00    +0.000 A 
ATOM     19  C   UNL     1       4.973   2.817  11.619  0.00  0.00    +0.000 C 
ATOM     20  N   UNL     1       5.601   3.348  13.918  0.00  0.00    +0.000 NA
ATOM     21  C   UNL     1       6.353   4.031  14.814  0.00  0.00    +0.000 A 
ATOM     22  N   UNL     1       5.989   3.821  16.162  0.00  0.00    +0.000 N 
ATOM     23  C   UNL     1       7.413   4.834  14.420  0.00  0.00    +0.000 A 
ATOM     24  H   UNL     1       5.245   3.141  16.213  0.00  0.00    +0.000 HD
ENDBRANCH   1  22
TORSDOF 2
ENDMDL
MODEL 4
REMARK VINA RESULT:      -7.9      1.805      7.834
REMARK  Name = 
REMARK  4 active torsions:
REMARK  status: ('A' for Active; 'I' for Inactive)
REMARK    1  A    between atoms: C_1  and  C_2
REMARK    2  A    between atoms: C_4  and  C_5
REMARK    3  A    between atoms: N_8  and  C_9
REMARK    4  A    between atoms: C_9  and  N_11
REMARK                            x       y       z     vdW  Elec       q    Type
REMARK                         _______ _______ _______ _____ _____    ______ ____
ROOT
ATOM      1  C   UNL     1       2.626   3.988  19.185  0.00  0.00    +0.000 C 
ATOM      2  S   UNL     1       1.900   2.920  20.275  0.00  0.00    +0.000 S 
ENDROOT
BRANCH   1   3
ATOM      3  N   UNL     1       2.474   5.400  19.287  0.00  0.00    +0.000 N 
ATOM      4  C   UNL     1       1.782   5.978  20.480  0.00  0.00    +0.000 C 
ATOM      5  C   UNL     1       2.008   7.486  20.698  0.00  0.00    +0.000 C 
ATOM      6  N   UNL     1       1.716   8.166  19.443  0.00  0.00    +0.000 N 
ATOM      7  C   UNL     1       0.990   9.331  19.441  0.00  0.00    +0.000 A 
ATOM      8  C   UNL     1       0.272   9.711  18.306  0.00  0.00    +0.000 A 
ATOM      9  C   UNL     1      -0.539  10.844  18.331  0.00  0.00    +0.000 A 
ATOM     10  C   UNL     1      -0.607  11.598  19.489  0.00  0.00    +0.000 A 
ATOM     11  C   UNL     1       0.131  11.169  20.576  0.00  0.00    +0.000 A 
ATOM     12  N   UNL     1       0.905  10.059  20.576  0.00  0.00    +0.000 NA
ATOM     13  C   UNL     1       2.580   7.757  18.340  0.00  0.00    +0.000 C 
ATOM     14  C   UNL     1       2.369   6.251  18.070  0.00  0.00    +0.000 C 
ENDBRANCH   1   3
BRANCH   1  22
ATOM     15  C   UNL     1       7.836   5.709  19.266  0.00  0.00    +0.000 C 
ATOM     16  C   UNL     1       6.896   5.080  18.285  0.00  0.00    +0.000 A 
ATOM     17  C   UNL     1       7.185   5.023  16.927  0.00  0.00    +0.000 A 
ATOM     18  C   UNL     1       6.261   4.439  16.066  0.00  0.00    +0.000 A 
ATOM     19  C   UNL     1       6.558   4.342  14.600  0.00  0.00    +0.000 C 
ATOM     20  N   UNL     1       5.065   3.951  16.492  0.00  0.00    +0.000 NA
ATOM     21  C   UNL     1       4.764   4.065  17.807  0.00  0.00    +0.000 A 
ATOM     22  N   UNL     1       3.476   3.602  18.154  0.00  0.00    +0.000 N 
ATOM     23  C   UNL     1       5.676   4.562  18.728  0.00  0.00    +0.000 A 
ATOM     24  H   UNL     1       3.022   3.214  17.340  0.00  0.00    +0.000 HD
ENDBRANCH   1  22
TORSDOF 2
ENDMDL
MODEL 5
REMARK VINA RESULT:      -7.8      4.109      6.252
REMARK  Name = 
REMARK  4 active torsions:
REMARK  status: ('A' for Active; 'I' for Inactive)
REMARK    1  A    between atoms: C_1  and  C_2
REMARK    2  A    between atoms: C_4  and  C_5
REMARK    3  A    between atoms: N_8  and  C_9
REMARK    4  A    between atoms: C_9  and  N_11
REMARK                            x       y       z     vdW  Elec       q    Type
REMARK                         _______ _______ _______ _____ _____    ______ ____
ROOT
ATOM      1  C   UNL     1       0.045  10.987  19.478  0.00  0.00    +0.000 C 
ATOM      2  S   UNL     1      -0.221  12.089  20.731  0.00  0.00    +0.000 S 
ENDROOT
BRANCH   1   3
ATOM      3  N   UNL     1       0.792   9.789  19.663  0.00  0.00    +0.000 N 
ATOM      4  C   UNL     1       1.269   9.032  18.465  0.00  0.00    +0.000 C 
ATOM      5  C   UNL     1       2.377   7.998  18.746  0.00  0.00    +0.000 C 
ATOM      6  N   UNL     1       1.933   7.161  19.854  0.00  0.00    +0.000 N 
ATOM      7  C   UNL     1       2.114   5.800  19.806  0.00  0.00    +0.000 A 
ATOM      8  C   UNL     1       1.284   4.954  20.543  0.00  0.00    +0.000 A 
ATOM      9  C   UNL     1       1.405   3.571  20.426  0.00  0.00    +0.000 A 
ATOM     10  C   UNL     1       2.372   3.048  19.585  0.00  0.00    +0.000 A 
ATOM     11  C   UNL     1       3.162   3.940  18.886  0.00  0.00    +0.000 A 
ATOM     12  N   UNL     1       3.043   5.286  18.971  0.00  0.00    +0.000 NA
ATOM     13  C   UNL     1       1.709   7.898  21.093  0.00  0.00    +0.000 C 
ATOM     14  C   UNL     1       0.586   8.934  20.864  0.00  0.00    +0.000 C 
ENDBRANCH   1   3
BRANCH   1  22
ATOM     15  C   UNL     1      -5.304  12.086  18.925  0.00  0.00    +0.000 C 
ATOM     16  C   UNL     1      -4.177  11.616  18.057  0.00  0.00    +0.000 A 
ATOM     17  C   UNL     1      -4.400  11.078  16.795  0.00  0.00    +0.000 A 
ATOM     18  C   UNL     1      -3.310  10.645  16.047  0.00  0.00    +0.000 A 
ATOM     19  C   UNL     1      -3.520  10.085  14.672  0.00  0.00    +0.000 C 
ATOM     20  N   UNL     1      -2.033  10.693  16.511  0.00  0.00    +0.000 NA
ATOM     21  C   UNL     1      -1.830  11.162  17.765  0.00  0.00    +0.000 A 
ATOM     22  N   UNL     1      -0.487  11.108  18.198  0.00  0.00    +0.000 N 
ATOM     23  C   UNL     1      -2.863  11.684  18.530  0.00  0.00    +0.000 A 
ATOM     24  H   UNL     1       0.099  10.766  17.451  0.00  0.00    +0.000 HD
ENDBRANCH   1  22
TORSDOF 2
ENDMDL
MODEL 6
REMARK VINA RESULT:      -7.7      3.753      9.907
REMARK  Name = 
REMARK  4 active torsions:
REMARK  status: ('A' for Active; 'I' for Inactive)
REMARK    1  A    between atoms: C_1  and  C_2
REMARK    2  A    between atoms: C_4  and  C_5
REMARK    3  A    between atoms: N_8  and  C_9
REMARK    4  A    between atoms: C_9  and  N_11
REMARK                            x       y       z     vdW  Elec       q    Type
REMARK                         _______ _______ _______ _____ _____    ______ ____
ROOT
ATOM      1  C   UNL     1       1.778   8.294  19.675  0.00  0.00    +0.000 C 
ATOM      2  S   UNL     1       2.102   8.475  18.027  0.00  0.00    +0.000 S 
ENDROOT
BRANCH   1   3
ATOM      3  N   UNL     1       1.088   9.287  20.429  0.00  0.00    +0.000 N 
ATOM      4  C   UNL     1       0.104   8.862  21.471  0.00  0.00    +0.000 C 
ATOM      5  C   UNL     1      -0.288   9.956  22.483  0.00  0.00    +0.000 C 
ATOM      6  N   UNL     1      -0.680  11.139  21.728  0.00  0.00    +0.000 N 
ATOM      7  C   UNL     1      -1.792  11.856  22.097  0.00  0.00    +0.000 A 
ATOM      8  C   UNL     1      -2.474  12.630  21.157  0.00  0.00    +0.000 A 
ATOM      9  C   UNL     1      -3.654  13.285  21.505  0.00  0.00    +0.000 A 
ATOM     10  C   UNL     1      -4.129  13.174  22.800  0.00  0.00    +0.000 A 
ATOM     11  C   UNL     1      -3.404  12.396  23.683  0.00  0.00    +0.000 A 
ATOM     12  N   UNL     1      -2.269  11.735  23.354  0.00  0.00    +0.000 NA
ATOM     13  C   UNL     1       0.387  11.686  20.896  0.00  0.00    +0.000 C 
ATOM     14  C   UNL     1       0.797  10.627  19.849  0.00  0.00    +0.000 C 
ENDBRANCH   1   3
BRANCH   1  22
ATOM     15  C   UNL     1       3.025   3.654  17.023  0.00  0.00    +0.000 C 
ATOM     16  C   UNL     1       2.663   4.067  18.417  0.00  0.00    +0.000 A 
ATOM     17  C   UNL     1       2.310   3.137  19.387  0.00  0.00    +0.000 A 
ATOM     18  C   UNL     1       1.969   3.589  20.659  0.00  0.00    +0.000 A 
ATOM     19  C   UNL     1       1.608   2.606  21.732  0.00  0.00    +0.000 C 
ATOM     20  N   UNL     1       1.932   4.908  20.985  0.00  0.00    +0.000 NA
ATOM     21  C   UNL     1       2.218   5.811  20.018  0.00  0.00    +0.000 A 
ATOM     22  N   UNL     1       2.084   7.159  20.418  0.00  0.00    +0.000 N 
ATOM     23  C   UNL     1       2.645   5.423  18.755  0.00  0.00    +0.000 A 
ATOM     24  H   UNL     1       1.840   7.201  21.396  0.00  0.00    +0.000 HD
ENDBRANCH   1  22
TORSDOF 2
ENDMDL
MODEL 7
REMARK VINA RESULT:      -7.7      3.296      5.242
REMARK  Name = 
REMARK  4 active torsions:
REMARK  status: ('A' for Active; 'I' for Inactive)
REMARK    1  A    between atoms: C_1  and  C_2
REMARK    2  A    between atoms: C_4  and  C_5
REMARK    3  A    between atoms: N_8  and  C_9
REMARK    4  A    between atoms: C_9  and  N_11
REMARK                            x       y       z     vdW  Elec       q    Type
REMARK                         _______ _______ _______ _____ _____    ______ ____
ROOT
ATOM      1  C   UNL     1       0.756  10.519  19.346  0.00  0.00    +0.000 C 
ATOM      2  S   UNL     1       0.829  11.474  20.738  0.00  0.00    +0.000 S 
ENDROOT
BRANCH   1   3
ATOM      3  N   UNL     1       1.432   9.270  19.243  0.00  0.00    +0.000 N 
ATOM      4  C   UNL     1       1.868   8.782  17.899  0.00  0.00    +0.000 C 
ATOM      5  C   UNL     1       2.912   7.649  17.924  0.00  0.00    +0.000 C 
ATOM      6  N   UNL     1       2.417   6.607  18.814  0.00  0.00    +0.000 N 
ATOM      7  C   UNL     1       2.518   5.286  18.453  0.00  0.00    +0.000 A 
ATOM      8  C   UNL     1       1.638   4.342  18.985  0.00  0.00    +0.000 A 
ATOM      9  C   UNL     1       1.678   3.018  18.553  0.00  0.00    +0.000 A 
ATOM     10  C   UNL     1       2.615   2.647  17.604  0.00  0.00    +0.000 A 
ATOM     11  C   UNL     1       3.459   3.629  17.121  0.00  0.00    +0.000 A 
ATOM     12  N   UNL     1       3.418   4.924  17.513  0.00  0.00    +0.000 NA
ATOM     13  C   UNL     1       2.232   7.051  20.192  0.00  0.00    +0.000 C 
ATOM     14  C   UNL     1       1.173   8.175  20.218  0.00  0.00    +0.000 C 
ENDBRANCH   1   3
BRANCH   1  22
ATOM     15  C   UNL     1      -4.291  12.557  20.049  0.00  0.00    +0.000 C 
ATOM     16  C   UNL     1      -3.484  11.964  18.935  0.00  0.00    +0.000 A 
ATOM     17  C   UNL     1      -4.069  11.566  17.739  0.00  0.00    +0.000 A 
ATOM     18  C   UNL     1      -3.265  11.008  16.750  0.00  0.00    +0.000 A 
ATOM     19  C   UNL     1      -3.865  10.592  15.441  0.00  0.00    +0.000 C 
ATOM     20  N   UNL     1      -1.931  10.802  16.916  0.00  0.00    +0.000 NA
ATOM     21  C   UNL     1      -1.379  11.137  18.106  0.00  0.00    +0.000 A 
ATOM     22  N   UNL     1      -0.007  10.822  18.224  0.00  0.00    +0.000 N 
ATOM     23  C   UNL     1      -2.110  11.772  19.101  0.00  0.00    +0.000 A 
ATOM     24  H   UNL     1       0.331  10.439  17.353  0.00  0.00    +0.000 HD
ENDBRANCH   1  22
TORSDOF 2
ENDMDL
MODEL 8
REMARK VINA RESULT:      -7.5      1.814      7.928
REMARK  Name = 
REMARK  4 active torsions:
REMARK  status: ('A' for Active; 'I' for Inactive)
REMARK    1  A    between atoms: C_1  and  C_2
REMARK    2  A    between atoms: C_4  and  C_5
REMARK    3  A    between atoms: N_8  and  C_9
REMARK    4  A    between atoms: C_9  and  N_11
REMARK                            x       y       z     vdW  Elec       q    Type
REMARK                         _______ _______ _______ _____ _____    ______ ____
ROOT
ATOM      1  C   UNL     1       2.457   3.566  18.283  0.00  0.00    +0.000 C 
ATOM      2  S   UNL     1       1.396   2.344  18.769  0.00  0.00    +0.000 S 
ENDROOT
BRANCH   1   3
ATOM      3  N   UNL     1       2.420   4.874  18.846  0.00  0.00    +0.000 N 
ATOM      4  C   UNL     1       1.776   5.078  20.180  0.00  0.00    +0.000 C 
ATOM      5  C   UNL     1       2.124   6.409  20.875  0.00  0.00    +0.000 C 
ATOM      6  N   UNL     1       1.891   7.484  19.919  0.00  0.00    +0.000 N 
ATOM      7  C   UNL     1       1.262   8.638  20.319  0.00  0.00    +0.000 A 
ATOM      8  C   UNL     1       0.579   9.424  19.389  0.00  0.00    +0.000 A 
ATOM      9  C   UNL     1      -0.136  10.546  19.805  0.00  0.00    +0.000 A 
ATOM     10  C   UNL     1      -0.145  10.880  21.148  0.00  0.00    +0.000 A 
ATOM     11  C   UNL     1       0.554  10.061  22.015  0.00  0.00    +0.000 A 
ATOM     12  N   UNL     1       1.235   8.956  21.631  0.00  0.00    +0.000 NA
ATOM     13  C   UNL     1       2.721   7.395  18.723  0.00  0.00    +0.000 C 
ATOM     14  C   UNL     1       2.388   6.083  17.979  0.00  0.00    +0.000 C 
ENDBRANCH   1   3
BRANCH   1  22
ATOM     15  C   UNL     1       7.429   5.566  19.466  0.00  0.00    +0.000 C 
ATOM     16  C   UNL     1       6.707   5.040  18.263  0.00  0.00    +0.000 A 
ATOM     17  C   UNL     1       7.205   5.211  16.977  0.00  0.00    +0.000 A 
ATOM     18  C   UNL     1       6.477   4.712  15.902  0.00  0.00    +0.000 A 
ATOM     19  C   UNL     1       7.004   4.859  14.506  0.00  0.00    +0.000 C 
ATOM     20  N   UNL     1       5.276   4.092  16.051  0.00  0.00    +0.000 NA
ATOM     21  C   UNL     1       4.768   3.984  17.301  0.00  0.00    +0.000 A 
ATOM     22  N   UNL     1       3.485   3.396  17.362  0.00  0.00    +0.000 N 
ATOM     23  C   UNL     1       5.481   4.387  18.421  0.00  0.00    +0.000 A 
ATOM     24  H   UNL     1       3.196   3.111  16.437  0.00  0.00    +0.000 HD
ENDBRANCH   1  22
TORSDOF 2
ENDMDL
MODEL 9
REMARK VINA RESULT:      -7.4      4.195      6.022
REMARK  Name = 
REMARK  4 active torsions:
REMARK  status: ('A' for Active; 'I' for Inactive)
REMARK    1  A    between atoms: C_1  and  C_2
REMARK    2  A    between atoms: C_4  and  C_5
REMARK    3  A    between atoms: N_8  and  C_9
REMARK    4  A    between atoms: C_9  and  N_11
REMARK                            x       y       z     vdW  Elec       q    Type
REMARK                         _______ _______ _______ _____ _____    ______ ____
ROOT
ATOM      1  C   UNL     1       0.897  10.486  18.568  0.00  0.00    +0.000 C 
ATOM      2  S   UNL     1      -0.769  10.725  18.416  0.00  0.00    +0.000 S 
ENDROOT
BRANCH   1   3
ATOM      3  N   UNL     1       1.453   9.242  18.981  0.00  0.00    +0.000 N 
ATOM      4  C   UNL     1       1.933   8.275  17.947  0.00  0.00    +0.000 C 
ATOM      5  C   UNL     1       2.857   7.160  18.475  0.00  0.00    +0.000 C 
ATOM      6  N   UNL     1       2.201   6.544  19.621  0.00  0.00    +0.000 N 
ATOM      7  C   UNL     1       2.198   5.178  19.761  0.00  0.00    +0.000 A 
ATOM      8  C   UNL     1       1.194   4.549  20.500  0.00  0.00    +0.000 A 
ATOM      9  C   UNL     1       1.135   3.159  20.569  0.00  0.00    +0.000 A 
ATOM     10  C   UNL     1       2.096   2.410  19.912  0.00  0.00    +0.000 A 
ATOM     11  C   UNL     1       3.064   3.094  19.201  0.00  0.00    +0.000 A 
ATOM     12  N   UNL     1       3.122   4.444  19.105  0.00  0.00    +0.000 NA
ATOM     13  C   UNL     1       1.963   7.465  20.727  0.00  0.00    +0.000 C 
ATOM     14  C   UNL     1       1.020   8.591  20.248  0.00  0.00    +0.000 C 
ENDBRANCH   1   3
BRANCH   1  22
ATOM     15  C   UNL     1       1.535  14.838  21.850  0.00  0.00    +0.000 C 
ATOM     16  C   UNL     1       1.956  14.421  20.475  0.00  0.00    +0.000 A 
ATOM     17  C   UNL     1       2.490  15.326  19.566  0.00  0.00    +0.000 A 
ATOM     18  C   UNL     1       2.847  14.876  18.298  0.00  0.00    +0.000 A 
ATOM     19  C   UNL     1       3.449  15.826  17.306  0.00  0.00    +0.000 C 
ATOM     20  N   UNL     1       2.662  13.591  17.895  0.00  0.00    +0.000 NA
ATOM     21  C   UNL     1       2.085  12.729  18.765  0.00  0.00    +0.000 A 
ATOM     22  N   UNL     1       1.861  11.435  18.244  0.00  0.00    +0.000 N 
ATOM     23  C   UNL     1       1.783  13.094  20.070  0.00  0.00    +0.000 A 
ATOM     24  H   UNL     1       2.230  11.376  17.306  0.00  0.00    +0.000 HD
ENDBRANCH   1  22
TORSDOF 2
ENDMDL
