MODEL 1
REMARK VINA RESULT:      -8.7      0.000      0.000
REMARK  Name = 
REMARK  3 active torsions:
REMARK  status: ('A' for Active; 'I' for Inactive)
REMARK    1  A    between atoms: C_1  and  N_2
REMARK    2  A    between atoms: C_12  and  C_13
REMARK    3  A    between atoms: C_16  and  C_17
REMARK                            x       y       z     vdW  Elec       q    Type
REMARK                         _______ _______ _______ _____ _____    ______ ____
ROOT
ATOM      1  C   UNL     1       4.360   5.195  17.088  0.00  0.00    +0.000 C 
ATOM      2  N   UNL     1       3.548   5.422  18.280  0.00  0.00    +0.000 N 
ATOM      3  C   UNL     1       2.964   6.567  18.650  0.00  0.00    +0.000 A 
ATOM      4  N   UNL     1       2.281   6.387  19.785  0.00  0.00    +0.000 N 
ATOM      5  C   UNL     1       2.524   5.092  20.236  0.00  0.00    +0.000 A 
ATOM      6  C   UNL     1       2.052   4.414  21.357  0.00  0.00    +0.000 A 
ATOM      7  C   UNL     1       2.487   3.090  21.503  0.00  0.00    +0.000 A 
ATOM      8  C   UNL     1       3.360   2.492  20.573  0.00  0.00    +0.000 A 
ATOM      9  C   UNL     1       3.825   3.184  19.444  0.00  0.00    +0.000 A 
ATOM     10  C   UNL     1       3.365   4.493  19.297  0.00  0.00    +0.000 A 
ATOM     11  N   UNL     1       1.424   7.252  20.474  0.00  0.00    +0.000 NA
ATOM     12  C   UNL     1       1.317   8.462  19.993  0.00  0.00    +0.000 C 
ATOM     13  C   UNL     1       1.998   9.072  18.800  0.00  0.00    +0.000 C 
ATOM     14  S   UNL     1       2.868   8.006  17.691  0.00  0.00    +0.000 S 
ENDROOT
BRANCH  12  15
ATOM     15  C   UNL     1       0.415   9.400  20.764  0.00  0.00    +0.000 A 
ATOM     16  C   UNL     1      -0.210  10.477  20.124  0.00  0.00    +0.000 A 
ATOM     17  C   UNL     1      -0.942  11.415  20.864  0.00  0.00    +0.000 A 
ATOM     18  C   UNL     1      -1.097  11.297  22.256  0.00  0.00    +0.000 A 
ATOM     19  C   UNL     1      -0.529  10.165  22.865  0.00  0.00    +0.000 A 
ATOM     20  C   UNL     1       0.222   9.233  22.137  0.00  0.00    +0.000 A 
BRANCH  18  21
ATOM     21  C   UNL     1      -1.801  12.336  23.044  0.00  0.00    +0.000 A 
ATOM     22  C   UNL     1      -1.181  13.556  23.370  0.00  0.00    +0.000 A 
ATOM     23  C   UNL     1      -1.815  14.514  24.159  0.00  0.00    +0.000 A 
ATOM     24  C   UNL     1      -3.102  14.284  24.635  0.00  0.00    +0.000 A 
ATOM     25  C   UNL     1      -3.753  13.101  24.312  0.00  0.00    +0.000 A 
ATOM     26  C   UNL     1      -3.111  12.137  23.528  0.00  0.00    +0.000 A 
ENDBRANCH  18  21
ENDBRANCH  12  15
TORSDOF 2
ENDMDL
MODEL 2
REMARK VINA RESULT:      -8.4      1.663      3.282
REMARK  Name = 
REMARK  3 active torsions:
REMARK  status: ('A' for Active; 'I' for Inactive)
REMARK    1  A    between atoms: C_1  and  N_2
REMARK    2  A    between atoms: C_12  and  C_13
REMARK    3  A    between atoms: C_16  and  C_17
REMARK                            x       y       z     vdW  Elec       q    Type
REMARK                         _______ _______ _______ _____ _____    ______ ____
ROOT
ATOM      1  C   UNL     1       3.796   2.180  18.522  0.00  0.00    +0.000 C 
ATOM      2  N   UNL     1       3.713   3.625  18.329  0.00  0.00    +0.000 N 
ATOM      3  C   UNL     1       2.979   4.490  19.037  0.00  0.00    +0.000 A 
ATOM      4  N   UNL     1       3.176   5.734  18.587  0.00  0.00    +0.000 N 
ATOM      5  C   UNL     1       3.992   5.663  17.461  0.00  0.00    +0.000 A 
ATOM      6  C   UNL     1       4.492   6.664  16.633  0.00  0.00    +0.000 A 
ATOM      7  C   UNL     1       5.313   6.239  15.581  0.00  0.00    +0.000 A 
ATOM      8  C   UNL     1       5.599   4.876  15.371  0.00  0.00    +0.000 A 
ATOM      9  C   UNL     1       5.093   3.876  16.215  0.00  0.00    +0.000 A 
ATOM     10  C   UNL     1       4.298   4.314  17.273  0.00  0.00    +0.000 A 
ATOM     11  N   UNL     1       2.727   6.961  19.087  0.00  0.00    +0.000 NA
ATOM     12  C   UNL     1       1.920   6.904  20.113  0.00  0.00    +0.000 C 
ATOM     13  C   UNL     1       1.387   5.700  20.835  0.00  0.00    +0.000 C 
ATOM     14  S   UNL     1       2.105   4.122  20.486  0.00  0.00    +0.000 S 
ENDROOT
BRANCH  12  15
ATOM     15  C   UNL     1       1.412   8.234  20.626  0.00  0.00    +0.000 A 
ATOM     16  C   UNL     1       1.209   8.441  21.995  0.00  0.00    +0.000 A 
ATOM     17  C   UNL     1       0.620   9.628  22.454  0.00  0.00    +0.000 A 
ATOM     18  C   UNL     1       0.242  10.653  21.570  0.00  0.00    +0.000 A 
ATOM     19  C   UNL     1       0.530  10.456  20.209  0.00  0.00    +0.000 A 
ATOM     20  C   UNL     1       1.098   9.266  19.738  0.00  0.00    +0.000 A 
BRANCH  18  21
ATOM     21  C   UNL     1      -0.455  11.868  22.053  0.00  0.00    +0.000 A 
ATOM     22  C   UNL     1       0.022  13.157  21.753  0.00  0.00    +0.000 A 
ATOM     23  C   UNL     1      -0.595  14.303  22.252  0.00  0.00    +0.000 A 
ATOM     24  C   UNL     1      -1.724  14.191  23.059  0.00  0.00    +0.000 A 
ATOM     25  C   UNL     1      -2.235  12.936  23.356  0.00  0.00    +0.000 A 
ATOM     26  C   UNL     1      -1.609  11.787  22.862  0.00  0.00    +0.000 A 
ENDBRANCH  18  21
ENDBRANCH  12  15
TORSDOF 2
ENDMDL
MODEL 3
REMARK VINA RESULT:      -8.3      3.356      9.495
REMARK  Name = 
REMARK  3 active torsions:
REMARK  status: ('A' for Active; 'I' for Inactive)
REMARK    1  A    between atoms: C_1  and  N_2
REMARK    2  A    between atoms: C_12  and  C_13
REMARK    3  A    between atoms: C_16  and  C_17
REMARK                            x       y       z     vdW  Elec       q    Type
REMARK                         _______ _______ _______ _____ _____    ______ ____
ROOT
ATOM      1  C   UNL     1      -3.368  13.936  21.683  0.00  0.00    +0.000 C 
ATOM      2  N   UNL     1      -3.040  12.909  20.699  0.00  0.00    +0.000 N 
ATOM      3  C   UNL     1      -1.870  12.276  20.558  0.00  0.00    +0.000 A 
ATOM      4  N   UNL     1      -1.950  11.382  19.566  0.00  0.00    +0.000 N 
ATOM      5  C   UNL     1      -3.196  11.518  18.960  0.00  0.00    +0.000 A 
ATOM      6  C   UNL     1      -3.772  10.829  17.897  0.00  0.00    +0.000 A 
ATOM      7  C   UNL     1      -5.073  11.212  17.548  0.00  0.00    +0.000 A 
ATOM      8  C   UNL     1      -5.748  12.244  18.229  0.00  0.00    +0.000 A 
ATOM      9  C   UNL     1      -5.158  12.928  19.304  0.00  0.00    +0.000 A 
ATOM     10  C   UNL     1      -3.873  12.520  19.657  0.00  0.00    +0.000 A 
ATOM     11  N   UNL     1      -1.032  10.416  19.141  0.00  0.00    +0.000 NA
ATOM     12  C   UNL     1       0.127  10.418  19.743  0.00  0.00    +0.000 C 
ATOM     13  C   UNL     1       0.631  11.325  20.829  0.00  0.00    +0.000 C 
ATOM     14  S   UNL     1      -0.526  12.385  21.644  0.00  0.00    +0.000 S 
ENDROOT
BRANCH  12  15
ATOM     15  C   UNL     1       1.125   9.392  19.253  0.00  0.00    +0.000 A 
ATOM     16  C   UNL     1       1.670   9.483  17.966  0.00  0.00    +0.000 A 
ATOM     17  C   UNL     1       2.495   8.464  17.471  0.00  0.00    +0.000 A 
ATOM     18  C   UNL     1       2.826   7.340  18.248  0.00  0.00    +0.000 A 
ATOM     19  C   UNL     1       2.334   7.310  19.563  0.00  0.00    +0.000 A 
ATOM     20  C   UNL     1       1.491   8.313  20.061  0.00  0.00    +0.000 A 
BRANCH  18  21
ATOM     21  C   UNL     1       3.630   6.227  17.690  0.00  0.00    +0.000 A 
ATOM     22  C   UNL     1       3.336   4.885  17.992  0.00  0.00    +0.000 A 
ATOM     23  C   UNL     1       4.123   3.837  17.518  0.00  0.00    +0.000 A 
ATOM     24  C   UNL     1       5.224   4.102  16.709  0.00  0.00    +0.000 A 
ATOM     25  C   UNL     1       5.529   5.413  16.371  0.00  0.00    +0.000 A 
ATOM     26  C   UNL     1       4.744   6.465  16.856  0.00  0.00    +0.000 A 
ENDBRANCH  18  21
ENDBRANCH  12  15
TORSDOF 2
ENDMDL
MODEL 4
REMARK VINA RESULT:      -8.2      1.755      3.604
REMARK  Name = 
REMARK  3 active torsions:
REMARK  status: ('A' for Active; 'I' for Inactive)
REMARK    1  A    between atoms: C_1  and  N_2
REMARK    2  A    between atoms: C_12  and  C_13
REMARK    3  A    between atoms: C_16  and  C_17
REMARK                            x       y       z     vdW  Elec       q    Type
REMARK                         _______ _______ _______ _____ _____    ______ ____
ROOT
ATOM      1  C   UNL     1       3.949   1.869  18.360  0.00  0.00    +0.000 C 
ATOM      2  N   UNL     1       3.903   3.312  18.138  0.00  0.00    +0.000 N 
ATOM      3  C   UNL     1       3.152   4.202  18.794  0.00  0.00    +0.000 A 
ATOM      4  N   UNL     1       3.395   5.434  18.334  0.00  0.00    +0.000 N 
ATOM      5  C   UNL     1       4.264   5.328  17.251  0.00  0.00    +0.000 A 
ATOM      6  C   UNL     1       4.824   6.305  16.434  0.00  0.00    +0.000 A 
ATOM      7  C   UNL     1       5.688   5.847  15.431  0.00  0.00    +0.000 A 
ATOM      8  C   UNL     1       5.958   4.475  15.258  0.00  0.00    +0.000 A 
ATOM      9  C   UNL     1       5.391   3.499  16.092  0.00  0.00    +0.000 A 
ATOM     10  C   UNL     1       4.553   3.970  17.102  0.00  0.00    +0.000 A 
ATOM     11  N   UNL     1       2.946   6.677  18.791  0.00  0.00    +0.000 NA
ATOM     12  C   UNL     1       2.087   6.654  19.776  0.00  0.00    +0.000 C 
ATOM     13  C   UNL     1       1.496   5.472  20.490  0.00  0.00    +0.000 C 
ATOM     14  S   UNL     1       2.199   3.876  20.203  0.00  0.00    +0.000 S 
ENDROOT
BRANCH  12  15
ATOM     15  C   UNL     1       1.581   8.001  20.240  0.00  0.00    +0.000 A 
ATOM     16  C   UNL     1       1.332   8.242  21.596  0.00  0.00    +0.000 A 
ATOM     17  C   UNL     1       0.744   9.447  22.008  0.00  0.00    +0.000 A 
ATOM     18  C   UNL     1       0.412  10.457  21.088  0.00  0.00    +0.000 A 
ATOM     19  C   UNL     1       0.744  10.225  19.743  0.00  0.00    +0.000 A 
ATOM     20  C   UNL     1       1.312   9.017  19.319  0.00  0.00    +0.000 A 
BRANCH  18  21
ATOM     21  C   UNL     1      -0.285  11.691  21.519  0.00  0.00    +0.000 A 
ATOM     22  C   UNL     1      -0.859  11.802  22.798  0.00  0.00    +0.000 A 
ATOM     23  C   UNL     1      -1.567  12.938  23.189  0.00  0.00    +0.000 A 
ATOM     24  C   UNL     1      -1.708  14.008  22.311  0.00  0.00    +0.000 A 
ATOM     25  C   UNL     1      -1.133  13.942  21.049  0.00  0.00    +0.000 A 
ATOM     26  C   UNL     1      -0.432  12.798  20.655  0.00  0.00    +0.000 A 
ENDBRANCH  18  21
ENDBRANCH  12  15
TORSDOF 2
ENDMDL
MODEL 5
REMARK VINA RESULT:      -8.2      1.764      3.286
REMARK  Name = 
REMARK  3 active torsions:
REMARK  status: ('A' for Active; 'I' for Inactive)
REMARK    1  A    between atoms: C_1  and  N_2
REMARK    2  A    between atoms: C_12  and  C_13
REMARK    3  A    between atoms: C_16  and  C_17
REMARK                            x       y       z     vdW  Elec       q    Type
REMARK                         _______ _______ _______ _____ _____    ______ ____
ROOT
ATOM      1  C   UNL     1       4.142   2.257  18.785  0.00  0.00    +0.000 C 
ATOM      2  N   UNL     1       3.954   3.677  18.499  0.00  0.00    +0.000 N 
ATOM      3  C   UNL     1       3.157   4.529  19.151  0.00  0.00    +0.000 A 
ATOM      4  N   UNL     1       3.264   5.752  18.621  0.00  0.00    +0.000 N 
ATOM      5  C   UNL     1       4.085   5.668  17.499  0.00  0.00    +0.000 A 
ATOM      6  C   UNL     1       4.513   6.648  16.608  0.00  0.00    +0.000 A 
ATOM      7  C   UNL     1       5.365   6.217  15.583  0.00  0.00    +0.000 A 
ATOM      8  C   UNL     1       5.751   4.868  15.461  0.00  0.00    +0.000 A 
ATOM      9  C   UNL     1       5.317   3.890  16.370  0.00  0.00    +0.000 A 
ATOM     10  C   UNL     1       4.490   4.336  17.399  0.00  0.00    +0.000 A 
ATOM     11  N   UNL     1       2.725   6.973  19.041  0.00  0.00    +0.000 NA
ATOM     12  C   UNL     1       1.921   6.924  20.070  0.00  0.00    +0.000 C 
ATOM     13  C   UNL     1       1.476   5.733  20.870  0.00  0.00    +0.000 C 
ATOM     14  S   UNL     1       2.308   4.193  20.623  0.00  0.00    +0.000 S 
ENDROOT
BRANCH  12  15
ATOM     15  C   UNL     1       1.316   8.243  20.497  0.00  0.00    +0.000 A 
ATOM     16  C   UNL     1       1.111   9.269  19.566  0.00  0.00    +0.000 A 
ATOM     17  C   UNL     1       0.668  10.531  19.987  0.00  0.00    +0.000 A 
ATOM     18  C   UNL     1       0.392  10.803  21.338  0.00  0.00    +0.000 A 
ATOM     19  C   UNL     1       0.528   9.736  22.241  0.00  0.00    +0.000 A 
ATOM     20  C   UNL     1       0.989   8.477  21.835  0.00  0.00    +0.000 A 
BRANCH  18  21
ATOM     21  C   UNL     1       0.006  12.161  21.786  0.00  0.00    +0.000 A 
ATOM     22  C   UNL     1       0.641  13.310  21.280  0.00  0.00    +0.000 A 
ATOM     23  C   UNL     1       0.323  14.587  21.740  0.00  0.00    +0.000 A 
ATOM     24  C   UNL     1      -0.655  14.754  22.715  0.00  0.00    +0.000 A 
ATOM     25  C   UNL     1      -1.319  13.644  23.219  0.00  0.00    +0.000 A 
ATOM     26  C   UNL     1      -0.992  12.362  22.764  0.00  0.00    +0.000 A 
ENDBRANCH  18  21
ENDBRANCH  12  15
TORSDOF 2
ENDMDL
MODEL 6
REMARK VINA RESULT:      -8.1      3.912      9.556
REMARK  Name = 
REMARK  3 active torsions:
REMARK  status: ('A' for Active; 'I' for Inactive)
REMARK    1  A    between atoms: C_1  and  N_2
REMARK    2  A    between atoms: C_12  and  C_13
REMARK    3  A    between atoms: C_16  and  C_17
REMARK                            x       y       z     vdW  Elec       q    Type
REMARK                         _______ _______ _______ _____ _____    ______ ____
ROOT
ATOM      1  C   UNL     1      -1.429  15.492  20.143  0.00  0.00    +0.000 C 
ATOM      2  N   UNL     1      -0.300  14.703  19.657  0.00  0.00    +0.000 N 
ATOM      3  C   UNL     1      -0.122  13.385  19.794  0.00  0.00    +0.000 A 
ATOM      4  N   UNL     1       1.016  13.012  19.199  0.00  0.00    +0.000 N 
ATOM      5  C   UNL     1       1.666  14.159  18.750  0.00  0.00    +0.000 A 
ATOM      6  C   UNL     1       2.869  14.317  18.069  0.00  0.00    +0.000 A 
ATOM      7  C   UNL     1       3.226  15.632  17.747  0.00  0.00    +0.000 A 
ATOM      8  C   UNL     1       2.415  16.727  18.106  0.00  0.00    +0.000 A 
ATOM      9  C   UNL     1       1.201  16.555  18.788  0.00  0.00    +0.000 A 
ATOM     10  C   UNL     1       0.845  15.239  19.081  0.00  0.00    +0.000 A 
ATOM     11  N   UNL     1       1.548  11.738  18.978  0.00  0.00    +0.000 NA
ATOM     12  C   UNL     1       0.883  10.738  19.494  0.00  0.00    +0.000 C 
ATOM     13  C   UNL     1      -0.378  10.758  20.311  0.00  0.00    +0.000 C 
ATOM     14  S   UNL     1      -1.294  12.267  20.408  0.00  0.00    +0.000 S 
ENDROOT
BRANCH  12  15
ATOM     15  C   UNL     1       1.484   9.366  19.280  0.00  0.00    +0.000 A 
ATOM     16  C   UNL     1       1.988   8.995  18.028  0.00  0.00    +0.000 A 
ATOM     17  C   UNL     1       2.428   7.684  17.799  0.00  0.00    +0.000 A 
ATOM     18  C   UNL     1       2.405   6.711  18.814  0.00  0.00    +0.000 A 
ATOM     19  C   UNL     1       1.970   7.128  20.084  0.00  0.00    +0.000 A 
ATOM     20  C   UNL     1       1.510   8.430  20.317  0.00  0.00    +0.000 A 
BRANCH  18  21
ATOM     21  C   UNL     1       2.792   5.307  18.544  0.00  0.00    +0.000 A 
ATOM     22  C   UNL     1       4.018   4.784  18.992  0.00  0.00    +0.000 A 
ATOM     23  C   UNL     1       4.415   3.481  18.691  0.00  0.00    +0.000 A 
ATOM     24  C   UNL     1       3.583   2.655  17.941  0.00  0.00    +0.000 A 
ATOM     25  C   UNL     1       2.355   3.131  17.503  0.00  0.00    +0.000 A 
ATOM     26  C   UNL     1       1.963   4.442  17.798  0.00  0.00    +0.000 A 
ENDBRANCH  18  21
ENDBRANCH  12  15
TORSDOF 2
ENDMDL
MODEL 7
REMARK VINA RESULT:      -8.0      1.839      3.586
REMARK  Name = 
REMARK  3 active torsions:
REMARK  status: ('A' for Active; 'I' for Inactive)
REMARK    1  A    between atoms: C_1  and  N_2
REMARK    2  A    between atoms: C_12  and  C_13
REMARK    3  A    between atoms: C_16  and  C_17
REMARK                            x       y       z     vdW  Elec       q    Type
REMARK                         _______ _______ _______ _____ _____    ______ ____
ROOT
ATOM      1  C   UNL     1       4.155   1.978  18.493  0.00  0.00    +0.000 C 
ATOM      2  N   UNL     1       4.017   3.409  18.235  0.00  0.00    +0.000 N 
ATOM      3  C   UNL     1       3.231   4.271  18.888  0.00  0.00    +0.000 A 
ATOM      4  N   UNL     1       3.388   5.502  18.389  0.00  0.00    +0.000 N 
ATOM      5  C   UNL     1       4.233   5.417  17.285  0.00  0.00    +0.000 A 
ATOM      6  C   UNL     1       4.712   6.402  16.426  0.00  0.00    +0.000 A 
ATOM      7  C   UNL     1       5.575   5.968  15.412  0.00  0.00    +0.000 A 
ATOM      8  C   UNL     1       5.923   4.610  15.269  0.00  0.00    +0.000 A 
ATOM      9  C   UNL     1       5.437   3.626  16.144  0.00  0.00    +0.000 A 
ATOM     10  C   UNL     1       4.599   4.075  17.164  0.00  0.00    +0.000 A 
ATOM     11  N   UNL     1       2.877   6.729  18.824  0.00  0.00    +0.000 NA
ATOM     12  C   UNL     1       2.048   6.682  19.833  0.00  0.00    +0.000 C 
ATOM     13  C   UNL     1       1.547   5.488  20.595  0.00  0.00    +0.000 C 
ATOM     14  S   UNL     1       2.337   3.929  20.331  0.00  0.00    +0.000 S 
ENDROOT
BRANCH  12  15
ATOM     15  C   UNL     1       1.473   8.010  20.275  0.00  0.00    +0.000 A 
ATOM     16  C   UNL     1       1.263   9.041  19.351  0.00  0.00    +0.000 A 
ATOM     17  C   UNL     1       0.851  10.309  19.784  0.00  0.00    +0.000 A 
ATOM     18  C   UNL     1       0.609  10.582  21.142  0.00  0.00    +0.000 A 
ATOM     19  C   UNL     1       0.749   9.511  22.040  0.00  0.00    +0.000 A 
ATOM     20  C   UNL     1       1.181   8.246  21.621  0.00  0.00    +0.000 A 
BRANCH  18  21
ATOM     21  C   UNL     1       0.255  11.946  21.601  0.00  0.00    +0.000 A 
ATOM     22  C   UNL     1      -0.756  12.160  22.556  0.00  0.00    +0.000 A 
ATOM     23  C   UNL     1      -1.134  13.442  22.950  0.00  0.00    +0.000 A 
ATOM     24  C   UNL     1      -0.498  14.554  22.407  0.00  0.00    +0.000 A 
ATOM     25  C   UNL     1       0.521  14.379  21.480  0.00  0.00    +0.000 A 
ATOM     26  C   UNL     1       0.892  13.092  21.079  0.00  0.00    +0.000 A 
ENDBRANCH  18  21
ENDBRANCH  12  15
TORSDOF 2
ENDMDL
MODEL 8
REMARK VINA RESULT:      -8.0      4.216      9.354
REMARK  Name = 
REMARK  3 active torsions:
REMARK  status: ('A' for Active; 'I' for Inactive)
REMARK    1  A    between atoms: C_1  and  N_2
REMARK    2  A    between atoms: C_12  and  C_13
REMARK    3  A    between atoms: C_16  and  C_17
REMARK                            x       y       z     vdW  Elec       q    Type
REMARK                         _______ _______ _______ _____ _____    ______ ____
ROOT
ATOM      1  C   UNL     1      -0.805  16.241  19.065  0.00  0.00    +0.000 C 
ATOM      2  N   UNL     1       0.259  15.253  18.913  0.00  0.00    +0.000 N 
ATOM      3  C   UNL     1       0.193  13.949  19.204  0.00  0.00    +0.000 A 
ATOM      4  N   UNL     1       1.355  13.355  18.911  0.00  0.00    +0.000 N 
ATOM      5  C   UNL     1       2.257  14.339  18.515  0.00  0.00    +0.000 A 
ATOM      6  C   UNL     1       3.584  14.248  18.105  0.00  0.00    +0.000 A 
ATOM      7  C   UNL     1       4.203  15.453  17.752  0.00  0.00    +0.000 A 
ATOM      8  C   UNL     1       3.521  16.683  17.823  0.00  0.00    +0.000 A 
ATOM      9  C   UNL     1       2.181  16.763  18.233  0.00  0.00    +0.000 A 
ATOM     10  C   UNL     1       1.568  15.553  18.558  0.00  0.00    +0.000 A 
ATOM     11  N   UNL     1       1.711  12.003  18.929  0.00  0.00    +0.000 NA
ATOM     12  C   UNL     1       0.805  11.174  19.374  0.00  0.00    +0.000 C 
ATOM     13  C   UNL     1      -0.576  11.465  19.887  0.00  0.00    +0.000 C 
ATOM     14  S   UNL     1      -1.241  13.084  19.643  0.00  0.00    +0.000 S 
ENDROOT
BRANCH  12  15
ATOM     15  C   UNL     1       1.211   9.717  19.422  0.00  0.00    +0.000 A 
ATOM     16  C   UNL     1       1.061   8.972  20.597  0.00  0.00    +0.000 A 
ATOM     17  C   UNL     1       1.554   7.662  20.675  0.00  0.00    +0.000 A 
ATOM     18  C   UNL     1       2.185   7.045  19.581  0.00  0.00    +0.000 A 
ATOM     19  C   UNL     1       2.253   7.783  18.388  0.00  0.00    +0.000 A 
ATOM     20  C   UNL     1       1.782   9.100  18.306  0.00  0.00    +0.000 A 
BRANCH  18  21
ATOM     21  C   UNL     1       2.778   5.692  19.696  0.00  0.00    +0.000 A 
ATOM     22  C   UNL     1       4.065   5.409  19.204  0.00  0.00    +0.000 A 
ATOM     23  C   UNL     1       4.605   4.125  19.256  0.00  0.00    +0.000 A 
ATOM     24  C   UNL     1       3.875   3.084  19.821  0.00  0.00    +0.000 A 
ATOM     25  C   UNL     1       2.611   3.333  20.339  0.00  0.00    +0.000 A 
ATOM     26  C   UNL     1       2.067   4.620  20.276  0.00  0.00    +0.000 A 
ENDBRANCH  18  21
ENDBRANCH  12  15
TORSDOF 2
ENDMDL
MODEL 9
REMARK VINA RESULT:      -7.9      1.017      1.598
REMARK  Name = 
REMARK  3 active torsions:
REMARK  status: ('A' for Active; 'I' for Inactive)
REMARK    1  A    between atoms: C_1  and  N_2
REMARK    2  A    between atoms: C_12  and  C_13
REMARK    3  A    between atoms: C_16  and  C_17
REMARK                            x       y       z     vdW  Elec       q    Type
REMARK                         _______ _______ _______ _____ _____    ______ ____
ROOT
ATOM      1  C   UNL     1       4.830   4.394  17.152  0.00  0.00    +0.000 C 
ATOM      2  N   UNL     1       3.964   4.799  18.256  0.00  0.00    +0.000 N 
ATOM      3  C   UNL     1       3.448   6.015  18.467  0.00  0.00    +0.000 A 
ATOM      4  N   UNL     1       2.683   6.002  19.564  0.00  0.00    +0.000 N 
ATOM      5  C   UNL     1       2.796   4.748  20.157  0.00  0.00    +0.000 A 
ATOM      6  C   UNL     1       2.204   4.225  21.303  0.00  0.00    +0.000 A 
ATOM      7  C   UNL     1       2.525   2.896  21.610  0.00  0.00    +0.000 A 
ATOM      8  C   UNL     1       3.407   2.145  20.809  0.00  0.00    +0.000 A 
ATOM      9  C   UNL     1       3.994   2.682  19.652  0.00  0.00    +0.000 A 
ATOM     10  C   UNL     1       3.647   3.996  19.344  0.00  0.00    +0.000 A 
ATOM     11  N   UNL     1       1.853   6.992  20.101  0.00  0.00    +0.000 NA
ATOM     12  C   UNL     1       1.870   8.150  19.496  0.00  0.00    +0.000 C 
ATOM     13  C   UNL     1       2.669   8.583  18.300  0.00  0.00    +0.000 C 
ATOM     14  S   UNL     1       3.523   7.349  17.366  0.00  0.00    +0.000 S 
ENDROOT
BRANCH  12  15
ATOM     15  C   UNL     1       0.995   9.224  20.104  0.00  0.00    +0.000 A 
ATOM     16  C   UNL     1       0.787   9.277  21.487  0.00  0.00    +0.000 A 
ATOM     17  C   UNL     1      -0.122  10.193  22.034  0.00  0.00    +0.000 A 
ATOM     18  C   UNL     1      -0.830  11.101  21.226  0.00  0.00    +0.000 A 
ATOM     19  C   UNL     1      -0.545  11.083  19.851  0.00  0.00    +0.000 A 
ATOM     20  C   UNL     1       0.346  10.157  19.292  0.00  0.00    +0.000 A 
BRANCH  18  21
ATOM     21  C   UNL     1      -1.850  12.009  21.801  0.00  0.00    +0.000 A 
ATOM     22  C   UNL     1      -2.285  11.877  23.132  0.00  0.00    +0.000 A 
ATOM     23  C   UNL     1      -3.286  12.690  23.661  0.00  0.00    +0.000 A 
ATOM     24  C   UNL     1      -3.874  13.675  22.873  0.00  0.00    +0.000 A 
ATOM     25  C   UNL     1      -3.452  13.848  21.562  0.00  0.00    +0.000 A 
ATOM     26  C   UNL     1      -2.454  13.025  21.030  0.00  0.00    +0.000 A 
ENDBRANCH  18  21
ENDBRANCH  12  15
TORSDOF 2
ENDMDL
