MODEL 1
REMARK VINA RESULT:      -7.5      0.000      0.000
REMARK  Name = 
REMARK  11 active torsions:
REMARK  status: ('A' for Active; 'I' for Inactive)
REMARK    1  A    between atoms: C_1  and  C_2
REMARK    2  A    between atoms: C_6  and  N_7
REMARK    3  A    between atoms: C_8  and  C_10
REMARK    4  A    between atoms: C_12  and  N_13
REMARK    5  A    between atoms: C_14  and  C_16
REMARK    6  A    between atoms: C_16  and  C_17
REMARK    7  A    between atoms: C_17  and  C_18
REMARK    8  A    between atoms: C_18  and  C_19
REMARK    9  A    between atoms: C_19  and  C_20
REMARK   10  A    between atoms: C_20  and  N_21
REMARK   11  A    between atoms: N_24  and  N_25
REMARK                            x       y       z     vdW  Elec       q    Type
REMARK                         _______ _______ _______ _____ _____    ______ ____
ROOT
ATOM      1  N   UNL     1       1.374   6.926  21.141  0.00  0.00    +0.000 N 
ATOM      2  C   UNL     1       2.110   5.949  20.514  0.00  0.00    +0.000 C 
ATOM      3  O   UNL     1       3.046   6.185  19.757  0.00  0.00    +0.000 OA
ATOM      4  H   UNL     1       0.776   6.662  21.915  0.00  0.00    +0.000 HD
ENDROOT
BRANCH   1   7
ATOM      5  C   UNL     1       0.813  10.386  20.167  0.00  0.00    +0.000 C 
ATOM      6  C   UNL     1       0.934   8.924  19.781  0.00  0.00    +0.000 C 
ATOM      7  C   UNL     1       1.686   8.327  20.955  0.00  0.00    +0.000 C 
ATOM      8  C   UNL     1       1.314   9.225  22.148  0.00  0.00    +0.000 C 
ATOM      9  N   UNL     1       0.495  10.339  21.617  0.00  0.00    +0.000 NA
ATOM     10  H   UNL     1       0.808  11.209  22.053  0.00  0.00    +0.000 HD
BRANCH   5  12
ATOM     11  N   UNL     1      -1.118  10.208  18.663  0.00  0.00    +0.000 N 
ATOM     12  C   UNL     1      -0.257  11.076  19.317  0.00  0.00    +0.000 C 
ATOM     13  O   UNL     1      -0.287  12.303  19.278  0.00  0.00    +0.000 OA
ATOM     14  H   UNL     1      -0.884   9.226  18.767  0.00  0.00    +0.000 HD
BRANCH  11  20
ATOM     15  C   UNL     1      -5.536  12.402  18.355  0.00  0.00    +0.000 C 
ATOM     16  C   UNL     1      -4.410  11.651  17.706  0.00  0.00    +0.000 A 
ATOM     17  C   UNL     1      -4.469  11.332  16.347  0.00  0.00    +0.000 A 
ATOM     18  C   UNL     1      -3.423  10.638  15.748  0.00  0.00    +0.000 A 
ATOM     19  C   UNL     1      -2.312  10.256  16.500  0.00  0.00    +0.000 A 
ATOM     20  C   UNL     1      -2.226  10.558  17.861  0.00  0.00    +0.000 A 
ATOM     21  C   UNL     1      -3.284  11.259  18.458  0.00  0.00    +0.000 A 
ENDBRANCH  11  20
ENDBRANCH   5  12
ENDBRANCH   1   7
BRANCH   2  22
ATOM     22  C   UNL     1       1.608   4.545  20.765  0.00  0.00    +0.000 C 
BRANCH  22  23
ATOM     23  C   UNL     1       1.348   3.813  19.449  0.00  0.00    +0.000 C 
BRANCH  23  24
ATOM     24  C   UNL     1       2.443   2.809  19.058  0.00  0.00    +0.000 C 
BRANCH  24  25
ATOM     25  C   UNL     1       2.828   2.825  17.576  0.00  0.00    +0.000 C 
BRANCH  25  26
ATOM     26  C   UNL     1       3.178   4.234  17.109  0.00  0.00    +0.000 C 
BRANCH  26  27
ATOM     27  N   UNL     1       4.445   4.662  17.647  0.00  0.00    +0.000 N 
ATOM     28  C   UNL     1       5.289   5.553  17.068  0.00  0.00    +0.000 C 
ATOM     29  N   UNL     1       4.978   6.252  16.021  0.00  0.00    +0.000 NA
ATOM     30  N   UNL     1       6.518   5.779  17.589  0.00  0.00    +0.000 N 
ATOM     31  H   UNL     1       4.848   4.050  18.359  0.00  0.00    +0.000 HD
ATOM     32  H   UNL     1       4.028   6.022  15.723  0.00  0.00    +0.000 HD
ATOM     33  H   UNL     1       7.030   6.498  17.109  0.00  0.00    +0.000 HD
BRANCH  30  34
ATOM     34  N   UNL     1       7.064   5.168  18.637  0.00  0.00    +0.000 N 
ATOM     35  O   UNL     1       6.585   5.332  19.764  0.00  0.00    +0.000 OA
ATOM     36  O   UNL     1       8.026   4.456  18.350  0.00  0.00    +0.000 OA
ENDBRANCH  30  34
ENDBRANCH  26  27
ENDBRANCH  25  26
ENDBRANCH  24  25
ENDBRANCH  23  24
ENDBRANCH  22  23
ENDBRANCH   2  22
TORSDOF 10
ENDMDL
MODEL 2
REMARK VINA RESULT:      -7.4      3.847      8.552
REMARK  Name = 
REMARK  11 active torsions:
REMARK  status: ('A' for Active; 'I' for Inactive)
REMARK    1  A    between atoms: C_1  and  C_2
REMARK    2  A    between atoms: C_6  and  N_7
REMARK    3  A    between atoms: C_8  and  C_10
REMARK    4  A    between atoms: C_12  and  N_13
REMARK    5  A    between atoms: C_14  and  C_16
REMARK    6  A    between atoms: C_16  and  C_17
REMARK    7  A    between atoms: C_17  and  C_18
REMARK    8  A    between atoms: C_18  and  C_19
REMARK    9  A    between atoms: C_19  and  C_20
REMARK   10  A    between atoms: C_20  and  N_21
REMARK   11  A    between atoms: N_24  and  N_25
REMARK                            x       y       z     vdW  Elec       q    Type
REMARK                         _______ _______ _______ _____ _____    ______ ____
ROOT
ATOM      1  N   UNL     1       4.694   3.189  17.422  0.00  0.00    +0.000 N 
ATOM      2  C   UNL     1       3.346   2.929  17.492  0.00  0.00    +0.000 C 
ATOM      3  O   UNL     1       2.489   3.647  16.988  0.00  0.00    +0.000 OA
ATOM      4  H   UNL     1       5.344   2.449  17.657  0.00  0.00    +0.000 HD
ENDROOT
BRANCH   1   7
ATOM      5  C   UNL     1       6.684   6.182  16.861  0.00  0.00    +0.000 C 
ATOM      6  C   UNL     1       5.614   5.455  17.653  0.00  0.00    +0.000 C 
ATOM      7  C   UNL     1       5.192   4.346  16.708  0.00  0.00    +0.000 C 
ATOM      8  C   UNL     1       6.439   4.075  15.850  0.00  0.00    +0.000 C 
ATOM      9  N   UNL     1       7.456   5.083  16.228  0.00  0.00    +0.000 NA
ATOM     10  H   UNL     1       7.897   5.437  15.375  0.00  0.00    +0.000 HD
BRANCH   5  12
ATOM     11  N   UNL     1       7.654   8.384  17.345  0.00  0.00    +0.000 N 
ATOM     12  C   UNL     1       7.516   7.076  17.785  0.00  0.00    +0.000 C 
ATOM     13  O   UNL     1       7.982   6.600  18.816  0.00  0.00    +0.000 OA
ATOM     14  H   UNL     1       7.252   8.565  16.431  0.00  0.00    +0.000 HD
BRANCH  11  20
ATOM     15  C   UNL     1       8.824  13.185  17.463  0.00  0.00    +0.000 C 
ATOM     16  C   UNL     1       8.886  11.816  18.076  0.00  0.00    +0.000 A 
ATOM     17  C   UNL     1       9.568  11.616  19.280  0.00  0.00    +0.000 A 
ATOM     18  C   UNL     1       9.623  10.348  19.847  0.00  0.00    +0.000 A 
ATOM     19  C   UNL     1       9.000   9.270  19.219  0.00  0.00    +0.000 A 
ATOM     20  C   UNL     1       8.314   9.438  18.014  0.00  0.00    +0.000 A 
ATOM     21  C   UNL     1       8.262  10.720  17.447  0.00  0.00    +0.000 A 
ENDBRANCH  11  20
ENDBRANCH   5  12
ENDBRANCH   1   7
BRANCH   2  22
ATOM     22  C   UNL     1       2.997   1.720  18.329  0.00  0.00    +0.000 C 
BRANCH  22  23
ATOM     23  C   UNL     1       2.138   2.115  19.531  0.00  0.00    +0.000 C 
BRANCH  23  24
ATOM     24  C   UNL     1       2.571   3.423  20.211  0.00  0.00    +0.000 C 
BRANCH  24  25
ATOM     25  C   UNL     1       1.539   4.553  20.143  0.00  0.00    +0.000 C 
BRANCH  25  26
ATOM     26  C   UNL     1       1.993   5.770  20.941  0.00  0.00    +0.000 C 
BRANCH  26  27
ATOM     27  N   UNL     1       1.909   6.973  20.152  0.00  0.00    +0.000 N 
ATOM     28  C   UNL     1       1.605   8.208  20.624  0.00  0.00    +0.000 C 
ATOM     29  N   UNL     1       1.505   8.482  21.889  0.00  0.00    +0.000 NA
ATOM     30  N   UNL     1       1.414   9.244  19.775  0.00  0.00    +0.000 N 
ATOM     31  H   UNL     1       1.797   6.830  19.146  0.00  0.00    +0.000 HD
ATOM     32  H   UNL     1       1.688   7.641  22.439  0.00  0.00    +0.000 HD
ATOM     33  H   UNL     1       1.250  10.119  20.242  0.00  0.00    +0.000 HD
BRANCH  30  34
ATOM     34  N   UNL     1       1.440   9.201  18.445  0.00  0.00    +0.000 N 
ATOM     35  O   UNL     1       0.458   9.579  17.798  0.00  0.00    +0.000 OA
ATOM     36  O   UNL     1       2.503   8.786  17.985  0.00  0.00    +0.000 OA
ENDBRANCH  30  34
ENDBRANCH  26  27
ENDBRANCH  25  26
ENDBRANCH  24  25
ENDBRANCH  23  24
ENDBRANCH  22  23
ENDBRANCH   2  22
TORSDOF 10
ENDMDL
MODEL 3
REMARK VINA RESULT:      -7.2      1.473      2.202
REMARK  Name = 
REMARK  11 active torsions:
REMARK  status: ('A' for Active; 'I' for Inactive)
REMARK    1  A    between atoms: C_1  and  C_2
REMARK    2  A    between atoms: C_6  and  N_7
REMARK    3  A    between atoms: C_8  and  C_10
REMARK    4  A    between atoms: C_12  and  N_13
REMARK    5  A    between atoms: C_14  and  C_16
REMARK    6  A    between atoms: C_16  and  C_17
REMARK    7  A    between atoms: C_17  and  C_18
REMARK    8  A    between atoms: C_18  and  C_19
REMARK    9  A    between atoms: C_19  and  C_20
REMARK   10  A    between atoms: C_20  and  N_21
REMARK   11  A    between atoms: N_24  and  N_25
REMARK                            x       y       z     vdW  Elec       q    Type
REMARK                         _______ _______ _______ _____ _____    ______ ____
ROOT
ATOM      1  N   UNL     1       1.718   7.490  20.863  0.00  0.00    +0.000 N 
ATOM      2  C   UNL     1       2.210   7.111  19.636  0.00  0.00    +0.000 C 
ATOM      3  O   UNL     1       2.487   7.902  18.742  0.00  0.00    +0.000 OA
ATOM      4  H   UNL     1       1.727   6.817  21.618  0.00  0.00    +0.000 HD
ENDROOT
BRANCH   1   7
ATOM      5  C   UNL     1       0.161  10.774  20.715  0.00  0.00    +0.000 C 
ATOM      6  C   UNL     1       0.913   9.654  20.023  0.00  0.00    +0.000 C 
ATOM      7  C   UNL     1       1.518   8.888  21.183  0.00  0.00    +0.000 C 
ATOM      8  C   UNL     1       0.553   9.138  22.356  0.00  0.00    +0.000 C 
ATOM      9  N   UNL     1      -0.465  10.105  21.884  0.00  0.00    +0.000 NA
ATOM     10  H   UNL     1      -0.620  10.799  22.619  0.00  0.00    +0.000 HD
BRANCH   5  12
ATOM     11  N   UNL     1      -1.531  10.516  18.956  0.00  0.00    +0.000 N 
ATOM     12  C   UNL     1      -0.843  11.417  19.755  0.00  0.00    +0.000 C 
ATOM     13  O   UNL     1      -0.976  12.638  19.760  0.00  0.00    +0.000 OA
ATOM     14  H   UNL     1      -1.228   9.552  19.052  0.00  0.00    +0.000 HD
BRANCH  11  20
ATOM     15  C   UNL     1      -3.211  10.129  14.324  0.00  0.00    +0.000 C 
ATOM     16  C   UNL     1      -3.385  10.616  15.733  0.00  0.00    +0.000 A 
ATOM     17  C   UNL     1      -4.533  11.327  16.095  0.00  0.00    +0.000 A 
ATOM     18  C   UNL     1      -4.692  11.775  17.402  0.00  0.00    +0.000 A 
ATOM     19  C   UNL     1      -3.708  11.519  18.357  0.00  0.00    +0.000 A 
ATOM     20  C   UNL     1      -2.549  10.815  18.024  0.00  0.00    +0.000 A 
ATOM     21  C   UNL     1      -2.395  10.365  16.704  0.00  0.00    +0.000 A 
ENDBRANCH  11  20
ENDBRANCH   5  12
ENDBRANCH   1   7
BRANCH   2  22
ATOM     22  C   UNL     1       2.294   5.613  19.445  0.00  0.00    +0.000 C 
BRANCH  22  23
ATOM     23  C   UNL     1       2.478   5.259  17.969  0.00  0.00    +0.000 C 
BRANCH  23  24
ATOM     24  C   UNL     1       3.053   3.855  17.725  0.00  0.00    +0.000 C 
BRANCH  24  25
ATOM     25  C   UNL     1       3.335   3.048  18.996  0.00  0.00    +0.000 C 
BRANCH  25  26
ATOM     26  C   UNL     1       4.761   3.269  19.489  0.00  0.00    +0.000 C 
BRANCH  26  27
ATOM     27  N   UNL     1       5.611   3.747  18.428  0.00  0.00    +0.000 N 
ATOM     28  C   UNL     1       6.514   4.755  18.533  0.00  0.00    +0.000 C 
ATOM     29  N   UNL     1       6.833   5.311  19.661  0.00  0.00    +0.000 NA
ATOM     30  N   UNL     1       7.161   5.219  17.438  0.00  0.00    +0.000 N 
ATOM     31  H   UNL     1       5.314   3.500  17.482  0.00  0.00    +0.000 HD
ATOM     32  H   UNL     1       6.307   4.875  20.420  0.00  0.00    +0.000 HD
ATOM     33  H   UNL     1       7.844   5.926  17.647  0.00  0.00    +0.000 HD
BRANCH  30  34
ATOM     34  N   UNL     1       6.984   4.824  16.180  0.00  0.00    +0.000 N 
ATOM     35  O   UNL     1       6.349   3.791  15.942  0.00  0.00    +0.000 OA
ATOM     36  O   UNL     1       7.483   5.582  15.348  0.00  0.00    +0.000 OA
ENDBRANCH  30  34
ENDBRANCH  26  27
ENDBRANCH  25  26
ENDBRANCH  24  25
ENDBRANCH  23  24
ENDBRANCH  22  23
ENDBRANCH   2  22
TORSDOF 10
ENDMDL
MODEL 4
REMARK VINA RESULT:      -7.2      3.781      6.500
REMARK  Name = 
REMARK  11 active torsions:
REMARK  status: ('A' for Active; 'I' for Inactive)
REMARK    1  A    between atoms: C_1  and  C_2
REMARK    2  A    between atoms: C_6  and  N_7
REMARK    3  A    between atoms: C_8  and  C_10
REMARK    4  A    between atoms: C_12  and  N_13
REMARK    5  A    between atoms: C_14  and  C_16
REMARK    6  A    between atoms: C_16  and  C_17
REMARK    7  A    between atoms: C_17  and  C_18
REMARK    8  A    between atoms: C_18  and  C_19
REMARK    9  A    between atoms: C_19  and  C_20
REMARK   10  A    between atoms: C_20  and  N_21
REMARK   11  A    between atoms: N_24  and  N_25
REMARK                            x       y       z     vdW  Elec       q    Type
REMARK                         _______ _______ _______ _____ _____    ______ ____
ROOT
ATOM      1  N   UNL     1       5.739   3.678  18.609  0.00  0.00    +0.000 N 
ATOM      2  C   UNL     1       6.769   4.558  18.846  0.00  0.00    +0.000 C 
ATOM      3  O   UNL     1       6.883   5.207  19.880  0.00  0.00    +0.000 OA
ATOM      4  H   UNL     1       5.829   3.019  17.846  0.00  0.00    +0.000 HD
ENDROOT
BRANCH   1   7
ATOM      5  C   UNL     1       2.632   4.230  20.419  0.00  0.00    +0.000 C 
ATOM      6  C   UNL     1       4.002   4.724  19.995  0.00  0.00    +0.000 C 
ATOM      7  C   UNL     1       4.717   3.445  19.607  0.00  0.00    +0.000 C 
ATOM      8  C   UNL     1       3.592   2.496  19.155  0.00  0.00    +0.000 C 
ATOM      9  N   UNL     1       2.309   3.191  19.409  0.00  0.00    +0.000 NA
ATOM     10  H   UNL     1       1.653   2.522  19.819  0.00  0.00    +0.000 HD
BRANCH   5  12
ATOM     11  N   UNL     1       2.218   6.648  20.495  0.00  0.00    +0.000 N 
ATOM     12  C   UNL     1       1.634   5.390  20.461  0.00  0.00    +0.000 C 
ATOM     13  O   UNL     1       0.432   5.143  20.452  0.00  0.00    +0.000 OA
ATOM     14  H   UNL     1       3.230   6.639  20.567  0.00  0.00    +0.000 HD
BRANCH  11  20
ATOM     15  C   UNL     1      -0.479   9.978  22.957  0.00  0.00    +0.000 C 
ATOM     16  C   UNL     1       0.222   9.545  21.703  0.00  0.00    +0.000 A 
ATOM     17  C   UNL     1       0.217  10.369  20.574  0.00  0.00    +0.000 A 
ATOM     18  C   UNL     1       0.870   9.966  19.414  0.00  0.00    +0.000 A 
ATOM     19  C   UNL     1       1.531   8.738  19.371  0.00  0.00    +0.000 A 
ATOM     20  C   UNL     1       1.551   7.892  20.482  0.00  0.00    +0.000 A 
ATOM     21  C   UNL     1       0.891   8.305  21.649  0.00  0.00    +0.000 A 
ENDBRANCH  11  20
ENDBRANCH   5  12
ENDBRANCH   1   7
BRANCH   2  22
ATOM     22  C   UNL     1       7.709   4.731  17.675  0.00  0.00    +0.000 C 
BRANCH  22  23
ATOM     23  C   UNL     1       6.980   4.510  16.350  0.00  0.00    +0.000 C 
BRANCH  23  24
ATOM     24  C   UNL     1       7.373   5.499  15.241  0.00  0.00    +0.000 C 
BRANCH  24  25
ATOM     25  C   UNL     1       6.953   5.078  13.829  0.00  0.00    +0.000 C 
BRANCH  25  26
ATOM     26  C   UNL     1       5.883   3.992  13.869  0.00  0.00    +0.000 C 
BRANCH  26  27
ATOM     27  N   UNL     1       6.089   3.019  12.826  0.00  0.00    +0.000 N 
ATOM     28  C   UNL     1       5.205   2.717  11.842  0.00  0.00    +0.000 C 
ATOM     29  N   UNL     1       4.116   3.391  11.631  0.00  0.00    +0.000 NA
ATOM     30  N   UNL     1       5.439   1.687  10.995  0.00  0.00    +0.000 N 
ATOM     31  H   UNL     1       6.820   2.328  13.008  0.00  0.00    +0.000 HD
ATOM     32  H   UNL     1       4.048   4.154  12.306  0.00  0.00    +0.000 HD
ATOM     33  H   UNL     1       4.744   1.595  10.275  0.00  0.00    +0.000 HD
BRANCH  30  34
ATOM     34  N   UNL     1       6.469   0.844  11.030  0.00  0.00    +0.000 N 
ATOM     35  O   UNL     1       7.624   1.283  11.038  0.00  0.00    +0.000 OA
ATOM     36  O   UNL     1       6.137  -0.340  11.072  0.00  0.00    +0.000 OA
ENDBRANCH  30  34
ENDBRANCH  26  27
ENDBRANCH  25  26
ENDBRANCH  24  25
ENDBRANCH  23  24
ENDBRANCH  22  23
ENDBRANCH   2  22
TORSDOF 10
ENDMDL
MODEL 5
REMARK VINA RESULT:      -7.2      4.447      8.547
REMARK  Name = 
REMARK  11 active torsions:
REMARK  status: ('A' for Active; 'I' for Inactive)
REMARK    1  A    between atoms: C_1  and  C_2
REMARK    2  A    between atoms: C_6  and  N_7
REMARK    3  A    between atoms: C_8  and  C_10
REMARK    4  A    between atoms: C_12  and  N_13
REMARK    5  A    between atoms: C_14  and  C_16
REMARK    6  A    between atoms: C_16  and  C_17
REMARK    7  A    between atoms: C_17  and  C_18
REMARK    8  A    between atoms: C_18  and  C_19
REMARK    9  A    between atoms: C_19  and  C_20
REMARK   10  A    between atoms: C_20  and  N_21
REMARK   11  A    between atoms: N_24  and  N_25
REMARK                            x       y       z     vdW  Elec       q    Type
REMARK                         _______ _______ _______ _____ _____    ______ ____
ROOT
ATOM      1  N   UNL     1       5.129   4.074  18.057  0.00  0.00    +0.000 N 
ATOM      2  C   UNL     1       4.415   3.847  16.904  0.00  0.00    +0.000 C 
ATOM      3  O   UNL     1       4.860   4.049  15.780  0.00  0.00    +0.000 OA
ATOM      4  H   UNL     1       4.789   3.677  18.925  0.00  0.00    +0.000 HD
ENDROOT
BRANCH   1   7
ATOM      5  C   UNL     1       7.825   6.516  18.043  0.00  0.00    +0.000 C 
ATOM      6  C   UNL     1       6.582   5.939  17.392  0.00  0.00    +0.000 C 
ATOM      7  C   UNL     1       6.493   4.555  18.005  0.00  0.00    +0.000 C 
ATOM      8  C   UNL     1       7.170   4.697  19.379  0.00  0.00    +0.000 C 
ATOM      9  N   UNL     1       7.717   6.072  19.455  0.00  0.00    +0.000 NA
ATOM     10  H   UNL     1       8.655   6.027  19.861  0.00  0.00    +0.000 HD
BRANCH   5  12
ATOM     11  N   UNL     1       8.639   8.702  18.805  0.00  0.00    +0.000 N 
ATOM     12  C   UNL     1       7.862   8.037  17.869  0.00  0.00    +0.000 C 
ATOM     13  O   UNL     1       7.234   8.547  16.945  0.00  0.00    +0.000 OA
ATOM     14  H   UNL     1       9.022   8.107  19.532  0.00  0.00    +0.000 HD
BRANCH  11  20
ATOM     15  C   UNL     1      10.256  12.560  21.437  0.00  0.00    +0.000 C 
ATOM     16  C   UNL     1       9.709  11.997  20.158  0.00  0.00    +0.000 A 
ATOM     17  C   UNL     1       9.488  12.834  19.060  0.00  0.00    +0.000 A 
ATOM     18  C   UNL     1       8.984  12.309  17.874  0.00  0.00    +0.000 A 
ATOM     19  C   UNL     1       8.694  10.949  17.776  0.00  0.00    +0.000 A 
ATOM     20  C   UNL     1       8.901  10.089  18.857  0.00  0.00    +0.000 A 
ATOM     21  C   UNL     1       9.411  10.624  20.049  0.00  0.00    +0.000 A 
ENDBRANCH  11  20
ENDBRANCH   5  12
ENDBRANCH   1   7
BRANCH   2  22
ATOM     22  C   UNL     1       2.987   3.411  17.142  0.00  0.00    +0.000 C 
BRANCH  22  23
ATOM     23  C   UNL     1       2.752   3.088  18.618  0.00  0.00    +0.000 C 
BRANCH  23  24
ATOM     24  C   UNL     1       1.312   3.332  19.095  0.00  0.00    +0.000 C 
BRANCH  24  25
ATOM     25  C   UNL     1       1.181   3.702  20.575  0.00  0.00    +0.000 C 
BRANCH  25  26
ATOM     26  C   UNL     1       2.257   4.697  20.995  0.00  0.00    +0.000 C 
BRANCH  26  27
ATOM     27  N   UNL     1       1.806   6.056  20.825  0.00  0.00    +0.000 N 
ATOM     28  C   UNL     1       2.256   6.926  19.887  0.00  0.00    +0.000 C 
ATOM     29  N   UNL     1       3.046   6.582  18.917  0.00  0.00    +0.000 NA
ATOM     30  N   UNL     1       1.867   8.222  19.904  0.00  0.00    +0.000 N 
ATOM     31  H   UNL     1       1.329   6.463  21.632  0.00  0.00    +0.000 HD
ATOM     32  H   UNL     1       3.260   5.585  18.984  0.00  0.00    +0.000 HD
ATOM     33  H   UNL     1       2.219   8.756  19.129  0.00  0.00    +0.000 HD
BRANCH  30  34
ATOM     34  N   UNL     1       1.085   8.809  20.807  0.00  0.00    +0.000 N 
ATOM     35  O   UNL     1       1.346   8.700  22.010  0.00  0.00    +0.000 OA
ATOM     36  O   UNL     1       0.151   9.443  20.317  0.00  0.00    +0.000 OA
ENDBRANCH  30  34
ENDBRANCH  26  27
ENDBRANCH  25  26
ENDBRANCH  24  25
ENDBRANCH  23  24
ENDBRANCH  22  23
ENDBRANCH   2  22
TORSDOF 10
ENDMDL
MODEL 6
REMARK VINA RESULT:      -7.1      3.177      4.219
REMARK  Name = 
REMARK  11 active torsions:
REMARK  status: ('A' for Active; 'I' for Inactive)
REMARK    1  A    between atoms: C_1  and  C_2
REMARK    2  A    between atoms: C_6  and  N_7
REMARK    3  A    between atoms: C_8  and  C_10
REMARK    4  A    between atoms: C_12  and  N_13
REMARK    5  A    between atoms: C_14  and  C_16
REMARK    6  A    between atoms: C_16  and  C_17
REMARK    7  A    between atoms: C_17  and  C_18
REMARK    8  A    between atoms: C_18  and  C_19
REMARK    9  A    between atoms: C_19  and  C_20
REMARK   10  A    between atoms: C_20  and  N_21
REMARK   11  A    between atoms: N_24  and  N_25
REMARK                            x       y       z     vdW  Elec       q    Type
REMARK                         _______ _______ _______ _____ _____    ______ ____
ROOT
ATOM      1  N   UNL     1       1.113   9.570  19.257  0.00  0.00    +0.000 N 
ATOM      2  C   UNL     1       1.880   8.806  18.409  0.00  0.00    +0.000 C 
ATOM      3  O   UNL     1       2.122   9.117  17.248  0.00  0.00    +0.000 OA
ATOM      4  H   UNL     1       1.142   9.371  20.249  0.00  0.00    +0.000 HD
ENDROOT
BRANCH   1   7
ATOM      5  C   UNL     1      -0.734  12.692  19.529  0.00  0.00    +0.000 C 
ATOM      6  C   UNL     1      -0.719  11.175  19.569  0.00  0.00    +0.000 C 
ATOM      7  C   UNL     1       0.553  10.831  18.820  0.00  0.00    +0.000 C 
ATOM      8  C   UNL     1       1.472  12.045  19.043  0.00  0.00    +0.000 C 
ATOM      9  N   UNL     1       0.682  13.061  19.777  0.00  0.00    +0.000 NA
ATOM     10  H   UNL     1       0.864  13.977  19.360  0.00  0.00    +0.000 HD
BRANCH   5  12
ATOM     11  N   UNL     1      -2.555  12.294  21.126  0.00  0.00    +0.000 N 
ATOM     12  C   UNL     1      -1.713  13.244  20.569  0.00  0.00    +0.000 C 
ATOM     13  O   UNL     1      -1.684  14.442  20.838  0.00  0.00    +0.000 OA
ATOM     14  H   UNL     1      -2.471  11.367  20.720  0.00  0.00    +0.000 HD
BRANCH  11  20
ATOM     15  C   UNL     1      -7.240  13.326  22.315  0.00  0.00    +0.000 C 
ATOM     16  C   UNL     1      -5.834  13.005  22.731  0.00  0.00    +0.000 A 
ATOM     17  C   UNL     1      -5.508  12.904  24.086  0.00  0.00    +0.000 A 
ATOM     18  C   UNL     1      -4.205  12.604  24.469  0.00  0.00    +0.000 A 
ATOM     19  C   UNL     1      -3.218  12.404  23.504  0.00  0.00    +0.000 A 
ATOM     20  C   UNL     1      -3.513  12.502  22.143  0.00  0.00    +0.000 A 
ATOM     21  C   UNL     1      -4.829  12.804  21.763  0.00  0.00    +0.000 A 
ENDBRANCH  11  20
ENDBRANCH   5  12
ENDBRANCH   1   7
BRANCH   2  22
ATOM     22  C   UNL     1       2.328   7.491  19.004  0.00  0.00    +0.000 C 
BRANCH  22  23
ATOM     23  C   UNL     1       3.276   6.756  18.056  0.00  0.00    +0.000 C 
BRANCH  23  24
ATOM     24  C   UNL     1       2.877   5.300  17.769  0.00  0.00    +0.000 C 
BRANCH  24  25
ATOM     25  C   UNL     1       3.530   4.264  18.689  0.00  0.00    +0.000 C 
BRANCH  25  26
ATOM     26  C   UNL     1       4.363   3.263  17.895  0.00  0.00    +0.000 C 
BRANCH  26  27
ATOM     27  N   UNL     1       5.286   3.935  17.014  0.00  0.00    +0.000 N 
ATOM     28  C   UNL     1       6.471   4.484  17.381  0.00  0.00    +0.000 C 
ATOM     29  N   UNL     1       6.994   4.328  18.559  0.00  0.00    +0.000 NA
ATOM     30  N   UNL     1       7.195   5.215  16.502  0.00  0.00    +0.000 N 
ATOM     31  H   UNL     1       4.891   4.257  16.129  0.00  0.00    +0.000 HD
ATOM     32  H   UNL     1       6.381   3.746  19.133  0.00  0.00    +0.000 HD
ATOM     33  H   UNL     1       8.080   5.521  16.870  0.00  0.00    +0.000 HD
BRANCH  30  34
ATOM     34  N   UNL     1       6.855   5.528  15.255  0.00  0.00    +0.000 N 
ATOM     35  O   UNL     1       7.616   5.253  14.321  0.00  0.00    +0.000 OA
ATOM     36  O   UNL     1       5.754   6.070  15.164  0.00  0.00    +0.000 OA
ENDBRANCH  30  34
ENDBRANCH  26  27
ENDBRANCH  25  26
ENDBRANCH  24  25
ENDBRANCH  23  24
ENDBRANCH  22  23
ENDBRANCH   2  22
TORSDOF 10
ENDMDL
MODEL 7
REMARK VINA RESULT:      -7.1      4.420      8.627
REMARK  Name = 
REMARK  11 active torsions:
REMARK  status: ('A' for Active; 'I' for Inactive)
REMARK    1  A    between atoms: C_1  and  C_2
REMARK    2  A    between atoms: C_6  and  N_7
REMARK    3  A    between atoms: C_8  and  C_10
REMARK    4  A    between atoms: C_12  and  N_13
REMARK    5  A    between atoms: C_14  and  C_16
REMARK    6  A    between atoms: C_16  and  C_17
REMARK    7  A    between atoms: C_17  and  C_18
REMARK    8  A    between atoms: C_18  and  C_19
REMARK    9  A    between atoms: C_19  and  C_20
REMARK   10  A    between atoms: C_20  and  N_21
REMARK   11  A    between atoms: N_24  and  N_25
REMARK                            x       y       z     vdW  Elec       q    Type
REMARK                         _______ _______ _______ _____ _____    ______ ____
ROOT
ATOM      1  N   UNL     1       5.948   4.061  17.257  0.00  0.00    +0.000 N 
ATOM      2  C   UNL     1       4.744   4.496  17.759  0.00  0.00    +0.000 C 
ATOM      3  O   UNL     1       4.639   5.386  18.595  0.00  0.00    +0.000 OA
ATOM      4  H   UNL     1       5.947   3.493  16.419  0.00  0.00    +0.000 HD
ENDROOT
BRANCH   1   7
ATOM      5  C   UNL     1       8.216   6.728  18.242  0.00  0.00    +0.000 C 
ATOM      6  C   UNL     1       7.327   6.092  17.191  0.00  0.00    +0.000 C 
ATOM      7  C   UNL     1       7.193   4.664  17.683  0.00  0.00    +0.000 C 
ATOM      8  C   UNL     1       7.361   4.765  19.209  0.00  0.00    +0.000 C 
ATOM      9  N   UNL     1       7.699   6.173  19.519  0.00  0.00    +0.000 NA
ATOM     10  H   UNL     1       8.451   6.182  20.212  0.00  0.00    +0.000 HD
BRANCH   5  12
ATOM     11  N   UNL     1       8.982   8.923  19.028  0.00  0.00    +0.000 N 
ATOM     12  C   UNL     1       8.141   8.255  18.152  0.00  0.00    +0.000 C 
ATOM     13  O   UNL     1       7.380   8.768  17.336  0.00  0.00    +0.000 OA
ATOM     14  H   UNL     1       9.484   8.320  19.672  0.00  0.00    +0.000 HD
BRANCH  11  20
ATOM     15  C   UNL     1       9.471  12.882  21.947  0.00  0.00    +0.000 C 
ATOM     16  C   UNL     1       9.415  12.279  20.573  0.00  0.00    +0.000 A 
ATOM     17  C   UNL     1       9.560  13.089  19.443  0.00  0.00    +0.000 A 
ATOM     18  C   UNL     1       9.511  12.527  18.172  0.00  0.00    +0.000 A 
ATOM     19  C   UNL     1       9.317  11.154  18.018  0.00  0.00    +0.000 A 
ATOM     20  C   UNL     1       9.166  10.320  19.129  0.00  0.00    +0.000 A 
ATOM     21  C   UNL     1       9.217  10.893  20.408  0.00  0.00    +0.000 A 
ENDBRANCH  11  20
ENDBRANCH   5  12
ENDBRANCH   1   7
BRANCH   2  22
ATOM     22  C   UNL     1       3.551   3.713  17.258  0.00  0.00    +0.000 C 
BRANCH  22  23
ATOM     23  C   UNL     1       2.247   4.290  17.809  0.00  0.00    +0.000 C 
BRANCH  23  24
ATOM     24  C   UNL     1       1.682   3.528  19.018  0.00  0.00    +0.000 C 
BRANCH  24  25
ATOM     25  C   UNL     1       1.093   4.417  20.117  0.00  0.00    +0.000 C 
BRANCH  25  26
ATOM     26  C   UNL     1       2.120   5.422  20.627  0.00  0.00    +0.000 C 
BRANCH  26  27
ATOM     27  N   UNL     1       2.046   6.662  19.896  0.00  0.00    +0.000 N 
ATOM     28  C   UNL     1       1.720   7.870  20.420  0.00  0.00    +0.000 C 
ATOM     29  N   UNL     1       1.588   8.082  21.694  0.00  0.00    +0.000 NA
ATOM     30  N   UNL     1       1.542   8.946  19.619  0.00  0.00    +0.000 N 
ATOM     31  H   UNL     1       1.960   6.568  18.882  0.00  0.00    +0.000 HD
ATOM     32  H   UNL     1       1.764   7.216  22.207  0.00  0.00    +0.000 HD
ATOM     33  H   UNL     1       1.359   9.796  20.123  0.00  0.00    +0.000 HD
BRANCH  30  34
ATOM     34  N   UNL     1       1.601   8.968  18.289  0.00  0.00    +0.000 N 
ATOM     35  O   UNL     1       2.557   8.444  17.707  0.00  0.00    +0.000 OA
ATOM     36  O   UNL     1       0.637   9.521  17.760  0.00  0.00    +0.000 OA
ENDBRANCH  30  34
ENDBRANCH  26  27
ENDBRANCH  25  26
ENDBRANCH  24  25
ENDBRANCH  23  24
ENDBRANCH  22  23
ENDBRANCH   2  22
TORSDOF 10
ENDMDL
MODEL 8
REMARK VINA RESULT:      -7.1      3.574     10.276
REMARK  Name = 
REMARK  11 active torsions:
REMARK  status: ('A' for Active; 'I' for Inactive)
REMARK    1  A    between atoms: C_1  and  C_2
REMARK    2  A    between atoms: C_6  and  N_7
REMARK    3  A    between atoms: C_8  and  C_10
REMARK    4  A    between atoms: C_12  and  N_13
REMARK    5  A    between atoms: C_14  and  C_16
REMARK    6  A    between atoms: C_16  and  C_17
REMARK    7  A    between atoms: C_17  and  C_18
REMARK    8  A    between atoms: C_18  and  C_19
REMARK    9  A    between atoms: C_19  and  C_20
REMARK   10  A    between atoms: C_20  and  N_21
REMARK   11  A    between atoms: N_24  and  N_25
REMARK                            x       y       z     vdW  Elec       q    Type
REMARK                         _______ _______ _______ _____ _____    ______ ____
ROOT
ATOM      1  N   UNL     1      -2.680  11.774  18.313  0.00  0.00    +0.000 N 
ATOM      2  C   UNL     1      -3.822  12.146  18.983  0.00  0.00    +0.000 C 
ATOM      3  O   UNL     1      -3.849  12.414  20.180  0.00  0.00    +0.000 OA
ATOM      4  H   UNL     1      -2.686  11.790  17.300  0.00  0.00    +0.000 HD
ENDROOT
BRANCH   1   7
ATOM      5  C   UNL     1       0.681  10.578  19.019  0.00  0.00    +0.000 C 
ATOM      6  C   UNL     1      -0.809  10.309  18.931  0.00  0.00    +0.000 C 
ATOM      7  C   UNL     1      -1.407  11.701  18.996  0.00  0.00    +0.000 C 
ATOM      8  C   UNL     1      -0.317  12.616  18.411  0.00  0.00    +0.000 C 
ATOM      9  N   UNL     1       0.872  11.771  18.156  0.00  0.00    +0.000 NA
ATOM     10  H   UNL     1       1.703  12.277  18.470  0.00  0.00    +0.000 HD
BRANCH   5  12
ATOM     11  N   UNL     1       1.665   8.394  19.554  0.00  0.00    +0.000 N 
ATOM     12  C   UNL     1       1.474   9.348  18.566  0.00  0.00    +0.000 C 
ATOM     13  O   UNL     1       1.865   9.286  17.404  0.00  0.00    +0.000 OA
ATOM     14  H   UNL     1       1.324   8.663  20.471  0.00  0.00    +0.000 HD
BRANCH  11  20
ATOM     15  C   UNL     1       2.211   3.760  21.183  0.00  0.00    +0.000 C 
ATOM     16  C   UNL     1       2.570   4.847  20.212  0.00  0.00    +0.000 A 
ATOM     17  C   UNL     1       3.498   4.603  19.197  0.00  0.00    +0.000 A 
ATOM     18  C   UNL     1       3.827   5.612  18.297  0.00  0.00    +0.000 A 
ATOM     19  C   UNL     1       3.234   6.869  18.404  0.00  0.00    +0.000 A 
ATOM     20  C   UNL     1       2.305   7.143  19.411  0.00  0.00    +0.000 A 
ATOM     21  C   UNL     1       1.978   6.122  20.314  0.00  0.00    +0.000 A 
ENDBRANCH  11  20
ENDBRANCH   5  12
ENDBRANCH   1   7
BRANCH   2  22
ATOM     22  C   UNL     1      -5.073  12.107  18.135  0.00  0.00    +0.000 C 
BRANCH  22  23
ATOM     23  C   UNL     1      -6.015  10.997  18.601  0.00  0.00    +0.000 C 
BRANCH  23  24
ATOM     24  C   UNL     1      -7.262  11.500  19.345  0.00  0.00    +0.000 C 
BRANCH  24  25
ATOM     25  C   UNL     1      -7.263  11.224  20.852  0.00  0.00    +0.000 C 
BRANCH  25  26
ATOM     26  C   UNL     1      -7.194  12.519  21.654  0.00  0.00    +0.000 C 
BRANCH  26  27
ATOM     27  N   UNL     1      -6.008  12.564  22.471  0.00  0.00    +0.000 N 
ATOM     28  C   UNL     1      -5.963  12.917  23.780  0.00  0.00    +0.000 C 
ATOM     29  N   UNL     1      -7.024  13.108  24.503  0.00  0.00    +0.000 NA
ATOM     30  N   UNL     1      -4.777  13.061  24.417  0.00  0.00    +0.000 N 
ATOM     31  H   UNL     1      -5.124  12.603  21.959  0.00  0.00    +0.000 HD
ATOM     32  H   UNL     1      -7.859  12.953  23.936  0.00  0.00    +0.000 HD
ATOM     33  H   UNL     1      -4.871  13.269  25.396  0.00  0.00    +0.000 HD
BRANCH  30  34
ATOM     34  N   UNL     1      -3.565  12.941  23.881  0.00  0.00    +0.000 N 
ATOM     35  O   UNL     1      -2.896  13.951  23.640  0.00  0.00    +0.000 OA
ATOM     36  O   UNL     1      -3.220  11.774  23.694  0.00  0.00    +0.000 OA
ENDBRANCH  30  34
ENDBRANCH  26  27
ENDBRANCH  25  26
ENDBRANCH  24  25
ENDBRANCH  23  24
ENDBRANCH  22  23
ENDBRANCH   2  22
TORSDOF 10
ENDMDL
MODEL 9
REMARK VINA RESULT:      -7.1      4.979      9.391
REMARK  Name = 
REMARK  11 active torsions:
REMARK  status: ('A' for Active; 'I' for Inactive)
REMARK    1  A    between atoms: C_1  and  C_2
REMARK    2  A    between atoms: C_6  and  N_7
REMARK    3  A    between atoms: C_8  and  C_10
REMARK    4  A    between atoms: C_12  and  N_13
REMARK    5  A    between atoms: C_14  and  C_16
REMARK    6  A    between atoms: C_16  and  C_17
REMARK    7  A    between atoms: C_17  and  C_18
REMARK    8  A    between atoms: C_18  and  C_19
REMARK    9  A    between atoms: C_19  and  C_20
REMARK   10  A    between atoms: C_20  and  N_21
REMARK   11  A    between atoms: N_24  and  N_25
REMARK                            x       y       z     vdW  Elec       q    Type
REMARK                         _______ _______ _______ _____ _____    ______ ____
ROOT
ATOM      1  N   UNL     1       5.271   5.595  18.225  0.00  0.00    +0.000 N 
ATOM      2  C   UNL     1       4.306   5.454  17.255  0.00  0.00    +0.000 C 
ATOM      3  O   UNL     1       4.510   5.651  16.062  0.00  0.00    +0.000 OA
ATOM      4  H   UNL     1       5.097   5.203  19.142  0.00  0.00    +0.000 HD
ENDROOT
BRANCH   1   7
ATOM      5  C   UNL     1       8.216   7.721  18.035  0.00  0.00    +0.000 C 
ATOM      6  C   UNL     1       6.764   7.467  17.679  0.00  0.00    +0.000 C 
ATOM      7  C   UNL     1       6.625   5.971  17.878  0.00  0.00    +0.000 C 
ATOM      8  C   UNL     1       7.675   5.625  18.949  0.00  0.00    +0.000 C 
ATOM      9  N   UNL     1       8.438   6.863  19.227  0.00  0.00    +0.000 NA
ATOM     10  H   UNL     1       9.432   6.627  19.284  0.00  0.00    +0.000 HD
BRANCH   5  12
ATOM     11  N   UNL     1       9.295   9.487  19.355  0.00  0.00    +0.000 N 
ATOM     12  C   UNL     1       8.452   9.213  18.289  0.00  0.00    +0.000 C 
ATOM     13  O   UNL     1       7.908  10.035  17.557  0.00  0.00    +0.000 OA
ATOM     14  H   UNL     1       9.589   8.670  19.880  0.00  0.00    +0.000 HD
BRANCH  11  20
ATOM     15  C   UNL     1       8.906  13.162  22.637  0.00  0.00    +0.000 C 
ATOM     16  C   UNL     1       9.546  12.575  21.412  0.00  0.00    +0.000 A 
ATOM     17  C   UNL     1      10.553  13.275  20.742  0.00  0.00    +0.000 A 
ATOM     18  C   UNL     1      11.147  12.728  19.609  0.00  0.00    +0.000 A 
ATOM     19  C   UNL     1      10.739  11.481  19.136  0.00  0.00    +0.000 A 
ATOM     20  C   UNL     1       9.733  10.759  19.783  0.00  0.00    +0.000 A 
ATOM     21  C   UNL     1       9.140  11.317  20.925  0.00  0.00    +0.000 A 
ENDBRANCH  11  20
ENDBRANCH   5  12
ENDBRANCH   1   7
BRANCH   2  22
ATOM     22  C   UNL     1       2.934   5.124  17.797  0.00  0.00    +0.000 C 
BRANCH  22  23
ATOM     23  C   UNL     1       2.456   6.200  18.771  0.00  0.00    +0.000 C 
BRANCH  23  24
ATOM     24  C   UNL     1       2.787   7.636  18.336  0.00  0.00    +0.000 C 
BRANCH  24  25
ATOM     25  C   UNL     1       1.602   8.423  17.769  0.00  0.00    +0.000 C 
BRANCH  25  26
ATOM     26  C   UNL     1       1.506   9.810  18.396  0.00  0.00    +0.000 C 
BRANCH  26  27
ATOM     27  N   UNL     1       0.868   9.756  19.687  0.00  0.00    +0.000 N 
ATOM     28  C   UNL     1       0.250  10.793  20.307  0.00  0.00    +0.000 C 
ATOM     29  N   UNL     1       0.021  11.933  19.731  0.00  0.00    +0.000 NA
ATOM     30  N   UNL     1      -0.193  10.671  21.580  0.00  0.00    +0.000 N 
ATOM     31  H   UNL     1       1.145   8.971  20.280  0.00  0.00    +0.000 HD
ATOM     32  H   UNL     1       0.373  11.911  18.773  0.00  0.00    +0.000 HD
ATOM     33  H   UNL     1      -0.683  11.483  21.913  0.00  0.00    +0.000 HD
BRANCH  30  34
ATOM     34  N   UNL     1      -0.052   9.614  22.376  0.00  0.00    +0.000 N 
ATOM     35  O   UNL     1       0.449   9.750  23.497  0.00  0.00    +0.000 OA
ATOM     36  O   UNL     1      -0.477   8.567  21.888  0.00  0.00    +0.000 OA
ENDBRANCH  30  34
ENDBRANCH  26  27
ENDBRANCH  25  26
ENDBRANCH  24  25
ENDBRANCH  23  24
ENDBRANCH  22  23
ENDBRANCH   2  22
TORSDOF 10
ENDMDL
