MODEL 1
REMARK VINA RESULT:      -8.4      0.000      0.000
REMARK  Name = 
REMARK  8 active torsions:
REMARK  status: ('A' for Active; 'I' for Inactive)
REMARK    1  A    between atoms: C_1  and  C_2
REMARK    2  A    between atoms: C_6  and  C_7
REMARK    3  A    between atoms: C_7  and  N_8
REMARK    4  A    between atoms: N_8  and  S_9
REMARK    5  A    between atoms: S_9  and  C_12
REMARK    6  A    between atoms: N_21  and  C_22
REMARK    7  A    between atoms: C_22  and  C_23
REMARK    8  A    between atoms: C_23  and  O_24
REMARK                            x       y       z     vdW  Elec       q    Type
REMARK                         _______ _______ _______ _____ _____    ______ ____
ROOT
ATOM      1  C   UNL     1       2.862   4.416  19.054  0.00  0.00    +0.000 A 
ATOM      2  C   UNL     1       2.468   3.489  18.079  0.00  0.00    +0.000 A 
ATOM      3  C   UNL     1       3.190   3.369  16.884  0.00  0.00    +0.000 A 
ATOM      4  C   UNL     1       4.322   4.177  16.700  0.00  0.00    +0.000 A 
ATOM      5  N   UNL     1       5.188   4.231  15.645  0.00  0.00    +0.000 NA
ATOM      6  C   UNL     1       6.082   5.145  15.955  0.00  0.00    +0.000 A 
ATOM      7  N   UNL     1       7.144   5.552  15.191  0.00  0.00    +0.000 N 
ATOM      8  C   UNL     1       7.428   5.073  13.942  0.00  0.00    +0.000 C 
ATOM      9  O   UNL     1       8.400   5.505  13.325  0.00  0.00    +0.000 OA
ATOM     10  N   UNL     1       6.589   4.126  13.445  0.00  0.00    +0.000 N 
ATOM     11  N   UNL     1       5.829   5.675  17.194  0.00  0.00    +0.000 N 
ATOM     12  C   UNL     1       4.698   5.075  17.691  0.00  0.00    +0.000 A 
ATOM     13  C   UNL     1       3.999   5.226  18.892  0.00  0.00    +0.000 A 
ATOM     14  H   UNL     1       7.777   6.269  15.518  0.00  0.00    +0.000 HD
ATOM     15  H   UNL     1       5.838   3.816  14.061  0.00  0.00    +0.000 HD
ATOM     16  H   UNL     1       6.376   6.382  17.658  0.00  0.00    +0.000 HD
ENDROOT
BRANCH   1  17
ATOM     17  S   UNL     1       1.982   4.485  20.601  0.00  0.00    +0.000 S 
ATOM     18  O   UNL     1       2.669   3.615  21.531  0.00  0.00    +0.000 OA
ATOM     19  O   UNL     1       0.568   4.337  20.332  0.00  0.00    +0.000 OA
BRANCH  17  20
ATOM     20  N   UNL     1       2.270   6.056  21.137  0.00  0.00    +0.000 NA
ATOM     21  H   UNL     1       2.783   6.049  22.020  0.00  0.00    +0.000 HD
BRANCH  20  22
ATOM     22  C   UNL     1       1.143   6.989  21.063  0.00  0.00    +0.000 C 
BRANCH  22  28
ATOM     23  C   UNL     1       0.188  11.678  19.477  0.00  0.00    +0.000 C 
ATOM     24  C   UNL     1       0.887  10.366  19.277  0.00  0.00    +0.000 A 
ATOM     25  C   UNL     1       1.667  10.130  18.141  0.00  0.00    +0.000 A 
ATOM     26  C   UNL     1       2.294   8.897  17.961  0.00  0.00    +0.000 A 
ATOM     27  C   UNL     1       2.143   7.885  18.914  0.00  0.00    +0.000 A 
ATOM     28  C   UNL     1       1.364   8.096  20.058  0.00  0.00    +0.000 A 
ATOM     29  C   UNL     1       0.743   9.346  20.229  0.00  0.00    +0.000 A 
ENDBRANCH  22  28
ENDBRANCH  20  22
ENDBRANCH  17  20
ENDBRANCH   1  17
BRANCH  10  30
ATOM     30  C   UNL     1       6.700   3.537  12.129  0.00  0.00    +0.000 C 
BRANCH  30  31
ATOM     31  C   UNL     1       5.516   2.626  11.818  0.00  0.00    +0.000 C 
BRANCH  31  32
ATOM     32  O   UNL     1       5.970   1.342  11.389  0.00  0.00    +0.000 OA
ATOM     33  H   UNL     1       6.804   1.179  11.867  0.00  0.00    +0.000 HD
ENDBRANCH  31  32
ENDBRANCH  30  31
ENDBRANCH  10  30
TORSDOF 7
ENDMDL
MODEL 2
REMARK VINA RESULT:      -8.4      0.916      1.375
REMARK  Name = 
REMARK  8 active torsions:
REMARK  status: ('A' for Active; 'I' for Inactive)
REMARK    1  A    between atoms: C_1  and  C_2
REMARK    2  A    between atoms: C_6  and  C_7
REMARK    3  A    between atoms: C_7  and  N_8
REMARK    4  A    between atoms: N_8  and  S_9
REMARK    5  A    between atoms: S_9  and  C_12
REMARK    6  A    between atoms: N_21  and  C_22
REMARK    7  A    between atoms: C_22  and  C_23
REMARK    8  A    between atoms: C_23  and  O_24
REMARK                            x       y       z     vdW  Elec       q    Type
REMARK                         _______ _______ _______ _____ _____    ______ ____
ROOT
ATOM      1  C   UNL     1       2.813   4.328  19.164  0.00  0.00    +0.000 A 
ATOM      2  C   UNL     1       2.390   3.466  18.142  0.00  0.00    +0.000 A 
ATOM      3  C   UNL     1       3.110   3.382  16.943  0.00  0.00    +0.000 A 
ATOM      4  C   UNL     1       4.269   4.158  16.801  0.00  0.00    +0.000 A 
ATOM      5  N   UNL     1       5.139   4.237  15.750  0.00  0.00    +0.000 NA
ATOM      6  C   UNL     1       6.064   5.102  16.106  0.00  0.00    +0.000 A 
ATOM      7  N   UNL     1       7.140   5.511  15.364  0.00  0.00    +0.000 N 
ATOM      8  C   UNL     1       7.410   5.087  14.092  0.00  0.00    +0.000 C 
ATOM      9  O   UNL     1       8.398   5.516  13.499  0.00  0.00    +0.000 OA
ATOM     10  N   UNL     1       6.540   4.196  13.548  0.00  0.00    +0.000 N 
ATOM     11  N   UNL     1       5.827   5.577  17.371  0.00  0.00    +0.000 N 
ATOM     12  C   UNL     1       4.674   4.991  17.837  0.00  0.00    +0.000 A 
ATOM     13  C   UNL     1       3.979   5.105  19.044  0.00  0.00    +0.000 A 
ATOM     14  H   UNL     1       7.797   6.188  15.727  0.00  0.00    +0.000 HD
ATOM     15  H   UNL     1       5.778   3.881  14.147  0.00  0.00    +0.000 HD
ATOM     16  H   UNL     1       6.397   6.240  17.871  0.00  0.00    +0.000 HD
ENDROOT
BRANCH   1  17
ATOM     17  S   UNL     1       1.934   4.349  20.712  0.00  0.00    +0.000 S 
ATOM     18  O   UNL     1       2.766   3.687  21.693  0.00  0.00    +0.000 OA
ATOM     19  O   UNL     1       0.570   3.928  20.470  0.00  0.00    +0.000 OA
BRANCH  17  20
ATOM     20  N   UNL     1       1.931   5.980  21.131  0.00  0.00    +0.000 NA
ATOM     21  H   UNL     1       1.209   6.175  21.826  0.00  0.00    +0.000 HD
BRANCH  20  22
ATOM     22  C   UNL     1       2.029   6.939  20.027  0.00  0.00    +0.000 C 
BRANCH  22  28
ATOM     23  C   UNL     1      -0.438   9.908  23.269  0.00  0.00    +0.000 C 
ATOM     24  C   UNL     1       0.149   9.696  21.905  0.00  0.00    +0.000 A 
ATOM     25  C   UNL     1       0.016  10.662  20.903  0.00  0.00    +0.000 A 
ATOM     26  C   UNL     1       0.550  10.438  19.635  0.00  0.00    +0.000 A 
ATOM     27  C   UNL     1       1.220   9.244  19.353  0.00  0.00    +0.000 A 
ATOM     28  C   UNL     1       1.363   8.259  20.338  0.00  0.00    +0.000 A 
ATOM     29  C   UNL     1       0.824   8.501  21.614  0.00  0.00    +0.000 A 
ENDBRANCH  22  28
ENDBRANCH  20  22
ENDBRANCH  17  20
ENDBRANCH   1  17
BRANCH  10  30
ATOM     30  C   UNL     1       6.633   3.671  12.204  0.00  0.00    +0.000 C 
BRANCH  30  31
ATOM     31  C   UNL     1       5.475   2.732  11.884  0.00  0.00    +0.000 C 
BRANCH  31  32
ATOM     32  O   UNL     1       5.960   1.430  11.553  0.00  0.00    +0.000 OA
ATOM     33  H   UNL     1       5.170   0.872  11.432  0.00  0.00    +0.000 HD
ENDBRANCH  31  32
ENDBRANCH  30  31
ENDBRANCH  10  30
TORSDOF 7
ENDMDL
MODEL 3
REMARK VINA RESULT:      -8.3      3.085      8.834
REMARK  Name = 
REMARK  8 active torsions:
REMARK  status: ('A' for Active; 'I' for Inactive)
REMARK    1  A    between atoms: C_1  and  C_2
REMARK    2  A    between atoms: C_6  and  C_7
REMARK    3  A    between atoms: C_7  and  N_8
REMARK    4  A    between atoms: N_8  and  S_9
REMARK    5  A    between atoms: S_9  and  C_12
REMARK    6  A    between atoms: N_21  and  C_22
REMARK    7  A    between atoms: C_22  and  C_23
REMARK    8  A    between atoms: C_23  and  O_24
REMARK                            x       y       z     vdW  Elec       q    Type
REMARK                         _______ _______ _______ _____ _____    ______ ____
ROOT
ATOM      1  C   UNL     1       3.716   5.416  18.659  0.00  0.00    +0.000 A 
ATOM      2  C   UNL     1       3.042   5.327  19.886  0.00  0.00    +0.000 A 
ATOM      3  C   UNL     1       2.219   6.374  20.319  0.00  0.00    +0.000 A 
ATOM      4  C   UNL     1       2.068   7.496  19.491  0.00  0.00    +0.000 A 
ATOM      5  N   UNL     1       1.319   8.622  19.681  0.00  0.00    +0.000 NA
ATOM      6  C   UNL     1       1.512   9.373  18.618  0.00  0.00    +0.000 A 
ATOM      7  N   UNL     1       0.971  10.607  18.369  0.00  0.00    +0.000 N 
ATOM      8  C   UNL     1       0.142  11.276  19.227  0.00  0.00    +0.000 C 
ATOM      9  O   UNL     1      -0.289  12.386  18.923  0.00  0.00    +0.000 OA
ATOM     10  N   UNL     1      -0.154  10.654  20.399  0.00  0.00    +0.000 N 
ATOM     11  N   UNL     1       2.358   8.755  17.732  0.00  0.00    +0.000 N 
ATOM     12  C   UNL     1       2.736   7.550  18.274  0.00  0.00    +0.000 A 
ATOM     13  C   UNL     1       3.568   6.527  17.811  0.00  0.00    +0.000 A 
ATOM     14  H   UNL     1       1.186  11.108  17.519  0.00  0.00    +0.000 HD
ATOM     15  H   UNL     1       0.229   9.719  20.527  0.00  0.00    +0.000 HD
ATOM     16  H   UNL     1       2.651   9.120  16.840  0.00  0.00    +0.000 HD
ENDROOT
BRANCH   1  17
ATOM     17  S   UNL     1       4.682   4.033  18.090  0.00  0.00    +0.000 S 
ATOM     18  O   UNL     1       3.814   2.875  18.070  0.00  0.00    +0.000 OA
ATOM     19  O   UNL     1       5.938   4.024  18.808  0.00  0.00    +0.000 OA
BRANCH  17  20
ATOM     20  N   UNL     1       4.983   4.413  16.477  0.00  0.00    +0.000 NA
ATOM     21  H   UNL     1       4.445   3.809  15.855  0.00  0.00    +0.000 HD
BRANCH  20  22
ATOM     22  C   UNL     1       6.386   4.621  16.105  0.00  0.00    +0.000 C 
BRANCH  22  28
ATOM     23  C   UNL     1       5.330   2.511  11.650  0.00  0.00    +0.000 C 
ATOM     24  C   UNL     1       6.116   3.506  12.452  0.00  0.00    +0.000 A 
ATOM     25  C   UNL     1       7.105   4.293  11.856  0.00  0.00    +0.000 A 
ATOM     26  C   UNL     1       7.840   5.198  12.622  0.00  0.00    +0.000 A 
ATOM     27  C   UNL     1       7.597   5.322  13.992  0.00  0.00    +0.000 A 
ATOM     28  C   UNL     1       6.614   4.541  14.613  0.00  0.00    +0.000 A 
ATOM     29  C   UNL     1       5.876   3.638  13.828  0.00  0.00    +0.000 A 
ENDBRANCH  22  28
ENDBRANCH  20  22
ENDBRANCH  17  20
ENDBRANCH   1  17
BRANCH  10  30
ATOM     30  C   UNL     1      -0.972  11.222  21.447  0.00  0.00    +0.000 C 
BRANCH  30  31
ATOM     31  C   UNL     1      -0.594  10.671  22.818  0.00  0.00    +0.000 C 
BRANCH  31  32
ATOM     32  O   UNL     1      -0.795   9.259  22.865  0.00  0.00    +0.000 OA
ATOM     33  H   UNL     1      -0.501   8.975  23.750  0.00  0.00    +0.000 HD
ENDBRANCH  31  32
ENDBRANCH  30  31
ENDBRANCH  10  30
TORSDOF 7
ENDMDL
MODEL 4
REMARK VINA RESULT:      -8.2      3.092      9.113
REMARK  Name = 
REMARK  8 active torsions:
REMARK  status: ('A' for Active; 'I' for Inactive)
REMARK    1  A    between atoms: C_1  and  C_2
REMARK    2  A    between atoms: C_6  and  C_7
REMARK    3  A    between atoms: C_7  and  N_8
REMARK    4  A    between atoms: N_8  and  S_9
REMARK    5  A    between atoms: S_9  and  C_12
REMARK    6  A    between atoms: N_21  and  C_22
REMARK    7  A    between atoms: C_22  and  C_23
REMARK    8  A    between atoms: C_23  and  O_24
REMARK                            x       y       z     vdW  Elec       q    Type
REMARK                         _______ _______ _______ _____ _____    ______ ____
ROOT
ATOM      1  C   UNL     1       3.644   5.856  18.489  0.00  0.00    +0.000 A 
ATOM      2  C   UNL     1       3.482   6.914  17.582  0.00  0.00    +0.000 A 
ATOM      3  C   UNL     1       2.691   8.020  17.919  0.00  0.00    +0.000 A 
ATOM      4  C   UNL     1       2.088   8.053  19.185  0.00  0.00    +0.000 A 
ATOM      5  N   UNL     1       1.296   9.016  19.745  0.00  0.00    +0.000 NA
ATOM      6  C   UNL     1       0.987   8.578  20.948  0.00  0.00    +0.000 A 
ATOM      7  N   UNL     1       0.199   9.206  21.876  0.00  0.00    +0.000 N 
ATOM      8  C   UNL     1      -0.425  10.406  21.678  0.00  0.00    +0.000 C 
ATOM      9  O   UNL     1      -1.122  10.890  22.567  0.00  0.00    +0.000 OA
ATOM     10  N   UNL     1      -0.233  11.002  20.471  0.00  0.00    +0.000 N 
ATOM     11  N   UNL     1       1.572   7.361  21.190  0.00  0.00    +0.000 N 
ATOM     12  C   UNL     1       2.279   6.998  20.068  0.00  0.00    +0.000 A 
ATOM     13  C   UNL     1       3.057   5.877  19.766  0.00  0.00    +0.000 A 
ATOM     14  H   UNL     1       0.017   8.783  22.776  0.00  0.00    +0.000 HD
ATOM     15  H   UNL     1       0.396  10.528  19.824  0.00  0.00    +0.000 HD
ATOM     16  H   UNL     1       1.496   6.826  22.040  0.00  0.00    +0.000 HD
ENDROOT
BRANCH   1  17
ATOM     17  S   UNL     1       4.728   4.507  18.073  0.00  0.00    +0.000 S 
ATOM     18  O   UNL     1       3.918   3.311  17.980  0.00  0.00    +0.000 OA
ATOM     19  O   UNL     1       5.889   4.567  18.935  0.00  0.00    +0.000 OA
BRANCH  17  20
ATOM     20  N   UNL     1       5.204   4.867  16.498  0.00  0.00    +0.000 NA
ATOM     21  H   UNL     1       4.440   4.700  15.842  0.00  0.00    +0.000 HD
BRANCH  20  22
ATOM     22  C   UNL     1       6.520   4.371  16.083  0.00  0.00    +0.000 C 
BRANCH  22  28
ATOM     23  C   UNL     1       5.462   2.440  11.549  0.00  0.00    +0.000 C 
ATOM     24  C   UNL     1       6.207   3.439  12.383  0.00  0.00    +0.000 A 
ATOM     25  C   UNL     1       7.123   4.322  11.804  0.00  0.00    +0.000 A 
ATOM     26  C   UNL     1       7.823   5.231  12.598  0.00  0.00    +0.000 A 
ATOM     27  C   UNL     1       7.616   5.264  13.980  0.00  0.00    +0.000 A 
ATOM     28  C   UNL     1       6.706   4.388  14.583  0.00  0.00    +0.000 A 
ATOM     29  C   UNL     1       6.003   3.481  13.770  0.00  0.00    +0.000 A 
ENDBRANCH  22  28
ENDBRANCH  20  22
ENDBRANCH  17  20
ENDBRANCH   1  17
BRANCH  10  30
ATOM     30  C   UNL     1      -0.846  12.246  20.062  0.00  0.00    +0.000 C 
BRANCH  30  31
ATOM     31  C   UNL     1      -2.045  12.010  19.149  0.00  0.00    +0.000 C 
BRANCH  31  32
ATOM     32  O   UNL     1      -1.769  12.475  17.827  0.00  0.00    +0.000 OA
ATOM     33  H   UNL     1      -2.051  13.408  17.806  0.00  0.00    +0.000 HD
ENDBRANCH  31  32
ENDBRANCH  30  31
ENDBRANCH  10  30
TORSDOF 7
ENDMDL
MODEL 5
REMARK VINA RESULT:      -8.2      0.903      1.549
REMARK  Name = 
REMARK  8 active torsions:
REMARK  status: ('A' for Active; 'I' for Inactive)
REMARK    1  A    between atoms: C_1  and  C_2
REMARK    2  A    between atoms: C_6  and  C_7
REMARK    3  A    between atoms: C_7  and  N_8
REMARK    4  A    between atoms: N_8  and  S_9
REMARK    5  A    between atoms: S_9  and  C_12
REMARK    6  A    between atoms: N_21  and  C_22
REMARK    7  A    between atoms: C_22  and  C_23
REMARK    8  A    between atoms: C_23  and  O_24
REMARK                            x       y       z     vdW  Elec       q    Type
REMARK                         _______ _______ _______ _____ _____    ______ ____
ROOT
ATOM      1  C   UNL     1       2.747   4.660  19.111  0.00  0.00    +0.000 A 
ATOM      2  C   UNL     1       2.367   3.711  18.151  0.00  0.00    +0.000 A 
ATOM      3  C   UNL     1       3.111   3.558  16.974  0.00  0.00    +0.000 A 
ATOM      4  C   UNL     1       4.250   4.355  16.791  0.00  0.00    +0.000 A 
ATOM      5  N   UNL     1       5.136   4.379  15.752  0.00  0.00    +0.000 NA
ATOM      6  C   UNL     1       6.029   5.297  16.056  0.00  0.00    +0.000 A 
ATOM      7  N   UNL     1       7.107   5.680  15.302  0.00  0.00    +0.000 N 
ATOM      8  C   UNL     1       7.413   5.169  14.071  0.00  0.00    +0.000 C 
ATOM      9  O   UNL     1       8.398   5.580  13.462  0.00  0.00    +0.000 OA
ATOM     10  N   UNL     1       6.578   4.214  13.582  0.00  0.00    +0.000 N 
ATOM     11  N   UNL     1       5.756   5.858  17.277  0.00  0.00    +0.000 N 
ATOM     12  C   UNL     1       4.612   5.276  17.767  0.00  0.00    +0.000 A 
ATOM     13  C   UNL     1       3.892   5.460  18.951  0.00  0.00    +0.000 A 
ATOM     14  H   UNL     1       7.738   6.401  15.623  0.00  0.00    +0.000 HD
ATOM     15  H   UNL     1       5.814   3.923  14.191  0.00  0.00    +0.000 HD
ATOM     16  H   UNL     1       6.298   6.574  17.734  0.00  0.00    +0.000 HD
ENDROOT
BRANCH   1  17
ATOM     17  S   UNL     1       1.839   4.772  20.639  0.00  0.00    +0.000 S 
ATOM     18  O   UNL     1       2.538   3.969  21.619  0.00  0.00    +0.000 OA
ATOM     19  O   UNL     1       0.435   4.564  20.354  0.00  0.00    +0.000 OA
BRANCH  17  20
ATOM     20  N   UNL     1       2.066   6.374  21.105  0.00  0.00    +0.000 NA
ATOM     21  H   UNL     1       1.742   6.523  22.061  0.00  0.00    +0.000 HD
BRANCH  20  22
ATOM     22  C   UNL     1       1.674   7.399  20.133  0.00  0.00    +0.000 C 
BRANCH  22  28
ATOM     23  C   UNL     1      -0.650  11.849  19.677  0.00  0.00    +0.000 C 
ATOM     24  C   UNL     1      -0.172  10.727  20.551  0.00  0.00    +0.000 A 
ATOM     25  C   UNL     1      -0.324  10.779  21.939  0.00  0.00    +0.000 A 
ATOM     26  C   UNL     1       0.145   9.736  22.738  0.00  0.00    +0.000 A 
ATOM     27  C   UNL     1       0.774   8.632  22.156  0.00  0.00    +0.000 A 
ATOM     28  C   UNL     1       0.940   8.558  20.768  0.00  0.00    +0.000 A 
ATOM     29  C   UNL     1       0.458   9.614  19.975  0.00  0.00    +0.000 A 
ENDBRANCH  22  28
ENDBRANCH  20  22
ENDBRANCH  17  20
ENDBRANCH   1  17
BRANCH  10  30
ATOM     30  C   UNL     1       6.710   3.592  12.283  0.00  0.00    +0.000 C 
BRANCH  30  31
ATOM     31  C   UNL     1       5.443   2.842  11.886  0.00  0.00    +0.000 C 
BRANCH  31  32
ATOM     32  O   UNL     1       5.750   1.497  11.517  0.00  0.00    +0.000 OA
ATOM     33  H   UNL     1       4.910   1.004  11.575  0.00  0.00    +0.000 HD
ENDBRANCH  31  32
ENDBRANCH  30  31
ENDBRANCH  10  30
TORSDOF 7
ENDMDL
MODEL 6
REMARK VINA RESULT:      -8.2      3.330      7.944
REMARK  Name = 
REMARK  8 active torsions:
REMARK  status: ('A' for Active; 'I' for Inactive)
REMARK    1  A    between atoms: C_1  and  C_2
REMARK    2  A    between atoms: C_6  and  C_7
REMARK    3  A    between atoms: C_7  and  N_8
REMARK    4  A    between atoms: N_8  and  S_9
REMARK    5  A    between atoms: S_9  and  C_12
REMARK    6  A    between atoms: N_21  and  C_22
REMARK    7  A    between atoms: C_22  and  C_23
REMARK    8  A    between atoms: C_23  and  O_24
REMARK                            x       y       z     vdW  Elec       q    Type
REMARK                         _______ _______ _______ _____ _____    ______ ____
ROOT
ATOM      1  C   UNL     1       4.382   5.834  18.082  0.00  0.00    +0.000 A 
ATOM      2  C   UNL     1       4.069   6.852  17.169  0.00  0.00    +0.000 A 
ATOM      3  C   UNL     1       3.130   7.837  17.501  0.00  0.00    +0.000 A 
ATOM      4  C   UNL     1       2.533   7.795  18.770  0.00  0.00    +0.000 A 
ATOM      5  N   UNL     1       1.616   8.640  19.327  0.00  0.00    +0.000 NA
ATOM      6  C   UNL     1       1.376   8.174  20.533  0.00  0.00    +0.000 A 
ATOM      7  N   UNL     1       0.510   8.691  21.461  0.00  0.00    +0.000 N 
ATOM      8  C   UNL     1      -0.278   9.790  21.256  0.00  0.00    +0.000 C 
ATOM      9  O   UNL     1      -1.033  10.178  22.145  0.00  0.00    +0.000 OA
ATOM     10  N   UNL     1      -0.176  10.397  20.044  0.00  0.00    +0.000 N 
ATOM     11  N   UNL     1       2.128   7.054  20.782  0.00  0.00    +0.000 N 
ATOM     12  C   UNL     1       2.875   6.785  19.660  0.00  0.00    +0.000 A 
ATOM     13  C   UNL     1       3.803   5.783  19.362  0.00  0.00    +0.000 A 
ATOM     14  H   UNL     1       0.393   8.254  22.364  0.00  0.00    +0.000 HD
ATOM     15  H   UNL     1       0.511  10.011  19.398  0.00  0.00    +0.000 HD
ATOM     16  H   UNL     1       2.131   6.520  21.637  0.00  0.00    +0.000 HD
ENDROOT
BRANCH   1  17
ATOM     17  S   UNL     1       5.644   4.648  17.672  0.00  0.00    +0.000 S 
ATOM     18  O   UNL     1       6.125   4.078  18.912  0.00  0.00    +0.000 OA
ATOM     19  O   UNL     1       6.549   5.252  16.718  0.00  0.00    +0.000 OA
BRANCH  17  20
ATOM     20  N   UNL     1       4.784   3.422  16.901  0.00  0.00    +0.000 NA
ATOM     21  H   UNL     1       4.098   3.813  16.255  0.00  0.00    +0.000 HD
BRANCH  20  22
ATOM     22  C   UNL     1       4.309   2.325  17.748  0.00  0.00    +0.000 C 
BRANCH  22  28
ATOM     23  C   UNL     1       1.674   2.486  22.043  0.00  0.00    +0.000 C 
ATOM     24  C   UNL     1       1.745   2.724  20.563  0.00  0.00    +0.000 A 
ATOM     25  C   UNL     1       0.629   3.172  19.851  0.00  0.00    +0.000 A 
ATOM     26  C   UNL     1       0.707   3.369  18.472  0.00  0.00    +0.000 A 
ATOM     27  C   UNL     1       1.901   3.115  17.791  0.00  0.00    +0.000 A 
ATOM     28  C   UNL     1       3.032   2.662  18.482  0.00  0.00    +0.000 A 
ATOM     29  C   UNL     1       2.940   2.474  19.873  0.00  0.00    +0.000 A 
ENDBRANCH  22  28
ENDBRANCH  20  22
ENDBRANCH  17  20
ENDBRANCH   1  17
BRANCH  10  30
ATOM     30  C   UNL     1      -0.960  11.538  19.629  0.00  0.00    +0.000 C 
BRANCH  30  31
ATOM     31  C   UNL     1      -1.382  11.430  18.166  0.00  0.00    +0.000 C 
BRANCH  31  32
ATOM     32  O   UNL     1      -0.703  10.349  17.527  0.00  0.00    +0.000 OA
ATOM     33  H   UNL     1      -0.020  10.051  18.156  0.00  0.00    +0.000 HD
ENDBRANCH  31  32
ENDBRANCH  30  31
ENDBRANCH  10  30
TORSDOF 7
ENDMDL
MODEL 7
REMARK VINA RESULT:      -8.1      3.292      7.769
REMARK  Name = 
REMARK  8 active torsions:
REMARK  status: ('A' for Active; 'I' for Inactive)
REMARK    1  A    between atoms: C_1  and  C_2
REMARK    2  A    between atoms: C_6  and  C_7
REMARK    3  A    between atoms: C_7  and  N_8
REMARK    4  A    between atoms: N_8  and  S_9
REMARK    5  A    between atoms: S_9  and  C_12
REMARK    6  A    between atoms: N_21  and  C_22
REMARK    7  A    between atoms: C_22  and  C_23
REMARK    8  A    between atoms: C_23  and  O_24
REMARK                            x       y       z     vdW  Elec       q    Type
REMARK                         _______ _______ _______ _____ _____    ______ ____
ROOT
ATOM      1  C   UNL     1       2.373   4.655  19.012  0.00  0.00    +0.000 A 
ATOM      2  C   UNL     1       1.950   5.016  20.300  0.00  0.00    +0.000 A 
ATOM      3  C   UNL     1       1.675   6.355  20.606  0.00  0.00    +0.000 A 
ATOM      4  C   UNL     1       1.810   7.316  19.593  0.00  0.00    +0.000 A 
ATOM      5  N   UNL     1       1.586   8.663  19.638  0.00  0.00    +0.000 NA
ATOM      6  C   UNL     1       1.851   9.117  18.432  0.00  0.00    +0.000 A 
ATOM      7  N   UNL     1       1.779  10.417  18.005  0.00  0.00    +0.000 N 
ATOM      8  C   UNL     1       1.433  11.475  18.800  0.00  0.00    +0.000 C 
ATOM      9  O   UNL     1       1.403  12.610  18.332  0.00  0.00    +0.000 OA
ATOM     10  N   UNL     1       1.142  11.194  20.098  0.00  0.00    +0.000 N 
ATOM     11  N   UNL     1       2.226   8.095  17.597  0.00  0.00    +0.000 N 
ATOM     12  C   UNL     1       2.215   6.927  18.322  0.00  0.00    +0.000 A 
ATOM     13  C   UNL     1       2.503   5.603  17.982  0.00  0.00    +0.000 A 
ATOM     14  H   UNL     1       2.008  10.666  17.054  0.00  0.00    +0.000 HD
ATOM     15  H   UNL     1       1.163  10.211  20.366  0.00  0.00    +0.000 HD
ATOM     16  H   UNL     1       2.469   8.184  16.623  0.00  0.00    +0.000 HD
ENDROOT
BRANCH   1  17
ATOM     17  S   UNL     1       2.628   2.936  18.624  0.00  0.00    +0.000 S 
ATOM     18  O   UNL     1       2.286   2.751  17.230  0.00  0.00    +0.000 OA
ATOM     19  O   UNL     1       2.019   2.136  19.665  0.00  0.00    +0.000 OA
BRANCH  17  20
ATOM     20  N   UNL     1       4.300   2.765  18.717  0.00  0.00    +0.000 NA
ATOM     21  H   UNL     1       4.550   1.860  19.117  0.00  0.00    +0.000 HD
BRANCH  20  22
ATOM     22  C   UNL     1       5.048   3.916  19.231  0.00  0.00    +0.000 C 
BRANCH  22  28
ATOM     23  C   UNL     1       7.850   7.847  17.777  0.00  0.00    +0.000 C 
ATOM     24  C   UNL     1       7.181   6.546  17.444  0.00  0.00    +0.000 A 
ATOM     25  C   UNL     1       7.209   6.033  16.144  0.00  0.00    +0.000 A 
ATOM     26  C   UNL     1       6.564   4.832  15.847  0.00  0.00    +0.000 A 
ATOM     27  C   UNL     1       5.881   4.134  16.847  0.00  0.00    +0.000 A 
ATOM     28  C   UNL     1       5.836   4.629  18.156  0.00  0.00    +0.000 A 
ATOM     29  C   UNL     1       6.495   5.838  18.442  0.00  0.00    +0.000 A 
ENDBRANCH  22  28
ENDBRANCH  20  22
ENDBRANCH  17  20
ENDBRANCH   1  17
BRANCH  10  30
ATOM     30  C   UNL     1       0.803  12.182  21.097  0.00  0.00    +0.000 C 
BRANCH  30  31
ATOM     31  C   UNL     1      -0.508  11.845  21.801  0.00  0.00    +0.000 C 
BRANCH  31  32
ATOM     32  O   UNL     1      -0.262  11.091  22.988  0.00  0.00    +0.000 OA
ATOM     33  H   UNL     1      -0.423  11.701  23.732  0.00  0.00    +0.000 HD
ENDBRANCH  31  32
ENDBRANCH  30  31
ENDBRANCH  10  30
TORSDOF 7
ENDMDL
MODEL 8
REMARK VINA RESULT:      -8.1      3.538      7.854
REMARK  Name = 
REMARK  8 active torsions:
REMARK  status: ('A' for Active; 'I' for Inactive)
REMARK    1  A    between atoms: C_1  and  C_2
REMARK    2  A    between atoms: C_6  and  C_7
REMARK    3  A    between atoms: C_7  and  N_8
REMARK    4  A    between atoms: N_8  and  S_9
REMARK    5  A    between atoms: S_9  and  C_12
REMARK    6  A    between atoms: N_21  and  C_22
REMARK    7  A    between atoms: C_22  and  C_23
REMARK    8  A    between atoms: C_23  and  O_24
REMARK                            x       y       z     vdW  Elec       q    Type
REMARK                         _______ _______ _______ _____ _____    ______ ____
ROOT
ATOM      1  C   UNL     1       2.167   4.905  19.406  0.00  0.00    +0.000 A 
ATOM      2  C   UNL     1       2.341   5.583  18.191  0.00  0.00    +0.000 A 
ATOM      3  C   UNL     1       2.154   6.970  18.121  0.00  0.00    +0.000 A 
ATOM      4  C   UNL     1       1.815   7.662  19.293  0.00  0.00    +0.000 A 
ATOM      5  N   UNL     1       1.600   8.998  19.482  0.00  0.00    +0.000 NA
ATOM      6  C   UNL     1       1.313   9.143  20.758  0.00  0.00    +0.000 A 
ATOM      7  N   UNL     1       1.013  10.311  21.408  0.00  0.00    +0.000 N 
ATOM      8  C   UNL     1       0.938  11.536  20.804  0.00  0.00    +0.000 C 
ATOM      9  O   UNL     1       0.652  12.531  21.467  0.00  0.00    +0.000 OA
ATOM     10  N   UNL     1       1.187  11.575  19.468  0.00  0.00    +0.000 N 
ATOM     11  N   UNL     1       1.353   7.936  21.408  0.00  0.00    +0.000 N 
ATOM     12  C   UNL     1       1.665   6.966  20.486  0.00  0.00    +0.000 A 
ATOM     13  C   UNL     1       1.838   5.583  20.593  0.00  0.00    +0.000 A 
ATOM     14  H   UNL     1       0.802  10.318  22.396  0.00  0.00    +0.000 HD
ATOM     15  H   UNL     1       1.452  10.694  19.029  0.00  0.00    +0.000 HD
ATOM     16  H   UNL     1       1.181   7.786  22.389  0.00  0.00    +0.000 HD
ENDROOT
BRANCH   1  17
ATOM     17  S   UNL     1       2.499   3.158  19.488  0.00  0.00    +0.000 S 
ATOM     18  O   UNL     1       1.504   2.488  18.679  0.00  0.00    +0.000 OA
ATOM     19  O   UNL     1       2.714   2.797  20.873  0.00  0.00    +0.000 OA
BRANCH  17  20
ATOM     20  N   UNL     1       3.954   3.004  18.655  0.00  0.00    +0.000 NA
ATOM     21  H   UNL     1       4.109   2.036  18.372  0.00  0.00    +0.000 HD
BRANCH  20  22
ATOM     22  C   UNL     1       5.114   3.691  19.232  0.00  0.00    +0.000 C 
BRANCH  22  28
ATOM     23  C   UNL     1       8.117   7.626  18.277  0.00  0.00    +0.000 C 
ATOM     24  C   UNL     1       7.268   6.498  17.769  0.00  0.00    +0.000 A 
ATOM     25  C   UNL     1       7.063   6.310  16.399  0.00  0.00    +0.000 A 
ATOM     26  C   UNL     1       6.253   5.269  15.946  0.00  0.00    +0.000 A 
ATOM     27  C   UNL     1       5.637   4.407  16.858  0.00  0.00    +0.000 A 
ATOM     28  C   UNL     1       5.824   4.577  18.235  0.00  0.00    +0.000 A 
ATOM     29  C   UNL     1       6.648   5.628  18.678  0.00  0.00    +0.000 A 
ENDBRANCH  22  28
ENDBRANCH  20  22
ENDBRANCH  17  20
ENDBRANCH   1  17
BRANCH  10  30
ATOM     30  C   UNL     1       1.110  12.765  18.652  0.00  0.00    +0.000 C 
BRANCH  30  31
ATOM     31  C   UNL     1      -0.316  13.303  18.572  0.00  0.00    +0.000 C 
BRANCH  31  32
ATOM     32  O   UNL     1      -0.986  12.781  17.425  0.00  0.00    +0.000 OA
ATOM     33  H   UNL     1      -1.790  13.322  17.315  0.00  0.00    +0.000 HD
ENDBRANCH  31  32
ENDBRANCH  30  31
ENDBRANCH  10  30
TORSDOF 7
ENDMDL
MODEL 9
REMARK VINA RESULT:      -8.1      3.400      7.980
REMARK  Name = 
REMARK  8 active torsions:
REMARK  status: ('A' for Active; 'I' for Inactive)
REMARK    1  A    between atoms: C_1  and  C_2
REMARK    2  A    between atoms: C_6  and  C_7
REMARK    3  A    between atoms: C_7  and  N_8
REMARK    4  A    between atoms: N_8  and  S_9
REMARK    5  A    between atoms: S_9  and  C_12
REMARK    6  A    between atoms: N_21  and  C_22
REMARK    7  A    between atoms: C_22  and  C_23
REMARK    8  A    between atoms: C_23  and  O_24
REMARK                            x       y       z     vdW  Elec       q    Type
REMARK                         _______ _______ _______ _____ _____    ______ ____
ROOT
ATOM      1  C   UNL     1       2.235   4.700  19.373  0.00  0.00    +0.000 A 
ATOM      2  C   UNL     1       2.393   5.394  18.165  0.00  0.00    +0.000 A 
ATOM      3  C   UNL     1       2.186   6.779  18.113  0.00  0.00    +0.000 A 
ATOM      4  C   UNL     1       1.842   7.452  19.294  0.00  0.00    +0.000 A 
ATOM      5  N   UNL     1       1.609   8.782  19.500  0.00  0.00    +0.000 NA
ATOM      6  C   UNL     1       1.327   8.908  20.779  0.00  0.00    +0.000 A 
ATOM      7  N   UNL     1       1.012  10.064  21.445  0.00  0.00    +0.000 N 
ATOM      8  C   UNL     1       0.917  11.295  20.856  0.00  0.00    +0.000 C 
ATOM      9  O   UNL     1       0.620  12.277  21.532  0.00  0.00    +0.000 OA
ATOM     10  N   UNL     1       1.159  11.353  19.520  0.00  0.00    +0.000 N 
ATOM     11  N   UNL     1       1.387   7.694  21.415  0.00  0.00    +0.000 N 
ATOM     12  C   UNL     1       1.709   6.740  20.480  0.00  0.00    +0.000 A 
ATOM     13  C   UNL     1       1.902   5.358  20.569  0.00  0.00    +0.000 A 
ATOM     14  H   UNL     1       0.806  10.056  22.433  0.00  0.00    +0.000 HD
ATOM     15  H   UNL     1       1.435  10.481  19.069  0.00  0.00    +0.000 HD
ATOM     16  H   UNL     1       1.222   7.530  22.395  0.00  0.00    +0.000 HD
ENDROOT
BRANCH   1  17
ATOM     17  S   UNL     1       2.592   2.956  19.433  0.00  0.00    +0.000 S 
ATOM     18  O   UNL     1       1.701   2.298  18.502  0.00  0.00    +0.000 OA
ATOM     19  O   UNL     1       2.670   2.551  20.820  0.00  0.00    +0.000 OA
BRANCH  17  20
ATOM     20  N   UNL     1       4.129   2.856  18.752  0.00  0.00    +0.000 NA
ATOM     21  H   UNL     1       4.356   1.891  18.510  0.00  0.00    +0.000 HD
BRANCH  20  22
ATOM     22  C   UNL     1       5.192   3.611  19.422  0.00  0.00    +0.000 C 
BRANCH  22  28
ATOM     23  C   UNL     1       6.280   5.151  14.747  0.00  0.00    +0.000 C 
ATOM     24  C   UNL     1       6.436   5.320  16.229  0.00  0.00    +0.000 A 
ATOM     25  C   UNL     1       7.277   6.303  16.759  0.00  0.00    +0.000 A 
ATOM     26  C   UNL     1       7.425   6.432  18.140  0.00  0.00    +0.000 A 
ATOM     27  C   UNL     1       6.737   5.576  19.006  0.00  0.00    +0.000 A 
ATOM     28  C   UNL     1       5.892   4.582  18.498  0.00  0.00    +0.000 A 
ATOM     29  C   UNL     1       5.747   4.467  17.104  0.00  0.00    +0.000 A 
ENDBRANCH  22  28
ENDBRANCH  20  22
ENDBRANCH  17  20
ENDBRANCH   1  17
BRANCH  10  30
ATOM     30  C   UNL     1       1.061  12.552  18.718  0.00  0.00    +0.000 C 
BRANCH  30  31
ATOM     31  C   UNL     1      -0.384  12.857  18.335  0.00  0.00    +0.000 C 
BRANCH  31  32
ATOM     32  O   UNL     1      -0.910  13.903  19.152  0.00  0.00    +0.000 OA
ATOM     33  H   UNL     1      -1.261  14.573  18.538  0.00  0.00    +0.000 HD
ENDBRANCH  31  32
ENDBRANCH  30  31
ENDBRANCH  10  30
TORSDOF 7
ENDMDL
