MODEL 1
REMARK VINA RESULT:      -5.7      0.000      0.000
REMARK  Name = 
REMARK  11 active torsions:
REMARK  status: ('A' for Active; 'I' for Inactive)
REMARK    1  A    between atoms: C_2  and  C_3
REMARK    2  A    between atoms: C_3  and  C_4
REMARK    3  A    between atoms: C_3  and  C_5
REMARK    4  A    between atoms: C_3  and  N_6
REMARK    5  A    between atoms: N_6  and  C_7
REMARK    6  A    between atoms: C_8  and  C_9
REMARK    7  A    between atoms: C_16  and  C_17
REMARK    8  A    between atoms: C_17  and  O_18
REMARK    9  A    between atoms: O_18  and  C_19
REMARK   10  A    between atoms: C_22  and  O_23
REMARK   11  A    between atoms: O_23  and  C_24
REMARK                            x       y       z     vdW  Elec       q    Type
REMARK                         _______ _______ _______ _____ _____    ______ ____
ROOT
ATOM      1  C   UNL     1       0.192  13.705  19.097  0.00  0.00    +0.000 C 
ATOM      2  C   UNL     1      -0.200  12.419  18.945  0.00  0.00    +0.000 C 
ATOM      3  C   UNL     1       0.630  11.455  19.799  0.00  0.00    +0.000 C 
ATOM      4  C   UNL     1      -1.719  12.260  18.993  0.00  0.00    +0.000 C 
ATOM      5  O   UNL     1      -2.348  11.785  18.061  0.00  0.00    +0.000 OA
ATOM      6  C   UNL     1      -2.315  12.711  20.267  0.00  0.00    +0.000 C 
ATOM      7  C   UNL     1      -1.425  13.248  21.100  0.00  0.00    +0.000 C 
ATOM      8  C   UNL     1      -0.458  14.206  20.434  0.00  0.00    +0.000 C 
ATOM      9  O   UNL     1      -0.294  15.332  20.882  0.00  0.00    +0.000 OA
ATOM     10  C   UNL     1      -1.880  12.855  22.497  0.00  0.00    +0.000 C 
ATOM     11  C   UNL     1      -3.416  12.961  22.328  0.00  0.00    +0.000 C 
ATOM     12  C   UNL     1      -4.023  14.354  22.112  0.00  0.00    +0.000 C 
ATOM     13  N   UNL     1      -5.463  14.648  22.182  0.00  0.00    +0.000 NA
ATOM     14  C   UNL     1      -4.911  14.240  20.888  0.00  0.00    +0.000 C 
ATOM     15  C   UNL     1      -4.847  12.809  20.425  0.00  0.00    +0.000 C 
ATOM     16  N   UNL     1      -3.549  12.345  20.929  0.00  0.00    +0.000 N 
ATOM     17  H   UNL     1      -5.626  15.656  22.198  0.00  0.00    +0.000 HD
ENDROOT
BRANCH   1  18
ATOM     18  N   UNL     1       1.471  14.081  18.576  0.00  0.00    +0.000 N 
ATOM     19  H   UNL     1       1.326  14.519  17.662  0.00  0.00    +0.000 HD
BRANCH  18  20
ATOM     20  C   UNL     1       2.721  14.646  19.145  0.00  0.00    +0.000 C 
ATOM     21  C   UNL     1       3.879  14.466  18.166  0.00  0.00    +0.000 C 
ATOM     22  C   UNL     1       3.066  14.060  20.521  0.00  0.00    +0.000 C 
BRANCH  20  24
ATOM     23  C   UNL     1       2.339  17.328  19.512  0.00  0.00    +0.000 C 
ATOM     24  C   UNL     1       2.551  16.155  19.337  0.00  0.00    +0.000 C 
ENDBRANCH  20  24
ENDBRANCH  18  20
ENDBRANCH   1  18
BRANCH  11  25
ATOM     25  O   UNL     1      -4.178  12.242  23.293  0.00  0.00    +0.000 OA
ATOM     26  C   UNL     1      -4.103  12.790  24.617  0.00  0.00    +0.000 C 
ENDBRANCH  11  25
BRANCH  10  27
ATOM     27  C   UNL     1      -1.601  11.279  22.727  0.00  0.00    +0.000 C 
BRANCH  27  28
ATOM     28  O   UNL     1      -0.306  10.931  23.266  0.00  0.00    +0.000 OA
BRANCH  28  29
ATOM     29  C   UNL     1       0.187   9.713  22.997  0.00  0.00    +0.000 C 
ATOM     30  N   UNL     1      -0.799   8.793  22.950  0.00  0.00    +0.000 N 
ATOM     31  O   UNL     1       1.361   9.441  22.818  0.00  0.00    +0.000 OA
ATOM     32  H   UNL     1      -1.767   9.080  22.968  0.00  0.00    +0.000 HD
ATOM     33  H   UNL     1      -0.565   7.851  22.666  0.00  0.00    +0.000 HD
ENDBRANCH  28  29
ENDBRANCH  27  28
ENDBRANCH  10  27
TORSDOF 7
ENDMDL
MODEL 2
REMARK VINA RESULT:      -5.6      6.619      9.617
REMARK  Name = 
REMARK  11 active torsions:
REMARK  status: ('A' for Active; 'I' for Inactive)
REMARK    1  A    between atoms: C_2  and  C_3
REMARK    2  A    between atoms: C_3  and  C_4
REMARK    3  A    between atoms: C_3  and  C_5
REMARK    4  A    between atoms: C_3  and  N_6
REMARK    5  A    between atoms: N_6  and  C_7
REMARK    6  A    between atoms: C_8  and  C_9
REMARK    7  A    between atoms: C_16  and  C_17
REMARK    8  A    between atoms: C_17  and  O_18
REMARK    9  A    between atoms: O_18  and  C_19
REMARK   10  A    between atoms: C_22  and  O_23
REMARK   11  A    between atoms: O_23  and  C_24
REMARK                            x       y       z     vdW  Elec       q    Type
REMARK                         _______ _______ _______ _____ _____    ______ ____
ROOT
ATOM      1  C   UNL     1       1.791   7.664  18.640  0.00  0.00    +0.000 C 
ATOM      2  C   UNL     1       2.155   6.895  17.588  0.00  0.00    +0.000 C 
ATOM      3  C   UNL     1       3.609   7.136  17.169  0.00  0.00    +0.000 C 
ATOM      4  C   UNL     1       1.706   5.443  17.741  0.00  0.00    +0.000 C 
ATOM      5  O   UNL     1       0.969   4.906  16.928  0.00  0.00    +0.000 OA
ATOM      6  C   UNL     1       2.268   4.778  18.934  0.00  0.00    +0.000 C 
ATOM      7  C   UNL     1       2.993   5.596  19.695  0.00  0.00    +0.000 C 
ATOM      8  C   UNL     1       2.358   6.953  19.919  0.00  0.00    +0.000 C 
ATOM      9  O   UNL     1       2.221   7.395  21.051  0.00  0.00    +0.000 OA
ATOM     10  C   UNL     1       4.118   4.742  20.260  0.00  0.00    +0.000 C 
ATOM     11  C   UNL     1       3.362   3.412  20.503  0.00  0.00    +0.000 C 
ATOM     12  C   UNL     1       2.284   3.385  21.595  0.00  0.00    +0.000 C 
ATOM     13  N   UNL     1       1.659   2.157  22.110  0.00  0.00    +0.000 NA
ATOM     14  C   UNL     1       1.044   2.800  20.946  0.00  0.00    +0.000 C 
ATOM     15  C   UNL     1       1.403   2.465  19.524  0.00  0.00    +0.000 C 
ATOM     16  N   UNL     1       2.511   3.382  19.227  0.00  0.00    +0.000 N 
ATOM     17  H   UNL     1       1.118   2.352  22.953  0.00  0.00    +0.000 HD
ENDROOT
BRANCH   1  18
ATOM     18  N   UNL     1       1.671   9.074  18.429  0.00  0.00    +0.000 N 
ATOM     19  H   UNL     1       2.039   9.289  17.497  0.00  0.00    +0.000 HD
BRANCH  18  20
ATOM     20  C   UNL     1       0.659  10.110  18.755  0.00  0.00    +0.000 C 
ATOM     21  C   UNL     1      -0.557   9.971  17.842  0.00  0.00    +0.000 C 
ATOM     22  C   UNL     1       1.229  11.535  18.701  0.00  0.00    +0.000 C 
BRANCH  20  24
ATOM     23  C   UNL     1      -0.215   9.792  21.325  0.00  0.00    +0.000 C 
ATOM     24  C   UNL     1       0.153   9.890  20.183  0.00  0.00    +0.000 C 
ENDBRANCH  20  24
ENDBRANCH  18  20
ENDBRANCH   1  18
BRANCH  11  25
ATOM     25  O   UNL     1       4.191   2.260  20.608  0.00  0.00    +0.000 OA
ATOM     26  C   UNL     1       4.294   1.506  19.392  0.00  0.00    +0.000 C 
ENDBRANCH  11  25
BRANCH  10  27
ATOM     27  C   UNL     1       5.175   4.404  19.084  0.00  0.00    +0.000 C 
BRANCH  27  28
ATOM     28  O   UNL     1       6.537   4.831  19.306  0.00  0.00    +0.000 OA
BRANCH  28  29
ATOM     29  C   UNL     1       7.236   5.294  18.258  0.00  0.00    +0.000 C 
ATOM     30  N   UNL     1       7.889   4.292  17.634  0.00  0.00    +0.000 N 
ATOM     31  O   UNL     1       7.296   6.456  17.897  0.00  0.00    +0.000 OA
ATOM     32  H   UNL     1       7.705   3.330  17.880  0.00  0.00    +0.000 HD
ATOM     33  H   UNL     1       8.380   4.501  16.774  0.00  0.00    +0.000 HD
ENDBRANCH  28  29
ENDBRANCH  27  28
ENDBRANCH  10  27
TORSDOF 7
ENDMDL
MODEL 3
REMARK VINA RESULT:      -5.6      3.633      6.411
REMARK  Name = 
REMARK  11 active torsions:
REMARK  status: ('A' for Active; 'I' for Inactive)
REMARK    1  A    between atoms: C_2  and  C_3
REMARK    2  A    between atoms: C_3  and  C_4
REMARK    3  A    between atoms: C_3  and  C_5
REMARK    4  A    between atoms: C_3  and  N_6
REMARK    5  A    between atoms: N_6  and  C_7
REMARK    6  A    between atoms: C_8  and  C_9
REMARK    7  A    between atoms: C_16  and  C_17
REMARK    8  A    between atoms: C_17  and  O_18
REMARK    9  A    between atoms: O_18  and  C_19
REMARK   10  A    between atoms: C_22  and  O_23
REMARK   11  A    between atoms: O_23  and  C_24
REMARK                            x       y       z     vdW  Elec       q    Type
REMARK                         _______ _______ _______ _____ _____    ______ ____
ROOT
ATOM      1  C   UNL     1       1.824   8.620  19.427  0.00  0.00    +0.000 C 
ATOM      2  C   UNL     1       1.696   9.220  18.221  0.00  0.00    +0.000 C 
ATOM      3  C   UNL     1       0.455   8.739  17.463  0.00  0.00    +0.000 C 
ATOM      4  C   UNL     1       1.930  10.728  18.290  0.00  0.00    +0.000 C 
ATOM      5  O   UNL     1       2.806  11.276  17.640  0.00  0.00    +0.000 OA
ATOM      6  C   UNL     1       0.986  11.426  19.185  0.00  0.00    +0.000 C 
ATOM      7  C   UNL     1       0.164  10.598  19.827  0.00  0.00    +0.000 C 
ATOM      8  C   UNL     1       0.847   9.372  20.396  0.00  0.00    +0.000 C 
ATOM      9  O   UNL     1       0.701   9.070  21.573  0.00  0.00    +0.000 OA
ATOM     10  C   UNL     1      -1.159  11.342  19.946  0.00  0.00    +0.000 C 
ATOM     11  C   UNL     1      -0.645  12.781  20.200  0.00  0.00    +0.000 C 
ATOM     12  C   UNL     1       0.069  13.068  21.528  0.00  0.00    +0.000 C 
ATOM     13  N   UNL     1       0.390  14.416  22.019  0.00  0.00    +0.000 NA
ATOM     14  C   UNL     1       1.374  13.750  21.164  0.00  0.00    +0.000 C 
ATOM     15  C   UNL     1       1.401  13.884  19.665  0.00  0.00    +0.000 C 
ATOM     16  N   UNL     1       0.526  12.799  19.209  0.00  0.00    +0.000 N 
ATOM     17  H   UNL     1       0.687  14.385  22.996  0.00  0.00    +0.000 HD
ENDROOT
BRANCH   1  18
ATOM     18  N   UNL     1       2.145   7.225  19.450  0.00  0.00    +0.000 N 
ATOM     19  H   UNL     1       1.289   6.704  19.659  0.00  0.00    +0.000 HD
BRANCH  18  20
ATOM     20  C   UNL     1       3.026   6.330  18.658  0.00  0.00    +0.000 C 
ATOM     21  C   UNL     1       4.033   5.632  19.571  0.00  0.00    +0.000 C 
ATOM     22  C   UNL     1       3.737   7.059  17.509  0.00  0.00    +0.000 C 
BRANCH  20  24
ATOM     23  C   UNL     1       1.555   4.297  17.575  0.00  0.00    +0.000 C 
ATOM     24  C   UNL     1       2.182   5.222  18.024  0.00  0.00    +0.000 C 
ENDBRANCH  20  24
ENDBRANCH  18  20
ENDBRANCH   1  18
BRANCH  11  25
ATOM     25  O   UNL     1      -1.586  13.813  19.920  0.00  0.00    +0.000 OA
ATOM     26  C   UNL     1      -2.651  13.902  20.877  0.00  0.00    +0.000 C 
ENDBRANCH  11  25
BRANCH  10  27
ATOM     27  C   UNL     1      -1.866  11.409  18.494  0.00  0.00    +0.000 C 
BRANCH  27  28
ATOM     28  O   UNL     1      -3.311  11.403  18.486  0.00  0.00    +0.000 OA
BRANCH  28  29
ATOM     29  C   UNL     1      -3.940  11.407  17.301  0.00  0.00    +0.000 C 
ATOM     30  N   UNL     1      -3.059  11.548  16.289  0.00  0.00    +0.000 N 
ATOM     31  O   UNL     1      -5.141  11.304  17.130  0.00  0.00    +0.000 OA
ATOM     32  H   UNL     1      -2.066  11.493  16.463  0.00  0.00    +0.000 HD
ATOM     33  H   UNL     1      -3.402  11.476  15.340  0.00  0.00    +0.000 HD
ENDBRANCH  28  29
ENDBRANCH  27  28
ENDBRANCH  10  27
TORSDOF 7
ENDMDL
MODEL 4
REMARK VINA RESULT:      -5.6      6.516      9.514
REMARK  Name = 
REMARK  11 active torsions:
REMARK  status: ('A' for Active; 'I' for Inactive)
REMARK    1  A    between atoms: C_2  and  C_3
REMARK    2  A    between atoms: C_3  and  C_4
REMARK    3  A    between atoms: C_3  and  C_5
REMARK    4  A    between atoms: C_3  and  N_6
REMARK    5  A    between atoms: N_6  and  C_7
REMARK    6  A    between atoms: C_8  and  C_9
REMARK    7  A    between atoms: C_16  and  C_17
REMARK    8  A    between atoms: C_17  and  O_18
REMARK    9  A    between atoms: O_18  and  C_19
REMARK   10  A    between atoms: C_22  and  O_23
REMARK   11  A    between atoms: O_23  and  C_24
REMARK                            x       y       z     vdW  Elec       q    Type
REMARK                         _______ _______ _______ _____ _____    ______ ____
ROOT
ATOM      1  C   UNL     1       1.672   7.762  18.722  0.00  0.00    +0.000 C 
ATOM      2  C   UNL     1       2.112   7.031  17.672  0.00  0.00    +0.000 C 
ATOM      3  C   UNL     1       3.575   7.329  17.329  0.00  0.00    +0.000 C 
ATOM      4  C   UNL     1       1.706   5.562  17.771  0.00  0.00    +0.000 C 
ATOM      5  O   UNL     1       1.028   5.020  16.913  0.00  0.00    +0.000 OA
ATOM      6  C   UNL     1       2.233   4.888  18.975  0.00  0.00    +0.000 C 
ATOM      7  C   UNL     1       2.892   5.711  19.788  0.00  0.00    +0.000 C 
ATOM      8  C   UNL     1       2.202   7.041  20.010  0.00  0.00    +0.000 C 
ATOM      9  O   UNL     1       1.997   7.452  21.144  0.00  0.00    +0.000 OA
ATOM     10  C   UNL     1       4.019   4.882  20.388  0.00  0.00    +0.000 C 
ATOM     11  C   UNL     1       3.297   3.523  20.565  0.00  0.00    +0.000 C 
ATOM     12  C   UNL     1       2.170   3.435  21.603  0.00  0.00    +0.000 C 
ATOM     13  N   UNL     1       1.565   2.175  22.060  0.00  0.00    +0.000 NA
ATOM     14  C   UNL     1       0.984   2.824  20.883  0.00  0.00    +0.000 C 
ATOM     15  C   UNL     1       1.421   2.535  19.473  0.00  0.00    +0.000 C 
ATOM     16  N   UNL     1       2.509   3.494  19.249  0.00  0.00    +0.000 N 
ATOM     17  H   UNL     1       0.978   2.332  22.881  0.00  0.00    +0.000 HD
ENDROOT
BRANCH   1  18
ATOM     18  N   UNL     1       1.515   9.172  18.536  0.00  0.00    +0.000 N 
ATOM     19  H   UNL     1       1.864   9.412  17.603  0.00  0.00    +0.000 HD
BRANCH  18  20
ATOM     20  C   UNL     1       0.481  10.178  18.893  0.00  0.00    +0.000 C 
ATOM     21  C   UNL     1       1.026  11.591  18.697  0.00  0.00    +0.000 C 
ATOM     22  C   UNL     1      -0.065   9.990  20.315  0.00  0.00    +0.000 C 
BRANCH  20  24
ATOM     23  C   UNL     1      -1.689   9.978  17.244  0.00  0.00    +0.000 C 
ATOM     24  C   UNL     1      -0.709  10.040  17.940  0.00  0.00    +0.000 C 
ENDBRANCH  20  24
ENDBRANCH  18  20
ENDBRANCH   1  18
BRANCH  11  25
ATOM     25  O   UNL     1       4.160   2.396  20.685  0.00  0.00    +0.000 OA
ATOM     26  C   UNL     1       4.299   1.640  19.473  0.00  0.00    +0.000 C 
ENDBRANCH  11  25
BRANCH  10  27
ATOM     27  C   UNL     1       5.141   4.607  19.257  0.00  0.00    +0.000 C 
BRANCH  27  28
ATOM     28  O   UNL     1       6.484   5.034  19.572  0.00  0.00    +0.000 OA
BRANCH  28  29
ATOM     29  C   UNL     1       7.301   5.360  18.558  0.00  0.00    +0.000 C 
ATOM     30  N   UNL     1       7.581   4.281  17.798  0.00  0.00    +0.000 N 
ATOM     31  O   UNL     1       7.749   6.470  18.331  0.00  0.00    +0.000 OA
ATOM     32  H   UNL     1       7.083   3.414  17.939  0.00  0.00    +0.000 HD
ATOM     33  H   UNL     1       8.115   4.416  16.950  0.00  0.00    +0.000 HD
ENDBRANCH  28  29
ENDBRANCH  27  28
ENDBRANCH  10  27
TORSDOF 7
ENDMDL
MODEL 5
REMARK VINA RESULT:      -5.5      1.969      6.198
REMARK  Name = 
REMARK  11 active torsions:
REMARK  status: ('A' for Active; 'I' for Inactive)
REMARK    1  A    between atoms: C_2  and  C_3
REMARK    2  A    between atoms: C_3  and  C_4
REMARK    3  A    between atoms: C_3  and  C_5
REMARK    4  A    between atoms: C_3  and  N_6
REMARK    5  A    between atoms: N_6  and  C_7
REMARK    6  A    between atoms: C_8  and  C_9
REMARK    7  A    between atoms: C_16  and  C_17
REMARK    8  A    between atoms: C_17  and  O_18
REMARK    9  A    between atoms: O_18  and  C_19
REMARK   10  A    between atoms: C_22  and  O_23
REMARK   11  A    between atoms: O_23  and  C_24
REMARK                            x       y       z     vdW  Elec       q    Type
REMARK                         _______ _______ _______ _____ _____    ______ ____
ROOT
ATOM      1  C   UNL     1      -3.227  13.017  22.376  0.00  0.00    +0.000 C 
ATOM      2  C   UNL     1      -2.219  12.840  23.263  0.00  0.00    +0.000 C 
ATOM      3  C   UNL     1      -1.797  11.372  23.376  0.00  0.00    +0.000 C 
ATOM      4  C   UNL     1      -1.108  13.875  23.099  0.00  0.00    +0.000 C 
ATOM      5  O   UNL     1      -0.783  14.624  24.006  0.00  0.00    +0.000 OA
ATOM      6  C   UNL     1      -0.475  13.847  21.765  0.00  0.00    +0.000 C 
ATOM      7  C   UNL     1      -1.050  12.982  20.931  0.00  0.00    +0.000 C 
ATOM      8  C   UNL     1      -2.564  13.018  20.955  0.00  0.00    +0.000 C 
ATOM      9  O   UNL     1      -3.198  13.141  19.916  0.00  0.00    +0.000 OA
ATOM     10  C   UNL     1       0.078  12.427  20.072  0.00  0.00    +0.000 C 
ATOM     11  C   UNL     1       0.943  13.699  19.896  0.00  0.00    +0.000 C 
ATOM     12  C   UNL     1       0.368  14.853  19.062  0.00  0.00    +0.000 C 
ATOM     13  N   UNL     1       1.151  16.009  18.601  0.00  0.00    +0.000 NA
ATOM     14  C   UNL     1       0.512  16.099  19.916  0.00  0.00    +0.000 C 
ATOM     15  C   UNL     1       1.183  15.684  21.197  0.00  0.00    +0.000 C 
ATOM     16  N   UNL     1       0.838  14.263  21.319  0.00  0.00    +0.000 N 
ATOM     17  H   UNL     1       0.626  16.550  17.912  0.00  0.00    +0.000 HD
ENDROOT
BRANCH   1  18
ATOM     18  N   UNL     1      -4.516  12.498  22.717  0.00  0.00    +0.000 N 
ATOM     19  H   UNL     1      -4.392  11.780  23.436  0.00  0.00    +0.000 HD
BRANCH  18  20
ATOM     20  C   UNL     1      -5.874  13.073  22.898  0.00  0.00    +0.000 C 
ATOM     21  C   UNL     1      -6.600  12.371  24.043  0.00  0.00    +0.000 C 
ATOM     22  C   UNL     1      -6.710  13.039  21.611  0.00  0.00    +0.000 C 
BRANCH  20  24
ATOM     23  C   UNL     1      -5.729  15.712  23.596  0.00  0.00    +0.000 C 
ATOM     24  C   UNL     1      -5.750  14.544  23.305  0.00  0.00    +0.000 C 
ENDBRANCH  20  24
ENDBRANCH  18  20
ENDBRANCH   1  18
BRANCH  11  25
ATOM     25  O   UNL     1       2.297  13.458  19.525  0.00  0.00    +0.000 OA
ATOM     26  C   UNL     1       2.449  12.911  18.207  0.00  0.00    +0.000 C 
ENDBRANCH  11  25
BRANCH  10  27
ATOM     27  C   UNL     1       0.988  11.432  20.963  0.00  0.00    +0.000 C 
BRANCH  27  28
ATOM     28  O   UNL     1       0.498  10.081  21.115  0.00  0.00    +0.000 OA
BRANCH  28  29
ATOM     29  C   UNL     1       1.054   9.306  22.059  0.00  0.00    +0.000 C 
ATOM     30  N   UNL     1       1.554   8.174  21.520  0.00  0.00    +0.000 N 
ATOM     31  O   UNL     1       1.112   9.561  23.248  0.00  0.00    +0.000 OA
ATOM     32  H   UNL     1       1.607   8.065  20.518  0.00  0.00    +0.000 HD
ATOM     33  H   UNL     1       2.079   7.549  22.117  0.00  0.00    +0.000 HD
ENDBRANCH  28  29
ENDBRANCH  27  28
ENDBRANCH  10  27
TORSDOF 7
ENDMDL
MODEL 6
REMARK VINA RESULT:      -5.5      3.603      6.620
REMARK  Name = 
REMARK  11 active torsions:
REMARK  status: ('A' for Active; 'I' for Inactive)
REMARK    1  A    between atoms: C_2  and  C_3
REMARK    2  A    between atoms: C_3  and  C_4
REMARK    3  A    between atoms: C_3  and  C_5
REMARK    4  A    between atoms: C_3  and  N_6
REMARK    5  A    between atoms: N_6  and  C_7
REMARK    6  A    between atoms: C_8  and  C_9
REMARK    7  A    between atoms: C_16  and  C_17
REMARK    8  A    between atoms: C_17  and  O_18
REMARK    9  A    between atoms: O_18  and  C_19
REMARK   10  A    between atoms: C_22  and  O_23
REMARK   11  A    between atoms: O_23  and  C_24
REMARK                            x       y       z     vdW  Elec       q    Type
REMARK                         _______ _______ _______ _____ _____    ______ ____
ROOT
ATOM      1  C   UNL     1       1.655   7.794  20.137  0.00  0.00    +0.000 C 
ATOM      2  C   UNL     1       1.201   8.243  21.331  0.00  0.00    +0.000 C 
ATOM      3  C   UNL     1       2.275   9.010  22.108  0.00  0.00    +0.000 C 
ATOM      4  C   UNL     1      -0.178   8.889  21.226  0.00  0.00    +0.000 C 
ATOM      5  O   UNL     1      -1.137   8.472  21.856  0.00  0.00    +0.000 OA
ATOM      6  C   UNL     1      -0.211  10.057  20.322  0.00  0.00    +0.000 C 
ATOM      7  C   UNL     1       0.949  10.273  19.705  0.00  0.00    +0.000 C 
ATOM      8  C   UNL     1       1.599   9.018  19.159  0.00  0.00    +0.000 C 
ATOM      9  O   UNL     1       1.957   8.963  17.991  0.00  0.00    +0.000 OA
ATOM     10  C   UNL     1       1.073  11.784  19.579  0.00  0.00    +0.000 C 
ATOM     11  C   UNL     1      -0.402  12.159  19.289  0.00  0.00    +0.000 C 
ATOM     12  C   UNL     1      -1.007  11.718  17.949  0.00  0.00    +0.000 C 
ATOM     13  N   UNL     1      -2.294  12.200  17.425  0.00  0.00    +0.000 NA
ATOM     14  C   UNL     1      -2.309  11.018  18.288  0.00  0.00    +0.000 C 
ATOM     15  C   UNL     1      -2.471  11.080  19.783  0.00  0.00    +0.000 C 
ATOM     16  N   UNL     1      -1.092  11.204  20.270  0.00  0.00    +0.000 N 
ATOM     17  H   UNL     1      -2.411  11.930  16.447  0.00  0.00    +0.000 HD
ENDROOT
BRANCH   1  18
ATOM     18  N   UNL     1       2.634   6.749  20.144  0.00  0.00    +0.000 N 
ATOM     19  H   UNL     1       2.992   6.654  21.098  0.00  0.00    +0.000 HD
BRANCH  18  20
ATOM     20  C   UNL     1       2.772   5.425  19.485  0.00  0.00    +0.000 C 
ATOM     21  C   UNL     1       4.224   4.955  19.539  0.00  0.00    +0.000 C 
ATOM     22  C   UNL     1       2.243   5.420  18.044  0.00  0.00    +0.000 C 
BRANCH  20  24
ATOM     23  C   UNL     1       1.264   3.634  20.895  0.00  0.00    +0.000 C 
ATOM     24  C   UNL     1       1.956   4.388  20.260  0.00  0.00    +0.000 C 
ENDBRANCH  20  24
ENDBRANCH  18  20
ENDBRANCH   1  18
BRANCH  11  25
ATOM     25  O   UNL     1      -0.739  13.517  19.552  0.00  0.00    +0.000 OA
ATOM     26  C   UNL     1      -0.103  14.454  18.671  0.00  0.00    +0.000 C 
ENDBRANCH  11  25
BRANCH  10  27
ATOM     27  C   UNL     1       1.378  12.419  21.034  0.00  0.00    +0.000 C 
BRANCH  27  28
ATOM     28  O   UNL     1       2.521  13.298  21.121  0.00  0.00    +0.000 OA
BRANCH  28  29
ATOM     29  C   UNL     1       2.322  14.561  21.531  0.00  0.00    +0.000 C 
ATOM     30  N   UNL     1       2.973  15.434  20.735  0.00  0.00    +0.000 N 
ATOM     31  O   UNL     1       1.652  14.902  22.489  0.00  0.00    +0.000 OA
ATOM     32  H   UNL     1       3.402  15.122  19.876  0.00  0.00    +0.000 HD
ATOM     33  H   UNL     1       2.828  16.424  20.887  0.00  0.00    +0.000 HD
ENDBRANCH  28  29
ENDBRANCH  27  28
ENDBRANCH  10  27
TORSDOF 7
ENDMDL
MODEL 7
REMARK VINA RESULT:      -5.4      2.702      4.954
REMARK  Name = 
REMARK  11 active torsions:
REMARK  status: ('A' for Active; 'I' for Inactive)
REMARK    1  A    between atoms: C_2  and  C_3
REMARK    2  A    between atoms: C_3  and  C_4
REMARK    3  A    between atoms: C_3  and  C_5
REMARK    4  A    between atoms: C_3  and  N_6
REMARK    5  A    between atoms: N_6  and  C_7
REMARK    6  A    between atoms: C_8  and  C_9
REMARK    7  A    between atoms: C_16  and  C_17
REMARK    8  A    between atoms: C_17  and  O_18
REMARK    9  A    between atoms: O_18  and  C_19
REMARK   10  A    between atoms: C_22  and  O_23
REMARK   11  A    between atoms: O_23  and  C_24
REMARK                            x       y       z     vdW  Elec       q    Type
REMARK                         _______ _______ _______ _____ _____    ______ ____
ROOT
ATOM      1  C   UNL     1      -0.303  11.938  21.172  0.00  0.00    +0.000 C 
ATOM      2  C   UNL     1      -0.880  12.598  20.140  0.00  0.00    +0.000 C 
ATOM      3  C   UNL     1      -1.849  11.710  19.354  0.00  0.00    +0.000 C 
ATOM      4  C   UNL     1      -1.373  13.987  20.538  0.00  0.00    +0.000 C 
ATOM      5  O   UNL     1      -0.967  14.999  19.988  0.00  0.00    +0.000 OA
ATOM      6  C   UNL     1      -2.386  13.964  21.613  0.00  0.00    +0.000 C 
ATOM      7  C   UNL     1      -2.614  12.741  22.089  0.00  0.00    +0.000 C 
ATOM      8  C   UNL     1      -1.358  11.930  22.332  0.00  0.00    +0.000 C 
ATOM      9  O   UNL     1      -1.164  11.396  23.415  0.00  0.00    +0.000 OA
ATOM     10  C   UNL     1      -4.096  12.706  22.437  0.00  0.00    +0.000 C 
ATOM     11  C   UNL     1      -4.285  14.142  22.986  0.00  0.00    +0.000 C 
ATOM     12  C   UNL     1      -3.596  14.505  24.308  0.00  0.00    +0.000 C 
ATOM     13  N   UNL     1      -3.875  15.728  25.076  0.00  0.00    +0.000 NA
ATOM     14  C   UNL     1      -2.837  15.791  24.046  0.00  0.00    +0.000 C 
ATOM     15  C   UNL     1      -3.105  16.181  22.617  0.00  0.00    +0.000 C 
ATOM     16  N   UNL     1      -3.427  14.905  21.969  0.00  0.00    +0.000 N 
ATOM     17  H   UNL     1      -3.454  15.676  26.005  0.00  0.00    +0.000 HD
ENDROOT
BRANCH   1  18
ATOM     18  N   UNL     1       0.634  10.902  20.862  0.00  0.00    +0.000 N 
ATOM     19  H   UNL     1       1.577  11.298  20.913  0.00  0.00    +0.000 HD
BRANCH  18  20
ATOM     20  C   UNL     1       0.748   9.452  21.166  0.00  0.00    +0.000 C 
ATOM     21  C   UNL     1      -0.640   8.823  21.279  0.00  0.00    +0.000 C 
ATOM     22  C   UNL     1       1.584   9.172  22.423  0.00  0.00    +0.000 C 
BRANCH  20  24
ATOM     23  C   UNL     1       2.023   8.131  19.141  0.00  0.00    +0.000 C 
ATOM     24  C   UNL     1       1.447   8.745  20.002  0.00  0.00    +0.000 C 
ENDBRANCH  20  24
ENDBRANCH  18  20
ENDBRANCH   1  18
BRANCH  11  25
ATOM     25  O   UNL     1      -5.630  14.609  22.992  0.00  0.00    +0.000 OA
ATOM     26  C   UNL     1      -6.491  13.887  23.885  0.00  0.00    +0.000 C 
ENDBRANCH  11  25
BRANCH  10  27
ATOM     27  C   UNL     1      -4.964  12.669  21.074  0.00  0.00    +0.000 C 
BRANCH  27  28
ATOM     28  O   UNL     1      -5.845  11.536  20.907  0.00  0.00    +0.000 OA
BRANCH  28  29
ATOM     29  C   UNL     1      -7.169  11.746  20.966  0.00  0.00    +0.000 C 
ATOM     30  N   UNL     1      -7.819  10.624  21.339  0.00  0.00    +0.000 N 
ATOM     31  O   UNL     1      -7.736  12.795  20.719  0.00  0.00    +0.000 OA
ATOM     32  H   UNL     1      -7.304   9.820  21.666  0.00  0.00    +0.000 HD
ATOM     33  H   UNL     1      -8.815  10.679  21.507  0.00  0.00    +0.000 HD
ENDBRANCH  28  29
ENDBRANCH  27  28
ENDBRANCH  10  27
TORSDOF 7
ENDMDL
MODEL 8
REMARK VINA RESULT:      -5.4      7.440     11.464
REMARK  Name = 
REMARK  11 active torsions:
REMARK  status: ('A' for Active; 'I' for Inactive)
REMARK    1  A    between atoms: C_2  and  C_3
REMARK    2  A    between atoms: C_3  and  C_4
REMARK    3  A    between atoms: C_3  and  C_5
REMARK    4  A    between atoms: C_3  and  N_6
REMARK    5  A    between atoms: N_6  and  C_7
REMARK    6  A    between atoms: C_8  and  C_9
REMARK    7  A    between atoms: C_16  and  C_17
REMARK    8  A    between atoms: C_17  and  O_18
REMARK    9  A    between atoms: O_18  and  C_19
REMARK   10  A    between atoms: C_22  and  O_23
REMARK   11  A    between atoms: O_23  and  C_24
REMARK                            x       y       z     vdW  Elec       q    Type
REMARK                         _______ _______ _______ _____ _____    ______ ____
ROOT
ATOM      1  C   UNL     1       6.924  16.632  18.689  0.00  0.00    +0.000 C 
ATOM      2  C   UNL     1       7.768  17.133  19.622  0.00  0.00    +0.000 C 
ATOM      3  C   UNL     1       7.476  16.584  21.022  0.00  0.00    +0.000 C 
ATOM      4  C   UNL     1       9.224  17.123  19.160  0.00  0.00    +0.000 C 
ATOM      5  O   UNL     1       9.885  18.147  19.085  0.00  0.00    +0.000 OA
ATOM      6  C   UNL     1       9.730  15.771  18.848  0.00  0.00    +0.000 C 
ATOM      7  C   UNL     1       8.796  14.827  18.949  0.00  0.00    +0.000 C 
ATOM      8  C   UNL     1       7.467  15.206  18.328  0.00  0.00    +0.000 C 
ATOM      9  O   UNL     1       6.926  14.464  17.520  0.00  0.00    +0.000 OA
ATOM     10  C   UNL     1       9.516  13.590  19.468  0.00  0.00    +0.000 C 
ATOM     11  C   UNL     1      10.861  13.715  18.710  0.00  0.00    +0.000 C 
ATOM     12  C   UNL     1      10.850  13.533  17.186  0.00  0.00    +0.000 C 
ATOM     13  N   UNL     1      12.060  13.377  16.364  0.00  0.00    +0.000 NA
ATOM     14  C   UNL     1      11.576  14.737  16.615  0.00  0.00    +0.000 C 
ATOM     15  C   UNL     1      12.025  15.578  17.779  0.00  0.00    +0.000 C 
ATOM     16  N   UNL     1      11.072  15.229  18.840  0.00  0.00    +0.000 N 
ATOM     17  H   UNL     1      11.819  13.082  15.417  0.00  0.00    +0.000 HD
ENDROOT
BRANCH   1  18
ATOM     18  N   UNL     1       5.553  17.036  18.743  0.00  0.00    +0.000 N 
ATOM     19  H   UNL     1       5.384  17.696  17.978  0.00  0.00    +0.000 HD
BRANCH  18  20
ATOM     20  C   UNL     1       4.262  16.363  19.039  0.00  0.00    +0.000 C 
ATOM     21  C   UNL     1       4.502  15.084  19.838  0.00  0.00    +0.000 C 
ATOM     22  C   UNL     1       3.437  16.078  17.776  0.00  0.00    +0.000 C 
BRANCH  20  24
ATOM     23  C   UNL     1       2.674  17.962  20.584  0.00  0.00    +0.000 C 
ATOM     24  C   UNL     1       3.411  17.272  19.928  0.00  0.00    +0.000 C 
ENDBRANCH  20  24
ENDBRANCH  18  20
ENDBRANCH   1  18
BRANCH  11  25
ATOM     25  O   UNL     1      11.942  12.984  19.281  0.00  0.00    +0.000 OA
ATOM     26  C   UNL     1      11.826  11.562  19.125  0.00  0.00    +0.000 C 
ENDBRANCH  11  25
BRANCH  10  27
ATOM     27  C   UNL     1       9.899  13.808  21.023  0.00  0.00    +0.000 C 
BRANCH  27  28
ATOM     28  O   UNL     1       9.773  12.651  21.880  0.00  0.00    +0.000 OA
BRANCH  28  29
ATOM     29  C   UNL     1       8.782  12.637  22.785  0.00  0.00    +0.000 C 
ATOM     30  N   UNL     1       8.482  11.373  23.151  0.00  0.00    +0.000 N 
ATOM     31  O   UNL     1       8.209  13.614  23.232  0.00  0.00    +0.000 OA
ATOM     32  H   UNL     1       9.069  10.604  22.862  0.00  0.00    +0.000 HD
ATOM     33  H   UNL     1       7.811  11.235  23.896  0.00  0.00    +0.000 HD
ENDBRANCH  28  29
ENDBRANCH  27  28
ENDBRANCH  10  27
TORSDOF 7
ENDMDL
MODEL 9
REMARK VINA RESULT:      -5.3      7.572     11.592
REMARK  Name = 
REMARK  11 active torsions:
REMARK  status: ('A' for Active; 'I' for Inactive)
REMARK    1  A    between atoms: C_2  and  C_3
REMARK    2  A    between atoms: C_3  and  C_4
REMARK    3  A    between atoms: C_3  and  C_5
REMARK    4  A    between atoms: C_3  and  N_6
REMARK    5  A    between atoms: N_6  and  C_7
REMARK    6  A    between atoms: C_8  and  C_9
REMARK    7  A    between atoms: C_16  and  C_17
REMARK    8  A    between atoms: C_17  and  O_18
REMARK    9  A    between atoms: O_18  and  C_19
REMARK   10  A    between atoms: C_22  and  O_23
REMARK   11  A    between atoms: O_23  and  C_24
REMARK                            x       y       z     vdW  Elec       q    Type
REMARK                         _______ _______ _______ _____ _____    ______ ____
ROOT
ATOM      1  C   UNL     1       7.122  16.634  18.616  0.00  0.00    +0.000 C 
ATOM      2  C   UNL     1       7.966  17.126  19.553  0.00  0.00    +0.000 C 
ATOM      3  C   UNL     1       7.659  16.583  20.951  0.00  0.00    +0.000 C 
ATOM      4  C   UNL     1       9.425  17.098  19.099  0.00  0.00    +0.000 C 
ATOM      5  O   UNL     1      10.098  18.114  19.026  0.00  0.00    +0.000 OA
ATOM      6  C   UNL     1       9.916  15.740  18.792  0.00  0.00    +0.000 C 
ATOM      7  C   UNL     1       8.971  14.807  18.889  0.00  0.00    +0.000 C 
ATOM      8  C   UNL     1       7.650  15.201  18.259  0.00  0.00    +0.000 C 
ATOM      9  O   UNL     1       7.104  14.464  17.450  0.00  0.00    +0.000 OA
ATOM     10  C   UNL     1       9.673  13.562  19.414  0.00  0.00    +0.000 C 
ATOM     11  C   UNL     1      11.024  13.670  18.664  0.00  0.00    +0.000 C 
ATOM     12  C   UNL     1      11.019  13.486  17.140  0.00  0.00    +0.000 C 
ATOM     13  N   UNL     1      12.232  13.314  16.326  0.00  0.00    +0.000 NA
ATOM     14  C   UNL     1      11.763  14.679  16.572  0.00  0.00    +0.000 C 
ATOM     15  C   UNL     1      12.215  15.517  17.737  0.00  0.00    +0.000 C 
ATOM     16  N   UNL     1      11.252  15.182  18.793  0.00  0.00    +0.000 N 
ATOM     17  H   UNL     1      11.992  13.020  15.378  0.00  0.00    +0.000 HD
ENDROOT
BRANCH   1  18
ATOM     18  N   UNL     1       5.755  17.055  18.661  0.00  0.00    +0.000 N 
ATOM     19  H   UNL     1       5.486  17.367  17.723  0.00  0.00    +0.000 HD
BRANCH  18  20
ATOM     20  C   UNL     1       4.523  16.576  19.338  0.00  0.00    +0.000 C 
ATOM     21  C   UNL     1       4.183  17.479  20.522  0.00  0.00    +0.000 C 
ATOM     22  C   UNL     1       4.616  15.107  19.774  0.00  0.00    +0.000 C 
BRANCH  20  24
ATOM     23  C   UNL     1       2.363  16.756  17.672  0.00  0.00    +0.000 C 
ATOM     24  C   UNL     1       3.343  16.675  18.368  0.00  0.00    +0.000 C 
ENDBRANCH  20  24
ENDBRANCH  18  20
ENDBRANCH   1  18
BRANCH  11  25
ATOM     25  O   UNL     1      12.092  12.927  19.242  0.00  0.00    +0.000 OA
ATOM     26  C   UNL     1      11.901  11.505  19.195  0.00  0.00    +0.000 C 
ENDBRANCH  11  25
BRANCH  10  27
ATOM     27  C   UNL     1      10.049  13.778  20.971  0.00  0.00    +0.000 C 
BRANCH  27  28
ATOM     28  O   UNL     1       9.057  13.357  21.933  0.00  0.00    +0.000 OA
BRANCH  28  29
ATOM     29  C   UNL     1       8.930  12.044  22.181  0.00  0.00    +0.000 C 
ATOM     30  N   UNL     1       8.767  11.817  23.501  0.00  0.00    +0.000 N 
ATOM     31  O   UNL     1       8.958  11.155  21.350  0.00  0.00    +0.000 OA
ATOM     32  H   UNL     1       8.613  12.585  24.137  0.00  0.00    +0.000 HD
ATOM     33  H   UNL     1       8.570  10.872  23.805  0.00  0.00    +0.000 HD
ENDBRANCH  28  29
ENDBRANCH  27  28
ENDBRANCH  10  27
TORSDOF 7
ENDMDL
