MODEL 1
REMARK VINA RESULT:      -8.4      0.000      0.000
REMARK  Name = 
REMARK  11 active torsions:
REMARK  status: ('A' for Active; 'I' for Inactive)
REMARK    1  A    between atoms: C_1  and  O_2
REMARK    2  A    between atoms: O_2  and  C_3
REMARK    3  A    between atoms: C_6  and  C_7
REMARK    4  A    between atoms: N_9  and  C_10
REMARK    5  A    between atoms: C_13  and  O_14
REMARK    6  A    between atoms: O_14  and  C_15
REMARK    7  A    between atoms: C_15  and  C_16
REMARK    8  A    between atoms: C_16  and  N_17
REMARK    9  A    between atoms: C_24  and  C_25
REMARK   10  A    between atoms: C_29  and  O_30
REMARK   11  A    between atoms: C_32  and  O_33
REMARK                            x       y       z     vdW  Elec       q    Type
REMARK                         _______ _______ _______ _____ _____    ______ ____
ROOT
ATOM      1  C   UNL     1       5.652   4.650  16.207  0.00  0.00    +0.000 A 
ATOM      2  C   UNL     1       5.716   6.023  16.016  0.00  0.00    +0.000 A 
ATOM      3  C   UNL     1       4.835   6.872  16.675  0.00  0.00    +0.000 A 
ATOM      4  C   UNL     1       3.864   6.378  17.569  0.00  0.00    +0.000 A 
ATOM      5  C   UNL     1       3.746   4.964  17.785  0.00  0.00    +0.000 A 
ATOM      6  C   UNL     1       4.679   4.126  17.084  0.00  0.00    +0.000 A 
ENDROOT
BRANCH   5   7
ATOM      7  C   UNL     1       2.715   4.362  18.697  0.00  0.00    +0.000 A 
ATOM      8  C   UNL     1       1.443   3.977  18.235  0.00  0.00    +0.000 A 
ATOM      9  C   UNL     1       0.510   3.348  19.067  0.00  0.00    +0.000 A 
ATOM     10  C   UNL     1       0.774   3.194  20.424  0.00  0.00    +0.000 A 
ATOM     11  C   UNL     1       2.000   3.589  20.911  0.00  0.00    +0.000 A 
ATOM     12  C   UNL     1       2.966   4.137  20.065  0.00  0.00    +0.000 A 
BRANCH  11  13
ATOM     13  O   UNL     1       2.326   3.519  22.241  0.00  0.00    +0.000 OA
ATOM     14  H   UNL     1       3.292   3.459  22.301  0.00  0.00    +0.000 HD
ENDBRANCH  11  13
ENDBRANCH   5   7
BRANCH   4  15
ATOM     15  C   UNL     1       2.955   7.419  18.191  0.00  0.00    +0.000 C 
ATOM     16  O   UNL     1       2.530   7.275  19.333  0.00  0.00    +0.000 OA
ATOM     17  N   UNL     1       2.605   8.505  17.376  0.00  0.00    +0.000 N 
ATOM     18  H   UNL     1       2.681   8.394  16.378  0.00  0.00    +0.000 HD
BRANCH  17  19
ATOM     19  C   UNL     1       1.665   9.458  17.804  0.00  0.00    +0.000 A 
ATOM     20  C   UNL     1       0.306   9.161  17.753  0.00  0.00    +0.000 A 
ATOM     21  C   UNL     1      -0.631  10.108  18.161  0.00  0.00    +0.000 A 
ATOM     22  C   UNL     1      -0.210  11.365  18.607  0.00  0.00    +0.000 A 
ATOM     23  C   UNL     1       1.154  11.656  18.678  0.00  0.00    +0.000 A 
ATOM     24  C   UNL     1       2.098  10.683  18.308  0.00  0.00    +0.000 A 
BRANCH  22  25
ATOM     25  O   UNL     1      -1.051  12.381  18.992  0.00  0.00    +0.000 OA
BRANCH  25  26
ATOM     26  C   UNL     1      -0.804  12.867  20.315  0.00  0.00    +0.000 C 
BRANCH  26  27
ATOM     27  C   UNL     1      -1.438  11.918  21.339  0.00  0.00    +0.000 C 
BRANCH  27  28
ATOM     28  N   UNL     1      -0.506  11.495  22.409  0.00  0.00    +0.000 NA
ATOM     29  C   UNL     1       0.714  10.913  21.835  0.00  0.00    +0.000 C 
ATOM     30  C   UNL     1       0.371   9.446  21.621  0.00  0.00    +0.000 C 
ATOM     31  C   UNL     1      -0.467   9.112  22.838  0.00  0.00    +0.000 C 
ATOM     32  C   UNL     1      -1.044  10.447  23.297  0.00  0.00    +0.000 C 
ENDBRANCH  27  28
ENDBRANCH  26  27
ENDBRANCH  25  26
ENDBRANCH  22  25
ENDBRANCH  17  19
ENDBRANCH   4  15
BRANCH   1  34
ATOM     33  C   UNL     1       6.706   4.258  14.079  0.00  0.00    +0.000 C 
ATOM     34  O   UNL     1       6.593   3.980  15.469  0.00  0.00    +0.000 OA
ENDBRANCH   1  34
BRANCH   6  35
ATOM     35  O   UNL     1       4.692   2.758  17.238  0.00  0.00    +0.000 OA
ATOM     36  H   UNL     1       3.822   2.402  17.453  0.00  0.00    +0.000 HD
ENDBRANCH   6  35
TORSDOF 10
ENDMDL
MODEL 2
REMARK VINA RESULT:      -8.3      1.472      2.493
REMARK  Name = 
REMARK  11 active torsions:
REMARK  status: ('A' for Active; 'I' for Inactive)
REMARK    1  A    between atoms: C_1  and  O_2
REMARK    2  A    between atoms: O_2  and  C_3
REMARK    3  A    between atoms: C_6  and  C_7
REMARK    4  A    between atoms: N_9  and  C_10
REMARK    5  A    between atoms: C_13  and  O_14
REMARK    6  A    between atoms: O_14  and  C_15
REMARK    7  A    between atoms: C_15  and  C_16
REMARK    8  A    between atoms: C_16  and  N_17
REMARK    9  A    between atoms: C_24  and  C_25
REMARK   10  A    between atoms: C_29  and  O_30
REMARK   11  A    between atoms: C_32  and  O_33
REMARK                            x       y       z     vdW  Elec       q    Type
REMARK                         _______ _______ _______ _____ _____    ______ ____
ROOT
ATOM      1  C   UNL     1       5.622   5.072  16.597  0.00  0.00    +0.000 A 
ATOM      2  C   UNL     1       5.482   6.442  16.416  0.00  0.00    +0.000 A 
ATOM      3  C   UNL     1       4.450   7.136  17.035  0.00  0.00    +0.000 A 
ATOM      4  C   UNL     1       3.524   6.487  17.876  0.00  0.00    +0.000 A 
ATOM      5  C   UNL     1       3.615   5.069  18.078  0.00  0.00    +0.000 A 
ATOM      6  C   UNL     1       4.701   4.393  17.421  0.00  0.00    +0.000 A 
ENDROOT
BRANCH   5   7
ATOM      7  C   UNL     1       2.647   4.303  18.934  0.00  0.00    +0.000 A 
ATOM      8  C   UNL     1       1.425   3.820  18.430  0.00  0.00    +0.000 A 
ATOM      9  C   UNL     1       0.557   3.043  19.206  0.00  0.00    +0.000 A 
ATOM     10  C   UNL     1       0.826   2.826  20.553  0.00  0.00    +0.000 A 
ATOM     11  C   UNL     1       2.001   3.313  21.082  0.00  0.00    +0.000 A 
ATOM     12  C   UNL     1       2.910   4.014  20.288  0.00  0.00    +0.000 A 
BRANCH  11  13
ATOM     13  O   UNL     1       2.323   3.188  22.408  0.00  0.00    +0.000 OA
ATOM     14  H   UNL     1       2.253   4.069  22.809  0.00  0.00    +0.000 HD
ENDBRANCH  11  13
ENDBRANCH   5   7
BRANCH   4  15
ATOM     15  C   UNL     1       2.436   7.367  18.457  0.00  0.00    +0.000 C 
ATOM     16  O   UNL     1       1.680   7.994  17.722  0.00  0.00    +0.000 OA
ATOM     17  N   UNL     1       2.385   7.451  19.855  0.00  0.00    +0.000 N 
ATOM     18  H   UNL     1       3.216   7.219  20.377  0.00  0.00    +0.000 HD
BRANCH  17  19
ATOM     19  C   UNL     1       1.504   8.339  20.497  0.00  0.00    +0.000 A 
ATOM     20  C   UNL     1       0.381   7.846  21.155  0.00  0.00    +0.000 A 
ATOM     21  C   UNL     1      -0.503   8.723  21.779  0.00  0.00    +0.000 A 
ATOM     22  C   UNL     1      -0.274  10.102  21.731  0.00  0.00    +0.000 A 
ATOM     23  C   UNL     1       0.863  10.596  21.090  0.00  0.00    +0.000 A 
ATOM     24  C   UNL     1       1.776   9.706  20.500  0.00  0.00    +0.000 A 
BRANCH  22  25
ATOM     25  O   UNL     1      -1.103  11.052  22.278  0.00  0.00    +0.000 OA
BRANCH  25  26
ATOM     26  C   UNL     1      -1.284  12.206  21.454  0.00  0.00    +0.000 C 
BRANCH  26  27
ATOM     27  C   UNL     1      -2.556  12.045  20.612  0.00  0.00    +0.000 C 
BRANCH  27  28
ATOM     28  N   UNL     1      -2.347  12.311  19.170  0.00  0.00    +0.000 NA
ATOM     29  C   UNL     1      -3.238  11.477  18.353  0.00  0.00    +0.000 C 
ATOM     30  C   UNL     1      -2.478  10.171  18.172  0.00  0.00    +0.000 C 
ATOM     31  C   UNL     1      -1.045  10.633  18.006  0.00  0.00    +0.000 C 
ATOM     32  C   UNL     1      -0.988  11.994  18.689  0.00  0.00    +0.000 C 
ENDBRANCH  27  28
ENDBRANCH  26  27
ENDBRANCH  25  26
ENDBRANCH  22  25
ENDBRANCH  17  19
ENDBRANCH   4  15
BRANCH   1  34
ATOM     33  C   UNL     1       6.694   4.647  14.484  0.00  0.00    +0.000 C 
ATOM     34  O   UNL     1       6.691   4.566  15.904  0.00  0.00    +0.000 OA
ENDBRANCH   1  34
BRANCH   6  35
ATOM     35  O   UNL     1       4.918   3.042  17.568  0.00  0.00    +0.000 OA
ATOM     36  H   UNL     1       4.822   2.750  18.483  0.00  0.00    +0.000 HD
ENDBRANCH   6  35
TORSDOF 10
ENDMDL
MODEL 3
REMARK VINA RESULT:      -8.3      1.972      2.849
REMARK  Name = 
REMARK  11 active torsions:
REMARK  status: ('A' for Active; 'I' for Inactive)
REMARK    1  A    between atoms: C_1  and  O_2
REMARK    2  A    between atoms: O_2  and  C_3
REMARK    3  A    between atoms: C_6  and  C_7
REMARK    4  A    between atoms: N_9  and  C_10
REMARK    5  A    between atoms: C_13  and  O_14
REMARK    6  A    between atoms: O_14  and  C_15
REMARK    7  A    between atoms: C_15  and  C_16
REMARK    8  A    between atoms: C_16  and  N_17
REMARK    9  A    between atoms: C_24  and  C_25
REMARK   10  A    between atoms: C_29  and  O_30
REMARK   11  A    between atoms: C_32  and  O_33
REMARK                            x       y       z     vdW  Elec       q    Type
REMARK                         _______ _______ _______ _____ _____    ______ ____
ROOT
ATOM      1  C   UNL     1       5.749   5.359  16.693  0.00  0.00    +0.000 A 
ATOM      2  C   UNL     1       5.540   6.723  16.537  0.00  0.00    +0.000 A 
ATOM      3  C   UNL     1       4.450   7.345  17.134  0.00  0.00    +0.000 A 
ATOM      4  C   UNL     1       3.534   6.627  17.928  0.00  0.00    +0.000 A 
ATOM      5  C   UNL     1       3.696   5.211  18.102  0.00  0.00    +0.000 A 
ATOM      6  C   UNL     1       4.839   4.612  17.469  0.00  0.00    +0.000 A 
ENDROOT
BRANCH   5   7
ATOM      7  C   UNL     1       2.743   4.374  18.907  0.00  0.00    +0.000 A 
ATOM      8  C   UNL     1       1.580   3.818  18.343  0.00  0.00    +0.000 A 
ATOM      9  C   UNL     1       0.731   2.977  19.072  0.00  0.00    +0.000 A 
ATOM     10  C   UNL     1       0.953   2.763  20.428  0.00  0.00    +0.000 A 
ATOM     11  C   UNL     1       2.068   3.320  21.015  0.00  0.00    +0.000 A 
ATOM     12  C   UNL     1       2.963   4.088  20.269  0.00  0.00    +0.000 A 
BRANCH  11  13
ATOM     13  O   UNL     1       2.337   3.202  22.353  0.00  0.00    +0.000 OA
ATOM     14  H   UNL     1       3.074   3.800  22.556  0.00  0.00    +0.000 HD
ENDBRANCH  11  13
ENDBRANCH   5   7
BRANCH   4  15
ATOM     15  C   UNL     1       2.380   7.433  18.489  0.00  0.00    +0.000 C 
ATOM     16  O   UNL     1       1.559   7.955  17.740  0.00  0.00    +0.000 OA
ATOM     17  N   UNL     1       2.342   7.577  19.882  0.00  0.00    +0.000 N 
ATOM     18  H   UNL     1       3.198   7.444  20.398  0.00  0.00    +0.000 HD
BRANCH  17  19
ATOM     19  C   UNL     1       1.395   8.412  20.499  0.00  0.00    +0.000 A 
ATOM     20  C   UNL     1       1.220   9.716  20.044  0.00  0.00    +0.000 A 
ATOM     21  C   UNL     1       0.293  10.552  20.662  0.00  0.00    +0.000 A 
ATOM     22  C   UNL     1      -0.452  10.090  21.752  0.00  0.00    +0.000 A 
ATOM     23  C   UNL     1      -0.293   8.776  22.195  0.00  0.00    +0.000 A 
ATOM     24  C   UNL     1       0.610   7.921  21.542  0.00  0.00    +0.000 A 
BRANCH  22  25
ATOM     25  O   UNL     1      -1.360  10.844  22.455  0.00  0.00    +0.000 OA
BRANCH  25  26
ATOM     26  C   UNL     1      -0.932  12.186  22.702  0.00  0.00    +0.000 C 
BRANCH  26  27
ATOM     27  C   UNL     1      -2.143  13.056  23.061  0.00  0.00    +0.000 C 
BRANCH  27  28
ATOM     28  N   UNL     1      -3.419  12.306  23.095  0.00  0.00    +0.000 NA
ATOM     29  C   UNL     1      -4.285  12.704  21.978  0.00  0.00    +0.000 C 
ATOM     30  C   UNL     1      -5.042  13.918  22.496  0.00  0.00    +0.000 C 
ATOM     31  C   UNL     1      -5.310  13.559  23.942  0.00  0.00    +0.000 C 
ATOM     32  C   UNL     1      -4.229  12.548  24.305  0.00  0.00    +0.000 C 
ENDBRANCH  27  28
ENDBRANCH  26  27
ENDBRANCH  25  26
ENDBRANCH  22  25
ENDBRANCH  17  19
ENDBRANCH   4  15
BRANCH   1  34
ATOM     33  C   UNL     1       6.807   4.755  14.617  0.00  0.00    +0.000 C 
ATOM     34  O   UNL     1       6.867   4.928  16.027  0.00  0.00    +0.000 OA
ENDBRANCH   1  34
BRANCH   6  35
ATOM     35  O   UNL     1       5.125   3.271  17.594  0.00  0.00    +0.000 OA
ATOM     36  H   UNL     1       4.457   2.710  17.181  0.00  0.00    +0.000 HD
ENDBRANCH   6  35
TORSDOF 10
ENDMDL
MODEL 4
REMARK VINA RESULT:      -8.2      1.544      2.551
REMARK  Name = 
REMARK  11 active torsions:
REMARK  status: ('A' for Active; 'I' for Inactive)
REMARK    1  A    between atoms: C_1  and  O_2
REMARK    2  A    between atoms: O_2  and  C_3
REMARK    3  A    between atoms: C_6  and  C_7
REMARK    4  A    between atoms: N_9  and  C_10
REMARK    5  A    between atoms: C_13  and  O_14
REMARK    6  A    between atoms: O_14  and  C_15
REMARK    7  A    between atoms: C_15  and  C_16
REMARK    8  A    between atoms: C_16  and  N_17
REMARK    9  A    between atoms: C_24  and  C_25
REMARK   10  A    between atoms: C_29  and  O_30
REMARK   11  A    between atoms: C_32  and  O_33
REMARK                            x       y       z     vdW  Elec       q    Type
REMARK                         _______ _______ _______ _____ _____    ______ ____
ROOT
ATOM      1  C   UNL     1       5.384   4.442  15.993  0.00  0.00    +0.000 A 
ATOM      2  C   UNL     1       5.480   5.824  15.904  0.00  0.00    +0.000 A 
ATOM      3  C   UNL     1       4.710   6.643  16.720  0.00  0.00    +0.000 A 
ATOM      4  C   UNL     1       3.822   6.107  17.674  0.00  0.00    +0.000 A 
ATOM      5  C   UNL     1       3.672   4.685  17.791  0.00  0.00    +0.000 A 
ATOM      6  C   UNL     1       4.491   3.878  16.928  0.00  0.00    +0.000 A 
ENDROOT
BRANCH   5   7
ATOM      7  C   UNL     1       2.723   4.042  18.762  0.00  0.00    +0.000 A 
ATOM      8  C   UNL     1       1.391   3.745  18.418  0.00  0.00    +0.000 A 
ATOM      9  C   UNL     1       0.529   3.078  19.296  0.00  0.00    +0.000 A 
ATOM     10  C   UNL     1       0.934   2.796  20.596  0.00  0.00    +0.000 A 
ATOM     11  C   UNL     1       2.224   3.102  20.971  0.00  0.00    +0.000 A 
ATOM     12  C   UNL     1       3.114   3.688  20.069  0.00  0.00    +0.000 A 
BRANCH  11  13
ATOM     13  O   UNL     1       2.692   2.904  22.244  0.00  0.00    +0.000 OA
ATOM     14  H   UNL     1       3.277   3.647  22.458  0.00  0.00    +0.000 HD
ENDBRANCH  11  13
ENDBRANCH   5   7
BRANCH   4  15
ATOM     15  C   UNL     1       3.027   7.121  18.472  0.00  0.00    +0.000 C 
ATOM     16  O   UNL     1       2.618   6.850  19.597  0.00  0.00    +0.000 OA
ATOM     17  N   UNL     1       2.757   8.340  17.835  0.00  0.00    +0.000 N 
ATOM     18  H   UNL     1       2.798   8.370  16.828  0.00  0.00    +0.000 HD
BRANCH  17  19
ATOM     19  C   UNL     1       1.917   9.298  18.429  0.00  0.00    +0.000 A 
ATOM     20  C   UNL     1       2.001  10.631  18.035  0.00  0.00    +0.000 A 
ATOM     21  C   UNL     1       1.182  11.587  18.631  0.00  0.00    +0.000 A 
ATOM     22  C   UNL     1       0.286  11.214  19.638  0.00  0.00    +0.000 A 
ATOM     23  C   UNL     1       0.186   9.875  20.018  0.00  0.00    +0.000 A 
ATOM     24  C   UNL     1       0.981   8.905  19.384  0.00  0.00    +0.000 A 
BRANCH  22  25
ATOM     25  O   UNL     1      -0.535  12.083  20.317  0.00  0.00    +0.000 OA
BRANCH  25  26
ATOM     26  C   UNL     1      -1.433  12.809  19.473  0.00  0.00    +0.000 C 
BRANCH  26  27
ATOM     27  C   UNL     1      -2.742  12.026  19.319  0.00  0.00    +0.000 C 
BRANCH  27  28
ATOM     28  N   UNL     1      -3.151  11.831  17.909  0.00  0.00    +0.000 NA
ATOM     29  C   UNL     1      -4.207  10.815  17.810  0.00  0.00    +0.000 C 
ATOM     30  C   UNL     1      -3.457   9.494  17.724  0.00  0.00    +0.000 C 
ATOM     31  C   UNL     1      -2.261   9.838  16.861  0.00  0.00    +0.000 C 
ATOM     32  C   UNL     1      -2.071  11.341  17.031  0.00  0.00    +0.000 C 
ENDBRANCH  27  28
ENDBRANCH  26  27
ENDBRANCH  25  26
ENDBRANCH  22  25
ENDBRANCH  17  19
ENDBRANCH   4  15
BRANCH   1  34
ATOM     33  C   UNL     1       6.597   4.482  13.914  0.00  0.00    +0.000 C 
ATOM     34  O   UNL     1       6.214   3.807  15.106  0.00  0.00    +0.000 OA
ENDBRANCH   1  34
BRANCH   6  35
ATOM     35  O   UNL     1       4.468   2.503  16.973  0.00  0.00    +0.000 OA
ATOM     36  H   UNL     1       3.683   2.161  17.418  0.00  0.00    +0.000 HD
ENDBRANCH   6  35
TORSDOF 10
ENDMDL
MODEL 5
REMARK VINA RESULT:      -8.2      1.214      1.678
REMARK  Name = 
REMARK  11 active torsions:
REMARK  status: ('A' for Active; 'I' for Inactive)
REMARK    1  A    between atoms: C_1  and  O_2
REMARK    2  A    between atoms: O_2  and  C_3
REMARK    3  A    between atoms: C_6  and  C_7
REMARK    4  A    between atoms: N_9  and  C_10
REMARK    5  A    between atoms: C_13  and  O_14
REMARK    6  A    between atoms: O_14  and  C_15
REMARK    7  A    between atoms: C_15  and  C_16
REMARK    8  A    between atoms: C_16  and  N_17
REMARK    9  A    between atoms: C_24  and  C_25
REMARK   10  A    between atoms: C_29  and  O_30
REMARK   11  A    between atoms: C_32  and  O_33
REMARK                            x       y       z     vdW  Elec       q    Type
REMARK                         _______ _______ _______ _____ _____    ______ ____
ROOT
ATOM      1  C   UNL     1       5.586   4.725  16.241  0.00  0.00    +0.000 A 
ATOM      2  C   UNL     1       5.610   6.099  16.043  0.00  0.00    +0.000 A 
ATOM      3  C   UNL     1       4.722   6.928  16.716  0.00  0.00    +0.000 A 
ATOM      4  C   UNL     1       3.782   6.413  17.632  0.00  0.00    +0.000 A 
ATOM      5  C   UNL     1       3.705   4.998  17.857  0.00  0.00    +0.000 A 
ATOM      6  C   UNL     1       4.645   4.180  17.140  0.00  0.00    +0.000 A 
ENDROOT
BRANCH   5   7
ATOM      7  C   UNL     1       2.709   4.374  18.792  0.00  0.00    +0.000 A 
ATOM      8  C   UNL     1       1.417   4.008  18.372  0.00  0.00    +0.000 A 
ATOM      9  C   UNL     1       0.515   3.359  19.222  0.00  0.00    +0.000 A 
ATOM     10  C   UNL     1       0.833   3.164  20.562  0.00  0.00    +0.000 A 
ATOM     11  C   UNL     1       2.080   3.540  21.010  0.00  0.00    +0.000 A 
ATOM     12  C   UNL     1       3.014   4.108  20.142  0.00  0.00    +0.000 A 
BRANCH  11  13
ATOM     13  O   UNL     1       2.459   3.431  22.323  0.00  0.00    +0.000 OA
ATOM     14  H   UNL     1       2.048   2.626  22.678  0.00  0.00    +0.000 HD
ENDBRANCH  11  13
ENDBRANCH   5   7
BRANCH   4  15
ATOM     15  C   UNL     1       2.859   7.434  18.268  0.00  0.00    +0.000 C 
ATOM     16  O   UNL     1       2.413   7.255  19.396  0.00  0.00    +0.000 OA
ATOM     17  N   UNL     1       2.523   8.543  17.480  0.00  0.00    +0.000 N 
ATOM     18  H   UNL     1       2.618   8.463  16.480  0.00  0.00    +0.000 HD
BRANCH  17  19
ATOM     19  C   UNL     1       1.572   9.482  17.918  0.00  0.00    +0.000 A 
ATOM     20  C   UNL     1       0.215   9.214  17.768  0.00  0.00    +0.000 A 
ATOM     21  C   UNL     1      -0.731  10.147  18.187  0.00  0.00    +0.000 A 
ATOM     22  C   UNL     1      -0.319  11.363  18.743  0.00  0.00    +0.000 A 
ATOM     23  C   UNL     1       1.042  11.623  18.913  0.00  0.00    +0.000 A 
ATOM     24  C   UNL     1       1.992  10.661  18.530  0.00  0.00    +0.000 A 
BRANCH  22  25
ATOM     25  O   UNL     1      -1.167  12.365  19.149  0.00  0.00    +0.000 OA
BRANCH  25  26
ATOM     26  C   UNL     1      -2.528  11.950  19.294  0.00  0.00    +0.000 C 
BRANCH  26  27
ATOM     27  C   UNL     1      -3.165  12.678  20.483  0.00  0.00    +0.000 C 
BRANCH  27  28
ATOM     28  N   UNL     1      -2.185  13.106  21.508  0.00  0.00    +0.000 NA
ATOM     29  C   UNL     1      -1.914  12.016  22.455  0.00  0.00    +0.000 C 
ATOM     30  C   UNL     1      -3.002  12.149  23.510  0.00  0.00    +0.000 C 
ATOM     31  C   UNL     1      -3.143  13.649  23.664  0.00  0.00    +0.000 C 
ATOM     32  C   UNL     1      -2.642  14.230  22.347  0.00  0.00    +0.000 C 
ENDBRANCH  27  28
ENDBRANCH  26  27
ENDBRANCH  25  26
ENDBRANCH  22  25
ENDBRANCH  17  19
ENDBRANCH   4  15
BRANCH   1  34
ATOM     33  C   UNL     1       6.605   4.347  14.094  0.00  0.00    +0.000 C 
ATOM     34  O   UNL     1       6.530   4.076  15.488  0.00  0.00    +0.000 OA
ENDBRANCH   1  34
BRANCH   6  35
ATOM     35  O   UNL     1       4.697   2.814  17.300  0.00  0.00    +0.000 OA
ATOM     36  H   UNL     1       5.221   2.381  16.614  0.00  0.00    +0.000 HD
ENDBRANCH   6  35
TORSDOF 10
ENDMDL
MODEL 6
REMARK VINA RESULT:      -8.1      0.772      1.399
REMARK  Name = 
REMARK  11 active torsions:
REMARK  status: ('A' for Active; 'I' for Inactive)
REMARK    1  A    between atoms: C_1  and  O_2
REMARK    2  A    between atoms: O_2  and  C_3
REMARK    3  A    between atoms: C_6  and  C_7
REMARK    4  A    between atoms: N_9  and  C_10
REMARK    5  A    between atoms: C_13  and  O_14
REMARK    6  A    between atoms: O_14  and  C_15
REMARK    7  A    between atoms: C_15  and  C_16
REMARK    8  A    between atoms: C_16  and  N_17
REMARK    9  A    between atoms: C_24  and  C_25
REMARK   10  A    between atoms: C_29  and  O_30
REMARK   11  A    between atoms: C_32  and  O_33
REMARK                            x       y       z     vdW  Elec       q    Type
REMARK                         _______ _______ _______ _____ _____    ______ ____
ROOT
ATOM      1  C   UNL     1       5.546   4.620  16.154  0.00  0.00    +0.000 A 
ATOM      2  C   UNL     1       5.539   5.972  15.841  0.00  0.00    +0.000 A 
ATOM      3  C   UNL     1       4.698   6.851  16.513  0.00  0.00    +0.000 A 
ATOM      4  C   UNL     1       3.840   6.411  17.541  0.00  0.00    +0.000 A 
ATOM      5  C   UNL     1       3.797   5.019  17.887  0.00  0.00    +0.000 A 
ATOM      6  C   UNL     1       4.686   4.148  17.168  0.00  0.00    +0.000 A 
ENDROOT
BRANCH   5   7
ATOM      7  C   UNL     1       2.885   4.471  18.949  0.00  0.00    +0.000 A 
ATOM      8  C   UNL     1       3.149   4.643  20.320  0.00  0.00    +0.000 A 
ATOM      9  C   UNL     1       2.263   4.199  21.308  0.00  0.00    +0.000 A 
ATOM     10  C   UNL     1       1.140   3.457  20.959  0.00  0.00    +0.000 A 
ATOM     11  C   UNL     1       0.872   3.247  19.624  0.00  0.00    +0.000 A 
ATOM     12  C   UNL     1       1.708   3.764  18.633  0.00  0.00    +0.000 A 
BRANCH  11  13
ATOM     13  O   UNL     1      -0.184   2.486  19.191  0.00  0.00    +0.000 OA
ATOM     14  H   UNL     1      -0.182   2.511  18.221  0.00  0.00    +0.000 HD
ENDBRANCH  11  13
ENDBRANCH   5   7
BRANCH   4  15
ATOM     15  C   UNL     1       2.960   7.477  18.162  0.00  0.00    +0.000 C 
ATOM     16  O   UNL     1       2.517   7.338  19.298  0.00  0.00    +0.000 OA
ATOM     17  N   UNL     1       2.657   8.581  17.354  0.00  0.00    +0.000 N 
ATOM     18  H   UNL     1       2.741   8.477  16.355  0.00  0.00    +0.000 HD
BRANCH  17  19
ATOM     19  C   UNL     1       1.745   9.562  17.779  0.00  0.00    +0.000 A 
ATOM     20  C   UNL     1       2.210  10.808  18.190  0.00  0.00    +0.000 A 
ATOM     21  C   UNL     1       1.311  11.779  18.627  0.00  0.00    +0.000 A 
ATOM     22  C   UNL     1      -0.059  11.499  18.670  0.00  0.00    +0.000 A 
ATOM     23  C   UNL     1      -0.527  10.257  18.238  0.00  0.00    +0.000 A 
ATOM     24  C   UNL     1       0.377   9.295  17.756  0.00  0.00    +0.000 A 
BRANCH  22  25
ATOM     25  O   UNL     1      -1.022  12.369  19.121  0.00  0.00    +0.000 OA
BRANCH  25  26
ATOM     26  C   UNL     1      -0.805  12.831  20.457  0.00  0.00    +0.000 C 
BRANCH  26  27
ATOM     27  C   UNL     1      -1.400  11.828  21.452  0.00  0.00    +0.000 C 
BRANCH  27  28
ATOM     28  N   UNL     1      -0.422  11.335  22.450  0.00  0.00    +0.000 NA
ATOM     29  C   UNL     1       0.744  10.741  21.784  0.00  0.00    +0.000 C 
ATOM     30  C   UNL     1       0.344   9.294  21.535  0.00  0.00    +0.000 C 
ATOM     31  C   UNL     1      -0.434   8.937  22.784  0.00  0.00    +0.000 C 
ATOM     32  C   UNL     1      -0.941  10.268  23.327  0.00  0.00    +0.000 C 
ENDBRANCH  27  28
ENDBRANCH  26  27
ENDBRANCH  25  26
ENDBRANCH  22  25
ENDBRANCH  17  19
ENDBRANCH   4  15
BRANCH   1  34
ATOM     33  C   UNL     1       6.694   4.352  14.056  0.00  0.00    +0.000 C 
ATOM     34  O   UNL     1       6.433   3.914  15.384  0.00  0.00    +0.000 OA
ENDBRANCH   1  34
BRANCH   6  35
ATOM     35  O   UNL     1       4.765   2.800  17.436  0.00  0.00    +0.000 OA
ATOM     36  H   UNL     1       5.276   2.321  16.772  0.00  0.00    +0.000 HD
ENDBRANCH   6  35
TORSDOF 10
ENDMDL
MODEL 7
REMARK VINA RESULT:      -7.9      1.625      2.256
REMARK  Name = 
REMARK  11 active torsions:
REMARK  status: ('A' for Active; 'I' for Inactive)
REMARK    1  A    between atoms: C_1  and  O_2
REMARK    2  A    between atoms: O_2  and  C_3
REMARK    3  A    between atoms: C_6  and  C_7
REMARK    4  A    between atoms: N_9  and  C_10
REMARK    5  A    between atoms: C_13  and  O_14
REMARK    6  A    between atoms: O_14  and  C_15
REMARK    7  A    between atoms: C_15  and  C_16
REMARK    8  A    between atoms: C_16  and  N_17
REMARK    9  A    between atoms: C_24  and  C_25
REMARK   10  A    between atoms: C_29  and  O_30
REMARK   11  A    between atoms: C_32  and  O_33
REMARK                            x       y       z     vdW  Elec       q    Type
REMARK                         _______ _______ _______ _____ _____    ______ ____
ROOT
ATOM      1  C   UNL     1       5.536   4.977  16.231  0.00  0.00    +0.000 A 
ATOM      2  C   UNL     1       5.467   6.362  16.185  0.00  0.00    +0.000 A 
ATOM      3  C   UNL     1       4.535   7.052  16.950  0.00  0.00    +0.000 A 
ATOM      4  C   UNL     1       3.642   6.379  17.808  0.00  0.00    +0.000 A 
ATOM      5  C   UNL     1       3.660   4.946  17.876  0.00  0.00    +0.000 A 
ATOM      6  C   UNL     1       4.643   4.275  17.069  0.00  0.00    +0.000 A 
ENDROOT
BRANCH   5   7
ATOM      7  C   UNL     1       2.719   4.158  18.742  0.00  0.00    +0.000 A 
ATOM      8  C   UNL     1       1.469   3.713  18.273  0.00  0.00    +0.000 A 
ATOM      9  C   UNL     1       0.624   2.916  19.054  0.00  0.00    +0.000 A 
ATOM     10  C   UNL     1       0.948   2.640  20.378  0.00  0.00    +0.000 A 
ATOM     11  C   UNL     1       2.153   3.088  20.873  0.00  0.00    +0.000 A 
ATOM     12  C   UNL     1       3.037   3.809  20.069  0.00  0.00    +0.000 A 
BRANCH  11  13
ATOM     13  O   UNL     1       2.531   2.904  22.178  0.00  0.00    +0.000 OA
ATOM     14  H   UNL     1       3.443   2.573  22.173  0.00  0.00    +0.000 HD
ENDBRANCH  11  13
ENDBRANCH   5   7
BRANCH   4  15
ATOM     15  C   UNL     1       2.662   7.260  18.557  0.00  0.00    +0.000 C 
ATOM     16  O   UNL     1       2.234   6.924  19.657  0.00  0.00    +0.000 OA
ATOM     17  N   UNL     1       2.253   8.430  17.903  0.00  0.00    +0.000 N 
ATOM     18  H   UNL     1       2.347   8.473  16.900  0.00  0.00    +0.000 HD
BRANCH  17  19
ATOM     19  C   UNL     1       1.249   9.251  18.446  0.00  0.00    +0.000 A 
ATOM     20  C   UNL     1       1.438   9.842  19.692  0.00  0.00    +0.000 A 
ATOM     21  C   UNL     1       0.440  10.644  20.241  0.00  0.00    +0.000 A 
ATOM     22  C   UNL     1      -0.760  10.844  19.550  0.00  0.00    +0.000 A 
ATOM     23  C   UNL     1      -0.940  10.269  18.291  0.00  0.00    +0.000 A 
ATOM     24  C   UNL     1       0.085   9.497  17.720  0.00  0.00    +0.000 A 
BRANCH  22  25
ATOM     25  O   UNL     1      -1.820  11.582  20.019  0.00  0.00    +0.000 OA
BRANCH  25  26
ATOM     26  C   UNL     1      -1.459  12.550  21.009  0.00  0.00    +0.000 C 
BRANCH  26  27
ATOM     27  C   UNL     1      -2.160  12.219  22.332  0.00  0.00    +0.000 C 
BRANCH  27  28
ATOM     28  N   UNL     1      -3.361  13.048  22.588  0.00  0.00    +0.000 NA
ATOM     29  C   UNL     1      -3.073  14.468  22.345  0.00  0.00    +0.000 C 
ATOM     30  C   UNL     1      -2.505  14.972  23.663  0.00  0.00    +0.000 C 
ATOM     31  C   UNL     1      -3.340  14.242  24.694  0.00  0.00    +0.000 C 
ATOM     32  C   UNL     1      -3.845  12.994  23.980  0.00  0.00    +0.000 C 
ENDBRANCH  27  28
ENDBRANCH  26  27
ENDBRANCH  25  26
ENDBRANCH  22  25
ENDBRANCH  17  19
ENDBRANCH   4  15
BRANCH   1  34
ATOM     33  C   UNL     1       6.159   4.074  14.088  0.00  0.00    +0.000 C 
ATOM     34  O   UNL     1       6.510   4.479  15.406  0.00  0.00    +0.000 OA
ENDBRANCH   1  34
BRANCH   6  35
ATOM     35  O   UNL     1       4.786   2.906  17.077  0.00  0.00    +0.000 OA
ATOM     36  H   UNL     1       3.962   2.447  16.875  0.00  0.00    +0.000 HD
ENDBRANCH   6  35
TORSDOF 10
ENDMDL
MODEL 8
REMARK VINA RESULT:      -7.9      1.886      2.683
REMARK  Name = 
REMARK  11 active torsions:
REMARK  status: ('A' for Active; 'I' for Inactive)
REMARK    1  A    between atoms: C_1  and  O_2
REMARK    2  A    between atoms: O_2  and  C_3
REMARK    3  A    between atoms: C_6  and  C_7
REMARK    4  A    between atoms: N_9  and  C_10
REMARK    5  A    between atoms: C_13  and  O_14
REMARK    6  A    between atoms: O_14  and  C_15
REMARK    7  A    between atoms: C_15  and  C_16
REMARK    8  A    between atoms: C_16  and  N_17
REMARK    9  A    between atoms: C_24  and  C_25
REMARK   10  A    between atoms: C_29  and  O_30
REMARK   11  A    between atoms: C_32  and  O_33
REMARK                            x       y       z     vdW  Elec       q    Type
REMARK                         _______ _______ _______ _____ _____    ______ ____
ROOT
ATOM      1  C   UNL     1       5.726   5.244  16.603  0.00  0.00    +0.000 A 
ATOM      2  C   UNL     1       5.559   6.615  16.463  0.00  0.00    +0.000 A 
ATOM      3  C   UNL     1       4.489   7.264  17.066  0.00  0.00    +0.000 A 
ATOM      4  C   UNL     1       3.550   6.565  17.850  0.00  0.00    +0.000 A 
ATOM      5  C   UNL     1       3.668   5.144  18.009  0.00  0.00    +0.000 A 
ATOM      6  C   UNL     1       4.793   4.516  17.369  0.00  0.00    +0.000 A 
ENDROOT
BRANCH   5   7
ATOM      7  C   UNL     1       2.689   4.327  18.802  0.00  0.00    +0.000 A 
ATOM      8  C   UNL     1       1.544   3.757  18.216  0.00  0.00    +0.000 A 
ATOM      9  C   UNL     1       0.671   2.934  18.937  0.00  0.00    +0.000 A 
ATOM     10  C   UNL     1       0.848   2.754  20.305  0.00  0.00    +0.000 A 
ATOM     11  C   UNL     1       1.945   3.325  20.913  0.00  0.00    +0.000 A 
ATOM     12  C   UNL     1       2.865   4.074  20.177  0.00  0.00    +0.000 A 
BRANCH  11  13
ATOM     13  O   UNL     1       2.170   3.241  22.262  0.00  0.00    +0.000 OA
ATOM     14  H   UNL     1       2.701   4.012  22.517  0.00  0.00    +0.000 HD
ENDBRANCH  11  13
ENDBRANCH   5   7
BRANCH   4  15
ATOM     15  C   UNL     1       2.420   7.400  18.420  0.00  0.00    +0.000 C 
ATOM     16  O   UNL     1       1.591   7.919  17.678  0.00  0.00    +0.000 OA
ATOM     17  N   UNL     1       2.416   7.573  19.810  0.00  0.00    +0.000 N 
ATOM     18  H   UNL     1       3.280   7.438  20.310  0.00  0.00    +0.000 HD
BRANCH  17  19
ATOM     19  C   UNL     1       1.494   8.434  20.431  0.00  0.00    +0.000 A 
ATOM     20  C   UNL     1       0.852   8.036  21.600  0.00  0.00    +0.000 A 
ATOM     21  C   UNL     1      -0.073   8.879  22.210  0.00  0.00    +0.000 A 
ATOM     22  C   UNL     1      -0.372  10.121  21.641  0.00  0.00    +0.000 A 
ATOM     23  C   UNL     1       0.287  10.531  20.481  0.00  0.00    +0.000 A 
ATOM     24  C   UNL     1       1.252   9.697  19.892  0.00  0.00    +0.000 A 
BRANCH  22  25
ATOM     25  O   UNL     1      -1.296  11.009  22.139  0.00  0.00    +0.000 OA
BRANCH  25  26
ATOM     26  C   UNL     1      -1.044  12.370  21.781  0.00  0.00    +0.000 C 
BRANCH  26  27
ATOM     27  C   UNL     1      -2.369  13.075  21.469  0.00  0.00    +0.000 C 
BRANCH  27  28
ATOM     28  N   UNL     1      -2.672  14.197  22.388  0.00  0.00    +0.000 NA
ATOM     29  C   UNL     1      -2.441  13.802  23.783  0.00  0.00    +0.000 C 
ATOM     30  C   UNL     1      -3.748  13.157  24.219  0.00  0.00    +0.000 C 
ATOM     31  C   UNL     1      -4.794  14.019  23.542  0.00  0.00    +0.000 C 
ATOM     32  C   UNL     1      -4.078  14.644  22.350  0.00  0.00    +0.000 C 
ENDBRANCH  27  28
ENDBRANCH  26  27
ENDBRANCH  25  26
ENDBRANCH  22  25
ENDBRANCH  17  19
ENDBRANCH   4  15
BRANCH   1  34
ATOM     33  C   UNL     1       6.769   4.634  14.521  0.00  0.00    +0.000 C 
ATOM     34  O   UNL     1       6.832   4.787  15.934  0.00  0.00    +0.000 OA
ENDBRANCH   1  34
BRANCH   6  35
ATOM     35  O   UNL     1       5.037   3.166  17.479  0.00  0.00    +0.000 OA
ATOM     36  H   UNL     1       4.533   2.646  16.842  0.00  0.00    +0.000 HD
ENDBRANCH   6  35
TORSDOF 10
ENDMDL
MODEL 9
REMARK VINA RESULT:      -7.8      1.759      2.500
REMARK  Name = 
REMARK  11 active torsions:
REMARK  status: ('A' for Active; 'I' for Inactive)
REMARK    1  A    between atoms: C_1  and  O_2
REMARK    2  A    between atoms: O_2  and  C_3
REMARK    3  A    between atoms: C_6  and  C_7
REMARK    4  A    between atoms: N_9  and  C_10
REMARK    5  A    between atoms: C_13  and  O_14
REMARK    6  A    between atoms: O_14  and  C_15
REMARK    7  A    between atoms: C_15  and  C_16
REMARK    8  A    between atoms: C_16  and  N_17
REMARK    9  A    between atoms: C_24  and  C_25
REMARK   10  A    between atoms: C_29  and  O_30
REMARK   11  A    between atoms: C_32  and  O_33
REMARK                            x       y       z     vdW  Elec       q    Type
REMARK                         _______ _______ _______ _____ _____    ______ ____
ROOT
ATOM      1  C   UNL     1       5.609   4.946  16.124  0.00  0.00    +0.000 A 
ATOM      2  C   UNL     1       5.547   6.332  16.117  0.00  0.00    +0.000 A 
ATOM      3  C   UNL     1       4.635   7.005  16.921  0.00  0.00    +0.000 A 
ATOM      4  C   UNL     1       3.758   6.313  17.779  0.00  0.00    +0.000 A 
ATOM      5  C   UNL     1       3.770   4.878  17.808  0.00  0.00    +0.000 A 
ATOM      6  C   UNL     1       4.732   4.226  16.961  0.00  0.00    +0.000 A 
ENDROOT
BRANCH   5   7
ATOM      7  C   UNL     1       2.844   4.071  18.672  0.00  0.00    +0.000 A 
ATOM      8  C   UNL     1       1.548   3.718  18.252  0.00  0.00    +0.000 A 
ATOM      9  C   UNL     1       0.713   2.904  19.025  0.00  0.00    +0.000 A 
ATOM     10  C   UNL     1       1.100   2.517  20.303  0.00  0.00    +0.000 A 
ATOM     11  C   UNL     1       2.352   2.873  20.754  0.00  0.00    +0.000 A 
ATOM     12  C   UNL     1       3.221   3.612  19.950  0.00  0.00    +0.000 A 
BRANCH  11  13
ATOM     13  O   UNL     1       2.796   2.577  22.016  0.00  0.00    +0.000 OA
ATOM     14  H   UNL     1       3.097   1.654  22.010  0.00  0.00    +0.000 HD
ENDBRANCH  11  13
ENDBRANCH   5   7
BRANCH   4  15
ATOM     15  C   UNL     1       2.799   7.178  18.574  0.00  0.00    +0.000 C 
ATOM     16  O   UNL     1       2.484   6.872  19.719  0.00  0.00    +0.000 OA
ATOM     17  N   UNL     1       2.274   8.294  17.910  0.00  0.00    +0.000 N 
ATOM     18  H   UNL     1       2.281   8.296  16.902  0.00  0.00    +0.000 HD
BRANCH  17  19
ATOM     19  C   UNL     1       1.278   9.089  18.503  0.00  0.00    +0.000 A 
ATOM     20  C   UNL     1       0.224   9.570  17.731  0.00  0.00    +0.000 A 
ATOM     21  C   UNL     1      -0.757  10.370  18.311  0.00  0.00    +0.000 A 
ATOM     22  C   UNL     1      -0.678  10.706  19.666  0.00  0.00    +0.000 A 
ATOM     23  C   UNL     1       0.366  10.206  20.446  0.00  0.00    +0.000 A 
ATOM     24  C   UNL     1       1.331   9.363  19.869  0.00  0.00    +0.000 A 
BRANCH  22  25
ATOM     25  O   UNL     1      -1.569  11.519  20.325  0.00  0.00    +0.000 OA
BRANCH  25  26
ATOM     26  C   UNL     1      -2.370  12.325  19.455  0.00  0.00    +0.000 C 
BRANCH  26  27
ATOM     27  C   UNL     1      -3.705  12.649  20.137  0.00  0.00    +0.000 C 
BRANCH  27  28
ATOM     28  N   UNL     1      -3.584  12.868  21.597  0.00  0.00    +0.000 NA
ATOM     29  C   UNL     1      -4.901  12.801  22.243  0.00  0.00    +0.000 C 
ATOM     30  C   UNL     1      -5.455  14.213  22.127  0.00  0.00    +0.000 C 
ATOM     31  C   UNL     1      -4.231  15.077  22.349  0.00  0.00    +0.000 C 
ATOM     32  C   UNL     1      -3.050  14.193  21.966  0.00  0.00    +0.000 C 
ENDBRANCH  27  28
ENDBRANCH  26  27
ENDBRANCH  25  26
ENDBRANCH  22  25
ENDBRANCH  17  19
ENDBRANCH   4  15
BRANCH   1  34
ATOM     33  C   UNL     1       6.167   4.026  13.970  0.00  0.00    +0.000 C 
ATOM     34  O   UNL     1       6.563   4.466  15.264  0.00  0.00    +0.000 OA
ENDBRANCH   1  34
BRANCH   6  35
ATOM     35  O   UNL     1       4.868   2.856  16.929  0.00  0.00    +0.000 OA
ATOM     36  H   UNL     1       4.646   2.443  17.772  0.00  0.00    +0.000 HD
ENDBRANCH   6  35
TORSDOF 10
ENDMDL
