MODEL 1
REMARK VINA RESULT:      -8.3      0.000      0.000
REMARK  Name = 
REMARK  9 active torsions:
REMARK  status: ('A' for Active; 'I' for Inactive)
REMARK    1  A    between atoms: C_1  and  C_2
REMARK    2  A    between atoms: C_4  and  C_5
REMARK    3  A    between atoms: N_8  and  S_9
REMARK    4  A    between atoms: S_9  and  C_12
REMARK    5  A    between atoms: C_15  and  N_16
REMARK    6  A    between atoms: C_19  and  C_20
REMARK    7  A    between atoms: C_23  and  C_24
REMARK    8  A    between atoms: C_24  and  C_25
REMARK    9  A    between atoms: C_24  and  C_26
REMARK                            x       y       z     vdW  Elec       q    Type
REMARK                         _______ _______ _______ _____ _____    ______ ____
ROOT
ATOM      1  C   UNL     1       5.237  15.535  18.833  0.00  0.00    +0.000 A 
ATOM      2  C   UNL     1       4.648  15.209  20.056  0.00  0.00    +0.000 A 
ATOM      3  C   UNL     1       3.335  14.730  20.084  0.00  0.00    +0.000 A 
ATOM      4  C   UNL     1       2.579  14.602  18.905  0.00  0.00    +0.000 A 
ATOM      5  C   UNL     1       3.198  14.937  17.692  0.00  0.00    +0.000 A 
ATOM      6  C   UNL     1       4.511  15.415  17.649  0.00  0.00    +0.000 A 
ENDROOT
BRANCH   4   7
ATOM      7  N   UNL     1       1.238  14.175  19.008  0.00  0.00    +0.000 N 
ATOM      8  C   UNL     1       0.788  12.896  18.956  0.00  0.00    +0.000 A 
ATOM      9  N   UNL     1       1.488  11.805  19.157  0.00  0.00    +0.000 NA
ATOM     10  C   UNL     1       0.728  10.667  18.964  0.00  0.00    +0.000 A 
ATOM     11  C   UNL     1      -0.575  10.910  18.584  0.00  0.00    +0.000 A 
ATOM     12  S   UNL     1      -0.867  12.600  18.551  0.00  0.00    +0.000 S 
ATOM     13  H   UNL     1       0.558  14.891  18.786  0.00  0.00    +0.000 HD
BRANCH  10  14
ATOM     14  C   UNL     1       1.319   9.346  19.140  0.00  0.00    +0.000 A 
ATOM     15  C   UNL     1       1.962   8.676  18.094  0.00  0.00    +0.000 A 
ATOM     16  C   UNL     1       2.507   7.402  18.293  0.00  0.00    +0.000 A 
ATOM     17  C   UNL     1       2.422   6.768  19.539  0.00  0.00    +0.000 A 
ATOM     18  C   UNL     1       1.765   7.431  20.582  0.00  0.00    +0.000 A 
ATOM     19  C   UNL     1       1.220   8.705  20.384  0.00  0.00    +0.000 A 
BRANCH  17  20
ATOM     20  C   UNL     1       3.057   5.401  19.736  0.00  0.00    +0.000 C 
ATOM     21  C   UNL     1       2.244   4.549  20.715  0.00  0.00    +0.000 C 
ATOM     22  C   UNL     1       3.263   4.665  18.411  0.00  0.00    +0.000 C 
ENDBRANCH  17  20
ENDBRANCH  10  14
ENDBRANCH   4   7
BRANCH   1  23
ATOM     23  S   UNL     1       6.905  16.157  18.786  0.00  0.00    +0.000 S 
ATOM     24  O   UNL     1       6.836  17.601  18.852  0.00  0.00    +0.000 OA
ATOM     25  O   UNL     1       7.560  15.503  17.668  0.00  0.00    +0.000 OA
BRANCH  23  33
ATOM     26  C   UNL     1       9.664  11.303  19.467  0.00  0.00    +0.000 C 
ATOM     27  C   UNL     1       9.789  12.791  19.602  0.00  0.00    +0.000 A 
ATOM     28  C   UNL     1      11.029  13.405  19.602  0.00  0.00    +0.000 A 
ATOM     29  C   UNL     1      11.045  14.774  19.789  0.00  0.00    +0.000 A 
ATOM     30  C   UNL     1      12.332  15.540  19.768  0.00  0.00    +0.000 C 
ATOM     31  N   UNL     1       9.917  15.485  19.988  0.00  0.00    +0.000 NA
ATOM     32  C   UNL     1       8.777  14.792  19.944  0.00  0.00    +0.000 A 
ATOM     33  N   UNL     1       7.624  15.540  20.165  0.00  0.00    +0.000 N 
ATOM     34  N   UNL     1       8.643  13.484  19.749  0.00  0.00    +0.000 NA
ATOM     35  H   UNL     1       7.797  16.279  20.837  0.00  0.00    +0.000 HD
ENDBRANCH  23  33
ENDBRANCH   1  23
TORSDOF 5
ENDMDL
MODEL 2
REMARK VINA RESULT:      -8.2      6.096      9.196
REMARK  Name = 
REMARK  9 active torsions:
REMARK  status: ('A' for Active; 'I' for Inactive)
REMARK    1  A    between atoms: C_1  and  C_2
REMARK    2  A    between atoms: C_4  and  C_5
REMARK    3  A    between atoms: N_8  and  S_9
REMARK    4  A    between atoms: S_9  and  C_12
REMARK    5  A    between atoms: C_15  and  N_16
REMARK    6  A    between atoms: C_19  and  C_20
REMARK    7  A    between atoms: C_23  and  C_24
REMARK    8  A    between atoms: C_24  and  C_25
REMARK    9  A    between atoms: C_24  and  C_26
REMARK                            x       y       z     vdW  Elec       q    Type
REMARK                         _______ _______ _______ _____ _____    ______ ____
ROOT
ATOM      1  C   UNL     1       2.265   5.665  18.661  0.00  0.00    +0.000 A 
ATOM      2  C   UNL     1       2.188   6.218  19.941  0.00  0.00    +0.000 A 
ATOM      3  C   UNL     1       2.124   7.606  20.090  0.00  0.00    +0.000 A 
ATOM      4  C   UNL     1       2.170   8.464  18.977  0.00  0.00    +0.000 A 
ATOM      5  C   UNL     1       2.248   7.879  17.705  0.00  0.00    +0.000 A 
ATOM      6  C   UNL     1       2.310   6.493  17.540  0.00  0.00    +0.000 A 
ENDROOT
BRANCH   4   7
ATOM      7  N   UNL     1       2.167   9.858  19.200  0.00  0.00    +0.000 N 
ATOM      8  C   UNL     1       1.122  10.704  19.024  0.00  0.00    +0.000 A 
ATOM      9  N   UNL     1      -0.149  10.387  18.965  0.00  0.00    +0.000 NA
ATOM     10  C   UNL     1      -0.941  11.491  18.713  0.00  0.00    +0.000 A 
ATOM     11  C   UNL     1      -0.241  12.669  18.555  0.00  0.00    +0.000 A 
ATOM     12  S   UNL     1       1.432  12.393  18.811  0.00  0.00    +0.000 S 
ATOM     13  H   UNL     1       3.087  10.281  19.181  0.00  0.00    +0.000 HD
BRANCH  10  14
ATOM     14  C   UNL     1      -2.389  11.354  18.611  0.00  0.00    +0.000 A 
ATOM     15  C   UNL     1      -2.986  10.392  17.789  0.00  0.00    +0.000 A 
ATOM     16  C   UNL     1      -4.380  10.296  17.704  0.00  0.00    +0.000 A 
ATOM     17  C   UNL     1      -5.208  11.157  18.434  0.00  0.00    +0.000 A 
ATOM     18  C   UNL     1      -4.612  12.130  19.245  0.00  0.00    +0.000 A 
ATOM     19  C   UNL     1      -3.217  12.226  19.331  0.00  0.00    +0.000 A 
BRANCH  17  20
ATOM     20  C   UNL     1      -6.718  11.003  18.351  0.00  0.00    +0.000 C 
ATOM     21  C   UNL     1      -7.200   9.814  19.188  0.00  0.00    +0.000 C 
ATOM     22  C   UNL     1      -7.452  12.285  18.750  0.00  0.00    +0.000 C 
ENDBRANCH  17  20
ENDBRANCH  10  14
ENDBRANCH   4   7
BRANCH   1  23
ATOM     23  S   UNL     1       2.359   3.899  18.458  0.00  0.00    +0.000 S 
ATOM     24  O   UNL     1       1.816   3.578  17.155  0.00  0.00    +0.000 OA
ATOM     25  O   UNL     1       1.787   3.313  19.656  0.00  0.00    +0.000 OA
BRANCH  23  33
ATOM     26  C   UNL     1       6.078   3.710  14.243  0.00  0.00    +0.000 C 
ATOM     27  C   UNL     1       5.779   4.361  15.559  0.00  0.00    +0.000 A 
ATOM     28  C   UNL     1       6.339   5.581  15.893  0.00  0.00    +0.000 A 
ATOM     29  C   UNL     1       6.049   6.076  17.152  0.00  0.00    +0.000 A 
ATOM     30  C   UNL     1       6.574   7.405  17.597  0.00  0.00    +0.000 C 
ATOM     31  N   UNL     1       5.280   5.399  18.028  0.00  0.00    +0.000 NA
ATOM     32  C   UNL     1       4.775   4.245  17.589  0.00  0.00    +0.000 A 
ATOM     33  N   UNL     1       3.995   3.554  18.513  0.00  0.00    +0.000 N 
ATOM     34  N   UNL     1       4.967   3.688  16.398  0.00  0.00    +0.000 NA
ATOM     35  H   UNL     1       4.353   3.679  19.453  0.00  0.00    +0.000 HD
ENDBRANCH  23  33
ENDBRANCH   1  23
TORSDOF 5
ENDMDL
MODEL 3
REMARK VINA RESULT:      -8.2      4.756      7.692
REMARK  Name = 
REMARK  9 active torsions:
REMARK  status: ('A' for Active; 'I' for Inactive)
REMARK    1  A    between atoms: C_1  and  C_2
REMARK    2  A    between atoms: C_4  and  C_5
REMARK    3  A    between atoms: N_8  and  S_9
REMARK    4  A    between atoms: S_9  and  C_12
REMARK    5  A    between atoms: C_15  and  N_16
REMARK    6  A    between atoms: C_19  and  C_20
REMARK    7  A    between atoms: C_23  and  C_24
REMARK    8  A    between atoms: C_24  and  C_25
REMARK    9  A    between atoms: C_24  and  C_26
REMARK                            x       y       z     vdW  Elec       q    Type
REMARK                         _______ _______ _______ _____ _____    ______ ____
ROOT
ATOM      1  C   UNL     1      -0.099  10.516  19.762  0.00  0.00    +0.000 A 
ATOM      2  C   UNL     1      -0.562   9.928  20.941  0.00  0.00    +0.000 A 
ATOM      3  C   UNL     1       0.033   8.752  21.406  0.00  0.00    +0.000 A 
ATOM      4  C   UNL     1       1.070   8.127  20.692  0.00  0.00    +0.000 A 
ATOM      5  C   UNL     1       1.514   8.741  19.512  0.00  0.00    +0.000 A 
ATOM      6  C   UNL     1       0.930   9.918  19.036  0.00  0.00    +0.000 A 
ENDROOT
BRANCH   4   7
ATOM      7  N   UNL     1       1.584   6.907  21.181  0.00  0.00    +0.000 N 
ATOM      8  C   UNL     1       2.260   5.970  20.471  0.00  0.00    +0.000 A 
ATOM      9  N   UNL     1       2.875   6.140  19.324  0.00  0.00    +0.000 NA
ATOM     10  C   UNL     1       3.408   4.957  18.849  0.00  0.00    +0.000 A 
ATOM     11  C   UNL     1       3.166   3.861  19.651  0.00  0.00    +0.000 A 
ATOM     12  S   UNL     1       2.327   4.347  21.066  0.00  0.00    +0.000 S 
ATOM     13  H   UNL     1       1.139   6.581  22.030  0.00  0.00    +0.000 HD
BRANCH  10  14
ATOM     14  C   UNL     1       4.135   4.929  17.586  0.00  0.00    +0.000 A 
ATOM     15  C   UNL     1       4.512   3.729  16.974  0.00  0.00    +0.000 A 
ATOM     16  C   UNL     1       5.221   3.738  15.766  0.00  0.00    +0.000 A 
ATOM     17  C   UNL     1       5.570   4.944  15.145  0.00  0.00    +0.000 A 
ATOM     18  C   UNL     1       5.207   6.145  15.765  0.00  0.00    +0.000 A 
ATOM     19  C   UNL     1       4.498   6.136  16.972  0.00  0.00    +0.000 A 
BRANCH  17  20
ATOM     20  C   UNL     1       6.307   4.922  13.815  0.00  0.00    +0.000 C 
ATOM     21  C   UNL     1       7.804   5.177  14.008  0.00  0.00    +0.000 C 
ATOM     22  C   UNL     1       6.069   3.621  13.046  0.00  0.00    +0.000 C 
ENDBRANCH  17  20
ENDBRANCH  10  14
ENDBRANCH   4   7
BRANCH   1  23
ATOM     23  S   UNL     1      -0.857  12.008  19.153  0.00  0.00    +0.000 S 
ATOM     24  O   UNL     1      -1.195  12.827  20.298  0.00  0.00    +0.000 OA
ATOM     25  O   UNL     1      -1.886  11.597  18.216  0.00  0.00    +0.000 OA
BRANCH  23  33
ATOM     26  C   UNL     1       0.531  17.451  18.865  0.00  0.00    +0.000 C 
ATOM     27  C   UNL     1       1.067  16.083  19.165  0.00  0.00    +0.000 A 
ATOM     28  C   UNL     1       2.199  15.917  19.942  0.00  0.00    +0.000 A 
ATOM     29  C   UNL     1       2.650  14.622  20.117  0.00  0.00    +0.000 A 
ATOM     30  C   UNL     1       3.845  14.329  20.971  0.00  0.00    +0.000 C 
ATOM     31  N   UNL     1       2.039  13.566  19.541  0.00  0.00    +0.000 NA
ATOM     32  C   UNL     1       0.942  13.843  18.834  0.00  0.00    +0.000 A 
ATOM     33  N   UNL     1       0.334  12.743  18.236  0.00  0.00    +0.000 N 
ATOM     34  N   UNL     1       0.409  15.042  18.620  0.00  0.00    +0.000 NA
ATOM     35  H   UNL     1       1.025  12.063  17.941  0.00  0.00    +0.000 HD
ENDBRANCH  23  33
ENDBRANCH   1  23
TORSDOF 5
ENDMDL
MODEL 4
REMARK VINA RESULT:      -8.2      6.659      9.737
REMARK  Name = 
REMARK  9 active torsions:
REMARK  status: ('A' for Active; 'I' for Inactive)
REMARK    1  A    between atoms: C_1  and  C_2
REMARK    2  A    between atoms: C_4  and  C_5
REMARK    3  A    between atoms: N_8  and  S_9
REMARK    4  A    between atoms: S_9  and  C_12
REMARK    5  A    between atoms: C_15  and  N_16
REMARK    6  A    between atoms: C_19  and  C_20
REMARK    7  A    between atoms: C_23  and  C_24
REMARK    8  A    between atoms: C_24  and  C_25
REMARK    9  A    between atoms: C_24  and  C_26
REMARK                            x       y       z     vdW  Elec       q    Type
REMARK                         _______ _______ _______ _____ _____    ______ ____
ROOT
ATOM      1  C   UNL     1       1.933   4.592  19.137  0.00  0.00    +0.000 A 
ATOM      2  C   UNL     1       2.011   5.281  20.350  0.00  0.00    +0.000 A 
ATOM      3  C   UNL     1       2.125   6.674  20.347  0.00  0.00    +0.000 A 
ATOM      4  C   UNL     1       2.199   7.398  19.144  0.00  0.00    +0.000 A 
ATOM      5  C   UNL     1       2.119   6.679  17.942  0.00  0.00    +0.000 A 
ATOM      6  C   UNL     1       2.002   5.286  17.930  0.00  0.00    +0.000 A 
ENDROOT
BRANCH   4   7
ATOM      7  N   UNL     1       2.380   8.796  19.209  0.00  0.00    +0.000 N 
ATOM      8  C   UNL     1       1.455   9.747  18.928  0.00  0.00    +0.000 A 
ATOM      9  N   UNL     1       0.152   9.594  18.892  0.00  0.00    +0.000 NA
ATOM     10  C   UNL     1      -0.489  10.757  18.510  0.00  0.00    +0.000 A 
ATOM     11  C   UNL     1       0.358  11.808  18.229  0.00  0.00    +0.000 A 
ATOM     12  S   UNL     1       1.982  11.345  18.531  0.00  0.00    +0.000 S 
ATOM     13  H   UNL     1       3.347   9.091  19.152  0.00  0.00    +0.000 HD
BRANCH  10  14
ATOM     14  C   UNL     1      -1.943  10.799  18.409  0.00  0.00    +0.000 A 
ATOM     15  C   UNL     1      -2.665   9.834  17.699  0.00  0.00    +0.000 A 
ATOM     16  C   UNL     1      -4.060   9.912  17.611  0.00  0.00    +0.000 A 
ATOM     17  C   UNL     1      -4.765  10.955  18.225  0.00  0.00    +0.000 A 
ATOM     18  C   UNL     1      -4.042  11.930  18.921  0.00  0.00    +0.000 A 
ATOM     19  C   UNL     1      -2.646  11.852  19.011  0.00  0.00    +0.000 A 
BRANCH  17  20
ATOM     20  C   UNL     1      -6.282  10.991  18.144  0.00  0.00    +0.000 C 
ATOM     21  C   UNL     1      -6.917  10.616  19.486  0.00  0.00    +0.000 C 
ATOM     22  C   UNL     1      -6.801  12.344  17.653  0.00  0.00    +0.000 C 
ENDBRANCH  17  20
ENDBRANCH  10  14
ENDBRANCH   4   7
BRANCH   1  23
ATOM     23  S   UNL     1       1.799   2.817  19.129  0.00  0.00    +0.000 S 
ATOM     24  O   UNL     1       0.916   2.450  18.041  0.00  0.00    +0.000 OA
ATOM     25  O   UNL     1       1.492   2.418  20.489  0.00  0.00    +0.000 OA
BRANCH  23  33
ATOM     26  C   UNL     1       5.252   4.147  14.893  0.00  0.00    +0.000 C 
ATOM     27  C   UNL     1       5.123   4.137  16.386  0.00  0.00    +0.000 A 
ATOM     28  C   UNL     1       5.894   4.974  17.173  0.00  0.00    +0.000 A 
ATOM     29  C   UNL     1       5.745   4.853  18.543  0.00  0.00    +0.000 A 
ATOM     30  C   UNL     1       6.505   5.736  19.482  0.00  0.00    +0.000 C 
ATOM     31  N   UNL     1       4.911   3.949  19.096  0.00  0.00    +0.000 NA
ATOM     32  C   UNL     1       4.199   3.213  18.240  0.00  0.00    +0.000 A 
ATOM     33  N   UNL     1       3.354   2.277  18.830  0.00  0.00    +0.000 N 
ATOM     34  N   UNL     1       4.245   3.261  16.913  0.00  0.00    +0.000 NA
ATOM     35  H   UNL     1       3.767   1.899  19.674  0.00  0.00    +0.000 HD
ENDBRANCH  23  33
ENDBRANCH   1  23
TORSDOF 5
ENDMDL
MODEL 5
REMARK VINA RESULT:      -8.2      0.883      2.120
REMARK  Name = 
REMARK  9 active torsions:
REMARK  status: ('A' for Active; 'I' for Inactive)
REMARK    1  A    between atoms: C_1  and  C_2
REMARK    2  A    between atoms: C_4  and  C_5
REMARK    3  A    between atoms: N_8  and  S_9
REMARK    4  A    between atoms: S_9  and  C_12
REMARK    5  A    between atoms: C_15  and  N_16
REMARK    6  A    between atoms: C_19  and  C_20
REMARK    7  A    between atoms: C_23  and  C_24
REMARK    8  A    between atoms: C_24  and  C_25
REMARK    9  A    between atoms: C_24  and  C_26
REMARK                            x       y       z     vdW  Elec       q    Type
REMARK                         _______ _______ _______ _____ _____    ______ ____
ROOT
ATOM      1  C   UNL     1       5.138  15.548  19.208  0.00  0.00    +0.000 A 
ATOM      2  C   UNL     1       4.333  15.717  18.080  0.00  0.00    +0.000 A 
ATOM      3  C   UNL     1       2.997  15.308  18.117  0.00  0.00    +0.000 A 
ATOM      4  C   UNL     1       2.452  14.696  19.260  0.00  0.00    +0.000 A 
ATOM      5  C   UNL     1       3.286  14.539  20.377  0.00  0.00    +0.000 A 
ATOM      6  C   UNL     1       4.623  14.946  20.355  0.00  0.00    +0.000 A 
ENDROOT
BRANCH   4   7
ATOM      7  N   UNL     1       1.115  14.247  19.211  0.00  0.00    +0.000 N 
ATOM      8  C   UNL     1       0.696  12.970  19.027  0.00  0.00    +0.000 A 
ATOM      9  N   UNL     1       1.395  11.875  19.211  0.00  0.00    +0.000 NA
ATOM     10  C   UNL     1       0.676  10.746  18.870  0.00  0.00    +0.000 A 
ATOM     11  C   UNL     1      -0.593  11.001  18.392  0.00  0.00    +0.000 A 
ATOM     12  S   UNL     1      -0.911  12.685  18.455  0.00  0.00    +0.000 S 
ATOM     13  H   UNL     1       0.445  14.969  18.981  0.00  0.00    +0.000 HD
BRANCH  10  14
ATOM     14  C   UNL     1       1.273   9.422  19.002  0.00  0.00    +0.000 A 
ATOM     15  C   UNL     1       1.274   8.727  20.217  0.00  0.00    +0.000 A 
ATOM     16  C   UNL     1       1.868   7.463  20.312  0.00  0.00    +0.000 A 
ATOM     17  C   UNL     1       2.475   6.865  19.201  0.00  0.00    +0.000 A 
ATOM     18  C   UNL     1       2.489   7.567  17.990  0.00  0.00    +0.000 A 
ATOM     19  C   UNL     1       1.895   8.831  17.893  0.00  0.00    +0.000 A 
BRANCH  17  20
ATOM     20  C   UNL     1       3.078   5.476  19.326  0.00  0.00    +0.000 C 
ATOM     21  C   UNL     1       4.608   5.536  19.341  0.00  0.00    +0.000 C 
ATOM     22  C   UNL     1       2.549   4.726  20.550  0.00  0.00    +0.000 C 
ENDBRANCH  17  20
ENDBRANCH  10  14
ENDBRANCH   4   7
BRANCH   1  23
ATOM     23  S   UNL     1       6.845  16.054  19.168  0.00  0.00    +0.000 S 
ATOM     24  O   UNL     1       7.368  15.938  20.513  0.00  0.00    +0.000 OA
ATOM     25  O   UNL     1       6.883  17.327  18.472  0.00  0.00    +0.000 OA
BRANCH  23  33
ATOM     26  C   UNL     1      12.333  15.234  18.250  0.00  0.00    +0.000 C 
ATOM     27  C   UNL     1      11.069  14.559  18.690  0.00  0.00    +0.000 A 
ATOM     28  C   UNL     1      11.107  13.409  19.459  0.00  0.00    +0.000 A 
ATOM     29  C   UNL     1       9.892  12.827  19.768  0.00  0.00    +0.000 A 
ATOM     30  C   UNL     1       9.820  11.602  20.626  0.00  0.00    +0.000 C 
ATOM     31  N   UNL     1       8.722  13.330  19.325  0.00  0.00    +0.000 NA
ATOM     32  C   UNL     1       8.805  14.455  18.612  0.00  0.00    +0.000 A 
ATOM     33  N   UNL     1       7.588  14.952  18.152  0.00  0.00    +0.000 N 
ATOM     34  N   UNL     1       9.912  15.110  18.277  0.00  0.00    +0.000 NA
ATOM     35  H   UNL     1       6.954  14.196  17.922  0.00  0.00    +0.000 HD
ENDBRANCH  23  33
ENDBRANCH   1  23
TORSDOF 5
ENDMDL
MODEL 6
REMARK VINA RESULT:      -8.1      4.730      8.087
REMARK  Name = 
REMARK  9 active torsions:
REMARK  status: ('A' for Active; 'I' for Inactive)
REMARK    1  A    between atoms: C_1  and  C_2
REMARK    2  A    between atoms: C_4  and  C_5
REMARK    3  A    between atoms: N_8  and  S_9
REMARK    4  A    between atoms: S_9  and  C_12
REMARK    5  A    between atoms: C_15  and  N_16
REMARK    6  A    between atoms: C_19  and  C_20
REMARK    7  A    between atoms: C_23  and  C_24
REMARK    8  A    between atoms: C_24  and  C_25
REMARK    9  A    between atoms: C_24  and  C_26
REMARK                            x       y       z     vdW  Elec       q    Type
REMARK                         _______ _______ _______ _____ _____    ______ ____
ROOT
ATOM      1  C   UNL     1       0.930   9.639  19.457  0.00  0.00    +0.000 A 
ATOM      2  C   UNL     1       0.729   9.132  20.742  0.00  0.00    +0.000 A 
ATOM      3  C   UNL     1       1.307   7.911  21.101  0.00  0.00    +0.000 A 
ATOM      4  C   UNL     1       2.062   7.163  20.182  0.00  0.00    +0.000 A 
ATOM      5  C   UNL     1       2.248   7.698  18.899  0.00  0.00    +0.000 A 
ATOM      6  C   UNL     1       1.677   8.919  18.526  0.00  0.00    +0.000 A 
ENDROOT
BRANCH   4   7
ATOM      7  N   UNL     1       2.564   5.907  20.587  0.00  0.00    +0.000 N 
ATOM      8  C   UNL     1       3.274   5.035  19.828  0.00  0.00    +0.000 A 
ATOM      9  N   UNL     1       3.932   5.303  18.725  0.00  0.00    +0.000 NA
ATOM     10  C   UNL     1       4.491   4.166  18.174  0.00  0.00    +0.000 A 
ATOM     11  C   UNL     1       4.225   3.005  18.870  0.00  0.00    +0.000 A 
ATOM     12  S   UNL     1       3.326   3.368  20.286  0.00  0.00    +0.000 S 
ATOM     13  H   UNL     1       2.088   5.510  21.387  0.00  0.00    +0.000 HD
BRANCH  10  14
ATOM     14  C   UNL     1       5.267   4.247  16.942  0.00  0.00    +0.000 A 
ATOM     15  C   UNL     1       6.530   4.849  16.900  0.00  0.00    +0.000 A 
ATOM     16  C   UNL     1       7.243   4.922  15.698  0.00  0.00    +0.000 A 
ATOM     17  C   UNL     1       6.713   4.398  14.512  0.00  0.00    +0.000 A 
ATOM     18  C   UNL     1       5.444   3.810  14.550  0.00  0.00    +0.000 A 
ATOM     19  C   UNL     1       4.730   3.736  15.753  0.00  0.00    +0.000 A 
BRANCH  17  20
ATOM     20  C   UNL     1       7.528   4.457  13.230  0.00  0.00    +0.000 C 
ATOM     21  C   UNL     1       6.705   3.984  12.029  0.00  0.00    +0.000 C 
ATOM     22  C   UNL     1       8.109   5.850  12.980  0.00  0.00    +0.000 C 
ENDBRANCH  17  20
ENDBRANCH  10  14
ENDBRANCH   4   7
BRANCH   1  23
ATOM     23  S   UNL     1       0.189  11.188  18.984  0.00  0.00    +0.000 S 
ATOM     24  O   UNL     1      -0.318  11.816  20.185  0.00  0.00    +0.000 OA
ATOM     25  O   UNL     1      -0.700  10.900  17.874  0.00  0.00    +0.000 OA
BRANCH  23  33
ATOM     26  C   UNL     1       0.658  16.767  18.450  0.00  0.00    +0.000 C 
ATOM     27  C   UNL     1       1.310  15.553  19.040  0.00  0.00    +0.000 A 
ATOM     28  C   UNL     1       2.183  15.661  20.107  0.00  0.00    +0.000 A 
ATOM     29  C   UNL     1       2.778  14.492  20.546  0.00  0.00    +0.000 A 
ATOM     30  C   UNL     1       3.710  14.494  21.718  0.00  0.00    +0.000 C 
ATOM     31  N   UNL     1       2.545  13.303  19.954  0.00  0.00    +0.000 NA
ATOM     32  C   UNL     1       1.667  13.315  18.950  0.00  0.00    +0.000 A 
ATOM     33  N   UNL     1       1.451  12.081  18.342  0.00  0.00    +0.000 N 
ATOM     34  N   UNL     1       1.022  14.370  18.463  0.00  0.00    +0.000 NA
ATOM     35  H   UNL     1       2.302  11.532  18.326  0.00  0.00    +0.000 HD
ENDBRANCH  23  33
ENDBRANCH   1  23
TORSDOF 5
ENDMDL
MODEL 7
REMARK VINA RESULT:      -8.0      4.465      7.296
REMARK  Name = 
REMARK  9 active torsions:
REMARK  status: ('A' for Active; 'I' for Inactive)
REMARK    1  A    between atoms: C_1  and  C_2
REMARK    2  A    between atoms: C_4  and  C_5
REMARK    3  A    between atoms: N_8  and  S_9
REMARK    4  A    between atoms: S_9  and  C_12
REMARK    5  A    between atoms: C_15  and  N_16
REMARK    6  A    between atoms: C_19  and  C_20
REMARK    7  A    between atoms: C_23  and  C_24
REMARK    8  A    between atoms: C_24  and  C_25
REMARK    9  A    between atoms: C_24  and  C_26
REMARK                            x       y       z     vdW  Elec       q    Type
REMARK                         _______ _______ _______ _____ _____    ______ ____
ROOT
ATOM      1  C   UNL     1       0.246  10.879  19.592  0.00  0.00    +0.000 A 
ATOM      2  C   UNL     1       0.978   9.990  18.803  0.00  0.00    +0.000 A 
ATOM      3  C   UNL     1       1.375   8.760  19.336  0.00  0.00    +0.000 A 
ATOM      4  C   UNL     1       1.081   8.411  20.666  0.00  0.00    +0.000 A 
ATOM      5  C   UNL     1       0.343   9.325  21.433  0.00  0.00    +0.000 A 
ATOM      6  C   UNL     1      -0.062  10.557  20.913  0.00  0.00    +0.000 A 
ENDROOT
BRANCH   4   7
ATOM      7  N   UNL     1       1.566   7.182  21.163  0.00  0.00    +0.000 N 
ATOM      8  C   UNL     1       2.228   6.229  20.461  0.00  0.00    +0.000 A 
ATOM      9  N   UNL     1       2.854   6.382  19.319  0.00  0.00    +0.000 NA
ATOM     10  C   UNL     1       3.366   5.186  18.853  0.00  0.00    +0.000 A 
ATOM     11  C   UNL     1       3.096   4.098  19.656  0.00  0.00    +0.000 A 
ATOM     12  S   UNL     1       2.256   4.607  21.062  0.00  0.00    +0.000 S 
ATOM     13  H   UNL     1       1.107   6.869  22.009  0.00  0.00    +0.000 HD
BRANCH  10  14
ATOM     14  C   UNL     1       4.103   5.139  17.595  0.00  0.00    +0.000 A 
ATOM     15  C   UNL     1       4.515   6.300  16.933  0.00  0.00    +0.000 A 
ATOM     16  C   UNL     1       5.209   6.219  15.720  0.00  0.00    +0.000 A 
ATOM     17  C   UNL     1       5.505   4.979  15.139  0.00  0.00    +0.000 A 
ATOM     18  C   UNL     1       5.079   3.817  15.793  0.00  0.00    +0.000 A 
ATOM     19  C   UNL     1       4.385   3.898  17.007  0.00  0.00    +0.000 A 
BRANCH  17  20
ATOM     20  C   UNL     1       6.293   4.922  13.841  0.00  0.00    +0.000 C 
ATOM     21  C   UNL     1       7.785   5.163  14.089  0.00  0.00    +0.000 C 
ATOM     22  C   UNL     1       6.070   3.610  13.088  0.00  0.00    +0.000 C 
ENDBRANCH  17  20
ENDBRANCH  10  14
ENDBRANCH   4   7
BRANCH   1  23
ATOM     23  S   UNL     1      -0.255  12.453  18.928  0.00  0.00    +0.000 S 
ATOM     24  O   UNL     1      -0.699  13.274  20.035  0.00  0.00    +0.000 OA
ATOM     25  O   UNL     1      -1.148  12.171  17.820  0.00  0.00    +0.000 OA
BRANCH  23  33
ATOM     26  C   UNL     1       1.685  17.729  19.113  0.00  0.00    +0.000 C 
ATOM     27  C   UNL     1       2.029  16.306  19.433  0.00  0.00    +0.000 A 
ATOM     28  C   UNL     1       2.996  16.001  20.374  0.00  0.00    +0.000 A 
ATOM     29  C   UNL     1       3.284  14.662  20.560  0.00  0.00    +0.000 A 
ATOM     30  C   UNL     1       4.287  14.223  21.581  0.00  0.00    +0.000 C 
ATOM     31  N   UNL     1       2.676  13.692  19.847  0.00  0.00    +0.000 NA
ATOM     32  C   UNL     1       1.743  14.101  18.985  0.00  0.00    +0.000 A 
ATOM     33  N   UNL     1       1.137  13.087  18.249  0.00  0.00    +0.000 N 
ATOM     34  N   UNL     1       1.371  15.354  18.743  0.00  0.00    +0.000 NA
ATOM     35  H   UNL     1       1.798  12.348  18.039  0.00  0.00    +0.000 HD
ENDBRANCH  23  33
ENDBRANCH   1  23
TORSDOF 5
ENDMDL
MODEL 8
REMARK VINA RESULT:      -8.0      0.551      1.266
REMARK  Name = 
REMARK  9 active torsions:
REMARK  status: ('A' for Active; 'I' for Inactive)
REMARK    1  A    between atoms: C_1  and  C_2
REMARK    2  A    between atoms: C_4  and  C_5
REMARK    3  A    between atoms: N_8  and  S_9
REMARK    4  A    between atoms: S_9  and  C_12
REMARK    5  A    between atoms: C_15  and  N_16
REMARK    6  A    between atoms: C_19  and  C_20
REMARK    7  A    between atoms: C_23  and  C_24
REMARK    8  A    between atoms: C_24  and  C_25
REMARK    9  A    between atoms: C_24  and  C_26
REMARK                            x       y       z     vdW  Elec       q    Type
REMARK                         _______ _______ _______ _____ _____    ______ ____
ROOT
ATOM      1  C   UNL     1       5.147  15.372  18.975  0.00  0.00    +0.000 A 
ATOM      2  C   UNL     1       4.496  14.654  17.969  0.00  0.00    +0.000 A 
ATOM      3  C   UNL     1       3.149  14.315  18.124  0.00  0.00    +0.000 A 
ATOM      4  C   UNL     1       2.440  14.653  19.291  0.00  0.00    +0.000 A 
ATOM      5  C   UNL     1       3.121  15.375  20.283  0.00  0.00    +0.000 A 
ATOM      6  C   UNL     1       4.467  15.722  20.140  0.00  0.00    +0.000 A 
ENDROOT
BRANCH   4   7
ATOM      7  N   UNL     1       1.101  14.225  19.413  0.00  0.00    +0.000 N 
ATOM      8  C   UNL     1       0.644  12.952  19.305  0.00  0.00    +0.000 A 
ATOM      9  N   UNL     1       1.345  11.849  19.422  0.00  0.00    +0.000 NA
ATOM     10  C   UNL     1       0.574  10.726  19.191  0.00  0.00    +0.000 A 
ATOM     11  C   UNL     1      -0.740  10.994  18.868  0.00  0.00    +0.000 A 
ATOM     12  S   UNL     1      -1.025  12.684  18.938  0.00  0.00    +0.000 S 
ATOM     13  H   UNL     1       0.418  14.954  19.253  0.00  0.00    +0.000 HD
BRANCH  10  14
ATOM     14  C   UNL     1       1.164   9.396  19.274  0.00  0.00    +0.000 A 
ATOM     15  C   UNL     1       1.097   8.626  20.440  0.00  0.00    +0.000 A 
ATOM     16  C   UNL     1       1.686   7.357  20.490  0.00  0.00    +0.000 A 
ATOM     17  C   UNL     1       2.356   6.829  19.379  0.00  0.00    +0.000 A 
ATOM     18  C   UNL     1       2.437   7.604  18.217  0.00  0.00    +0.000 A 
ATOM     19  C   UNL     1       1.848   8.874  18.166  0.00  0.00    +0.000 A 
BRANCH  17  20
ATOM     20  C   UNL     1       2.952   5.432  19.451  0.00  0.00    +0.000 C 
ATOM     21  C   UNL     1       2.464   4.687  20.697  0.00  0.00    +0.000 C 
ATOM     22  C   UNL     1       2.673   4.620  18.185  0.00  0.00    +0.000 C 
ENDBRANCH  17  20
ENDBRANCH  10  14
ENDBRANCH   4   7
BRANCH   1  23
ATOM     23  S   UNL     1       6.866  15.799  18.794  0.00  0.00    +0.000 S 
ATOM     24  O   UNL     1       7.000  17.210  19.091  0.00  0.00    +0.000 OA
ATOM     25  O   UNL     1       7.290  15.276  17.509  0.00  0.00    +0.000 OA
BRANCH  23  33
ATOM     26  C   UNL     1      10.198  11.325  18.080  0.00  0.00    +0.000 C 
ATOM     27  C   UNL     1      10.139  12.704  18.664  0.00  0.00    +0.000 A 
ATOM     28  C   UNL     1      11.295  13.428  18.898  0.00  0.00    +0.000 A 
ATOM     29  C   UNL     1      11.143  14.668  19.491  0.00  0.00    +0.000 A 
ATOM     30  C   UNL     1      12.326  15.547  19.754  0.00  0.00    +0.000 C 
ATOM     31  N   UNL     1       9.935  15.147  19.852  0.00  0.00    +0.000 NA
ATOM     32  C   UNL     1       8.889  14.374  19.556  0.00  0.00    +0.000 A 
ATOM     33  N   UNL     1       7.653  14.879  19.949  0.00  0.00    +0.000 N 
ATOM     34  N   UNL     1       8.917  13.181  18.969  0.00  0.00    +0.000 NA
ATOM     35  H   UNL     1       7.732  15.392  20.819  0.00  0.00    +0.000 HD
ENDBRANCH  23  33
ENDBRANCH   1  23
TORSDOF 5
ENDMDL
MODEL 9
REMARK VINA RESULT:      -8.0      5.286      7.810
REMARK  Name = 
REMARK  9 active torsions:
REMARK  status: ('A' for Active; 'I' for Inactive)
REMARK    1  A    between atoms: C_1  and  C_2
REMARK    2  A    between atoms: C_4  and  C_5
REMARK    3  A    between atoms: N_8  and  S_9
REMARK    4  A    between atoms: S_9  and  C_12
REMARK    5  A    between atoms: C_15  and  N_16
REMARK    6  A    between atoms: C_19  and  C_20
REMARK    7  A    between atoms: C_23  and  C_24
REMARK    8  A    between atoms: C_24  and  C_25
REMARK    9  A    between atoms: C_24  and  C_26
REMARK                            x       y       z     vdW  Elec       q    Type
REMARK                         _______ _______ _______ _____ _____    ______ ____
ROOT
ATOM      1  C   UNL     1      -0.166  10.877  19.427  0.00  0.00    +0.000 A 
ATOM      2  C   UNL     1      -0.310  10.550  20.777  0.00  0.00    +0.000 A 
ATOM      3  C   UNL     1       0.292   9.391  21.275  0.00  0.00    +0.000 A 
ATOM      4  C   UNL     1       1.013   8.524  20.435  0.00  0.00    +0.000 A 
ATOM      5  C   UNL     1       1.140   8.879  19.084  0.00  0.00    +0.000 A 
ATOM      6  C   UNL     1       0.545  10.036  18.572  0.00  0.00    +0.000 A 
ENDROOT
BRANCH   4   7
ATOM      7  N   UNL     1       1.540   7.337  20.986  0.00  0.00    +0.000 N 
ATOM      8  C   UNL     1       2.234   6.375  20.326  0.00  0.00    +0.000 A 
ATOM      9  N   UNL     1       2.853   6.498  19.176  0.00  0.00    +0.000 NA
ATOM     10  C   UNL     1       3.405   5.301  18.762  0.00  0.00    +0.000 A 
ATOM     11  C   UNL     1       3.173   4.242  19.615  0.00  0.00    +0.000 A 
ATOM     12  S   UNL     1       2.318   4.785  20.999  0.00  0.00    +0.000 S 
ATOM     13  H   UNL     1       1.094   7.047  21.847  0.00  0.00    +0.000 HD
BRANCH  10  14
ATOM     14  C   UNL     1       4.140   5.222  17.506  0.00  0.00    +0.000 A 
ATOM     15  C   UNL     1       4.512   6.365  16.791  0.00  0.00    +0.000 A 
ATOM     16  C   UNL     1       5.207   6.253  15.581  0.00  0.00    +0.000 A 
ATOM     17  C   UNL     1       5.543   4.999  15.056  0.00  0.00    +0.000 A 
ATOM     18  C   UNL     1       5.158   3.854  15.762  0.00  0.00    +0.000 A 
ATOM     19  C   UNL     1       4.463   3.965  16.973  0.00  0.00    +0.000 A 
BRANCH  17  20
ATOM     20  C   UNL     1       6.331   4.911  13.759  0.00  0.00    +0.000 C 
ATOM     21  C   UNL     1       7.828   5.121  14.006  0.00  0.00    +0.000 C 
ATOM     22  C   UNL     1       6.079   3.595  13.020  0.00  0.00    +0.000 C 
ENDBRANCH  17  20
ENDBRANCH  10  14
ENDBRANCH   4   7
BRANCH   1  23
ATOM     23  S   UNL     1      -0.938  12.345  18.779  0.00  0.00    +0.000 S 
ATOM     24  O   UNL     1      -1.606  13.010  19.877  0.00  0.00    +0.000 OA
ATOM     25  O   UNL     1      -1.685  11.936  17.604  0.00  0.00    +0.000 OA
BRANCH  23  33
ATOM     26  C   UNL     1      -0.400  17.943  18.740  0.00  0.00    +0.000 C 
ATOM     27  C   UNL     1       0.237  16.673  19.218  0.00  0.00    +0.000 A 
ATOM     28  C   UNL     1       1.115  16.676  20.288  0.00  0.00    +0.000 A 
ATOM     29  C   UNL     1       1.695  15.466  20.619  0.00  0.00    +0.000 A 
ATOM     30  C   UNL     1       2.630  15.352  21.784  0.00  0.00    +0.000 C 
ATOM     31  N   UNL     1       1.447  14.337  19.925  0.00  0.00    +0.000 NA
ATOM     32  C   UNL     1       0.566  14.448  18.928  0.00  0.00    +0.000 A 
ATOM     33  N   UNL     1       0.333  13.276  18.215  0.00  0.00    +0.000 N 
ATOM     34  N   UNL     1      -0.067  15.550  18.539  0.00  0.00    +0.000 NA
ATOM     35  H   UNL     1       1.178  12.720  18.147  0.00  0.00    +0.000 HD
ENDBRANCH  23  33
ENDBRANCH   1  23
TORSDOF 5
ENDMDL
