MODEL 1
REMARK VINA RESULT:      -7.4      0.000      0.000
REMARK  Name = 
REMARK  6 active torsions:
REMARK  status: ('A' for Active; 'I' for Inactive)
REMARK    1  A    between atoms: C_1  and  O_2
REMARK    2  A    between atoms: O_2  and  C_3
REMARK    3  A    between atoms: C_8  and  C_9
REMARK    4  A    between atoms: N_14  and  C_15
REMARK    5  A    between atoms: C_15  and  C_16
REMARK    6  A    between atoms: C_16  and  N_17
REMARK                            x       y       z     vdW  Elec       q    Type
REMARK                         _______ _______ _______ _____ _____    ______ ____
ROOT
ATOM      1  C   UNL     1       4.113   3.478  18.888  0.00  0.00    +0.000 C 
ATOM      2  S   UNL     1       3.508   1.800  18.511  0.00  0.00    +0.000 S 
ATOM      3  C   UNL     1       1.807   2.186  18.938  0.00  0.00    +0.000 C 
ATOM      4  C   UNL     1       1.770   3.619  19.414  0.00  0.00    +0.000 C 
ATOM      5  O   UNL     1       0.782   4.080  19.975  0.00  0.00    +0.000 OA
ATOM      6  N   UNL     1       2.955   4.304  19.166  0.00  0.00    +0.000 N 
ENDROOT
BRANCH   1  12
ATOM      7  C   UNL     1       6.355   4.451  18.002  0.00  0.00    +0.000 A 
ATOM      8  C   UNL     1       7.158   4.750  16.884  0.00  0.00    +0.000 A 
ATOM      9  C   UNL     1       6.685   4.617  15.580  0.00  0.00    +0.000 A 
ATOM     10  C   UNL     1       5.374   4.221  15.372  0.00  0.00    +0.000 A 
ATOM     11  C   UNL     1       4.569   3.910  16.468  0.00  0.00    +0.000 A 
ATOM     12  C   UNL     1       5.044   3.973  17.806  0.00  0.00    +0.000 A 
BRANCH   7  14
ATOM     13  C   UNL     1       7.877   5.909  19.195  0.00  0.00    +0.000 C 
ATOM     14  O   UNL     1       6.978   4.817  19.163  0.00  0.00    +0.000 OA
ENDBRANCH   7  14
ENDBRANCH   1  12
BRANCH   6  15
ATOM     15  C   UNL     1       3.149   5.654  19.701  0.00  0.00    +0.000 C 
BRANCH  15  16
ATOM     16  C   UNL     1       2.941   6.800  18.682  0.00  0.00    +0.000 C 
BRANCH  16  17
ATOM     17  N   UNL     1       1.846   7.756  18.950  0.00  0.00    +0.000 NA
ATOM     18  C   UNL     1       1.766   8.125  20.374  0.00  0.00    +0.000 C 
ATOM     19  C   UNL     1       0.576   9.052  20.632  0.00  0.00    +0.000 C 
ATOM     20  C   UNL     1       0.672  10.314  19.785  0.00  0.00    +0.000 C 
ATOM     21  C   UNL     1       0.872   9.954  18.318  0.00  0.00    +0.000 C 
ATOM     22  C   UNL     1       2.031   8.971  18.133  0.00  0.00    +0.000 C 
ENDBRANCH  16  17
ENDBRANCH  15  16
ENDBRANCH   6  15
TORSDOF 5
ENDMDL
MODEL 2
REMARK VINA RESULT:      -7.4      0.375      1.106
REMARK  Name = 
REMARK  6 active torsions:
REMARK  status: ('A' for Active; 'I' for Inactive)
REMARK    1  A    between atoms: C_1  and  O_2
REMARK    2  A    between atoms: O_2  and  C_3
REMARK    3  A    between atoms: C_8  and  C_9
REMARK    4  A    between atoms: N_14  and  C_15
REMARK    5  A    between atoms: C_15  and  C_16
REMARK    6  A    between atoms: C_16  and  N_17
REMARK                            x       y       z     vdW  Elec       q    Type
REMARK                         _______ _______ _______ _____ _____    ______ ____
ROOT
ATOM      1  C   UNL     1       4.124   3.498  18.809  0.00  0.00    +0.000 C 
ATOM      2  S   UNL     1       3.539   1.815  18.421  0.00  0.00    +0.000 S 
ATOM      3  C   UNL     1       1.833   2.180  18.845  0.00  0.00    +0.000 C 
ATOM      4  C   UNL     1       1.778   3.610  19.328  0.00  0.00    +0.000 C 
ATOM      5  O   UNL     1       0.783   4.056  19.888  0.00  0.00    +0.000 OA
ATOM      6  N   UNL     1       2.955   4.310  19.087  0.00  0.00    +0.000 N 
ENDROOT
BRANCH   1  12
ATOM      7  C   UNL     1       6.379   4.445  17.927  0.00  0.00    +0.000 A 
ATOM      8  C   UNL     1       7.174   4.765  16.808  0.00  0.00    +0.000 A 
ATOM      9  C   UNL     1       6.680   4.692  15.508  0.00  0.00    +0.000 A 
ATOM     10  C   UNL     1       5.356   4.339  15.305  0.00  0.00    +0.000 A 
ATOM     11  C   UNL     1       4.558   4.008  16.400  0.00  0.00    +0.000 A 
ATOM     12  C   UNL     1       5.053   4.009  17.732  0.00  0.00    +0.000 A 
BRANCH   7  14
ATOM     13  C   UNL     1       7.818   5.918  19.199  0.00  0.00    +0.000 C 
ATOM     14  O   UNL     1       7.027   4.751  19.091  0.00  0.00    +0.000 OA
ENDBRANCH   7  14
ENDBRANCH   1  12
BRANCH   6  15
ATOM     15  C   UNL     1       3.133   5.658  19.629  0.00  0.00    +0.000 C 
BRANCH  15  16
ATOM     16  C   UNL     1       2.680   6.807  18.695  0.00  0.00    +0.000 C 
BRANCH  16  17
ATOM     17  N   UNL     1       2.240   8.066  19.332  0.00  0.00    +0.000 NA
ATOM     18  C   UNL     1       1.474   8.919  18.407  0.00  0.00    +0.000 C 
ATOM     19  C   UNL     1       1.102  10.248  19.071  0.00  0.00    +0.000 C 
ATOM     20  C   UNL     1       0.290  10.016  20.338  0.00  0.00    +0.000 C 
ATOM     21  C   UNL     1       1.013   9.042  21.261  0.00  0.00    +0.000 C 
ATOM     22  C   UNL     1       1.420   7.765  20.522  0.00  0.00    +0.000 C 
ENDBRANCH  16  17
ENDBRANCH  15  16
ENDBRANCH   6  15
TORSDOF 5
ENDMDL
MODEL 3
REMARK VINA RESULT:      -6.8      1.306      2.375
REMARK  Name = 
REMARK  6 active torsions:
REMARK  status: ('A' for Active; 'I' for Inactive)
REMARK    1  A    between atoms: C_1  and  O_2
REMARK    2  A    between atoms: O_2  and  C_3
REMARK    3  A    between atoms: C_8  and  C_9
REMARK    4  A    between atoms: N_14  and  C_15
REMARK    5  A    between atoms: C_15  and  C_16
REMARK    6  A    between atoms: C_16  and  N_17
REMARK                            x       y       z     vdW  Elec       q    Type
REMARK                         _______ _______ _______ _____ _____    ______ ____
ROOT
ATOM      1  C   UNL     1       4.056   4.079  18.966  0.00  0.00    +0.000 C 
ATOM      2  S   UNL     1       4.135   2.261  19.072  0.00  0.00    +0.000 S 
ATOM      3  C   UNL     1       2.509   2.027  18.347  0.00  0.00    +0.000 C 
ATOM      4  C   UNL     1       1.925   3.395  18.084  0.00  0.00    +0.000 C 
ATOM      5  O   UNL     1       0.743   3.539  17.797  0.00  0.00    +0.000 OA
ATOM      6  N   UNL     1       2.855   4.418  18.227  0.00  0.00    +0.000 N 
ENDROOT
BRANCH   1  12
ATOM      7  C   UNL     1       5.763   4.637  17.086  0.00  0.00    +0.000 A 
ATOM      8  C   UNL     1       6.934   5.326  16.715  0.00  0.00    +0.000 A 
ATOM      9  C   UNL     1       7.722   5.998  17.647  0.00  0.00    +0.000 A 
ATOM     10  C   UNL     1       7.372   5.952  18.987  0.00  0.00    +0.000 A 
ATOM     11  C   UNL     1       6.209   5.284  19.371  0.00  0.00    +0.000 A 
ATOM     12  C   UNL     1       5.352   4.646  18.434  0.00  0.00    +0.000 A 
BRANCH   7  14
ATOM     13  C   UNL     1       5.638   4.226  14.703  0.00  0.00    +0.000 C 
ATOM     14  O   UNL     1       5.260   3.925  16.033  0.00  0.00    +0.000 OA
ENDBRANCH   7  14
ENDBRANCH   1  12
BRANCH   6  15
ATOM     15  C   UNL     1       2.426   5.817  18.163  0.00  0.00    +0.000 C 
BRANCH  15  16
ATOM     16  C   UNL     1       2.463   6.578  19.509  0.00  0.00    +0.000 C 
BRANCH  16  17
ATOM     17  N   UNL     1       2.202   8.033  19.473  0.00  0.00    +0.000 NA
ATOM     18  C   UNL     1       1.867   8.505  18.118  0.00  0.00    +0.000 C 
ATOM     19  C   UNL     1       1.680  10.024  18.099  0.00  0.00    +0.000 C 
ATOM     20  C   UNL     1       0.589  10.453  19.070  0.00  0.00    +0.000 C 
ATOM     21  C   UNL     1       0.856   9.877  20.456  0.00  0.00    +0.000 C 
ATOM     22  C   UNL     1       1.103   8.368  20.400  0.00  0.00    +0.000 C 
ENDBRANCH  16  17
ENDBRANCH  15  16
ENDBRANCH   6  15
TORSDOF 5
ENDMDL
MODEL 4
REMARK VINA RESULT:      -6.6      1.457      2.268
REMARK  Name = 
REMARK  6 active torsions:
REMARK  status: ('A' for Active; 'I' for Inactive)
REMARK    1  A    between atoms: C_1  and  O_2
REMARK    2  A    between atoms: O_2  and  C_3
REMARK    3  A    between atoms: C_8  and  C_9
REMARK    4  A    between atoms: N_14  and  C_15
REMARK    5  A    between atoms: C_15  and  C_16
REMARK    6  A    between atoms: C_16  and  N_17
REMARK                            x       y       z     vdW  Elec       q    Type
REMARK                         _______ _______ _______ _____ _____    ______ ____
ROOT
ATOM      1  C   UNL     1       4.024   4.389  18.740  0.00  0.00    +0.000 C 
ATOM      2  S   UNL     1       4.033   2.568  18.655  0.00  0.00    +0.000 S 
ATOM      3  C   UNL     1       2.439   2.478  17.835  0.00  0.00    +0.000 C 
ATOM      4  C   UNL     1       1.918   3.888  17.691  0.00  0.00    +0.000 C 
ATOM      5  O   UNL     1       0.757   4.109  17.366  0.00  0.00    +0.000 OA
ATOM      6  N   UNL     1       2.875   4.852  17.986  0.00  0.00    +0.000 N 
ENDROOT
BRANCH   1  12
ATOM      7  C   UNL     1       5.790   5.195  17.010  0.00  0.00    +0.000 A 
ATOM      8  C   UNL     1       7.014   5.857  16.786  0.00  0.00    +0.000 A 
ATOM      9  C   UNL     1       7.838   6.259  17.835  0.00  0.00    +0.000 A 
ATOM     10  C   UNL     1       7.469   5.963  19.137  0.00  0.00    +0.000 A 
ATOM     11  C   UNL     1       6.255   5.319  19.378  0.00  0.00    +0.000 A 
ATOM     12  C   UNL     1       5.365   4.956  18.333  0.00  0.00    +0.000 A 
BRANCH   7  14
ATOM     13  C   UNL     1       6.070   4.272  14.789  0.00  0.00    +0.000 C 
ATOM     14  O   UNL     1       5.248   4.756  15.834  0.00  0.00    +0.000 OA
ENDBRANCH   7  14
ENDBRANCH   1  12
BRANCH   6  15
ATOM     15  C   UNL     1       2.500   6.266  18.050  0.00  0.00    +0.000 C 
BRANCH  15  16
ATOM     16  C   UNL     1       2.497   6.882  19.470  0.00  0.00    +0.000 C 
BRANCH  16  17
ATOM     17  N   UNL     1       1.410   7.829  19.796  0.00  0.00    +0.000 NA
ATOM     18  C   UNL     1       1.377   8.166  21.230  0.00  0.00    +0.000 C 
ATOM     19  C   UNL     1       0.195   9.085  21.549  0.00  0.00    +0.000 C 
ATOM     20  C   UNL     1       0.262  10.366  20.729  0.00  0.00    +0.000 C 
ATOM     21  C   UNL     1       0.414  10.040  19.248  0.00  0.00    +0.000 C 
ATOM     22  C   UNL     1       1.567   9.063  19.002  0.00  0.00    +0.000 C 
ENDBRANCH  16  17
ENDBRANCH  15  16
ENDBRANCH   6  15
TORSDOF 5
ENDMDL
MODEL 5
REMARK VINA RESULT:      -6.5      1.175      1.196
REMARK  Name = 
REMARK  6 active torsions:
REMARK  status: ('A' for Active; 'I' for Inactive)
REMARK    1  A    between atoms: C_1  and  O_2
REMARK    2  A    between atoms: O_2  and  C_3
REMARK    3  A    between atoms: C_8  and  C_9
REMARK    4  A    between atoms: N_14  and  C_15
REMARK    5  A    between atoms: C_15  and  C_16
REMARK    6  A    between atoms: C_16  and  N_17
REMARK                            x       y       z     vdW  Elec       q    Type
REMARK                         _______ _______ _______ _____ _____    ______ ____
ROOT
ATOM      1  C   UNL     1       4.379   4.551  18.781  0.00  0.00    +0.000 C 
ATOM      2  S   UNL     1       4.581   2.897  19.520  0.00  0.00    +0.000 S 
ATOM      3  C   UNL     1       2.822   2.678  19.809  0.00  0.00    +0.000 C 
ATOM      4  C   UNL     1       2.125   3.938  19.357  0.00  0.00    +0.000 C 
ATOM      5  O   UNL     1       0.951   4.153  19.637  0.00  0.00    +0.000 OA
ATOM      6  N   UNL     1       2.956   4.790  18.637  0.00  0.00    +0.000 N 
ENDROOT
BRANCH   1  12
ATOM      7  C   UNL     1       6.293   5.573  17.350  0.00  0.00    +0.000 A 
ATOM      8  C   UNL     1       7.066   5.495  16.175  0.00  0.00    +0.000 A 
ATOM      9  C   UNL     1       6.776   4.585  15.161  0.00  0.00    +0.000 A 
ATOM     10  C   UNL     1       5.669   3.761  15.287  0.00  0.00    +0.000 A 
ATOM     11  C   UNL     1       4.900   3.817  16.449  0.00  0.00    +0.000 A 
ATOM     12  C   UNL     1       5.210   4.688  17.527  0.00  0.00    +0.000 A 
BRANCH   7  14
ATOM     13  C   UNL     1       7.621   7.577  17.638  0.00  0.00    +0.000 C 
ATOM     14  O   UNL     1       6.668   6.644  18.112  0.00  0.00    +0.000 OA
ENDBRANCH   7  14
ENDBRANCH   1  12
BRANCH   6  15
ATOM     15  C   UNL     1       2.489   6.125  18.258  0.00  0.00    +0.000 C 
BRANCH  15  16
ATOM     16  C   UNL     1       2.632   7.208  19.354  0.00  0.00    +0.000 C 
BRANCH  16  17
ATOM     17  N   UNL     1       1.422   7.983  19.704  0.00  0.00    +0.000 NA
ATOM     18  C   UNL     1       1.322   8.233  21.153  0.00  0.00    +0.000 C 
ATOM     19  C   UNL     1       0.022   8.966  21.492  0.00  0.00    +0.000 C 
ATOM     20  C   UNL     1      -0.072  10.288  20.741  0.00  0.00    +0.000 C 
ATOM     21  C   UNL     1       0.146  10.066  19.249  0.00  0.00    +0.000 C 
ATOM     22  C   UNL     1       1.424   9.268  18.979  0.00  0.00    +0.000 C 
ENDBRANCH  16  17
ENDBRANCH  15  16
ENDBRANCH   6  15
TORSDOF 5
ENDMDL
MODEL 6
REMARK VINA RESULT:      -6.5      1.655      2.682
REMARK  Name = 
REMARK  6 active torsions:
REMARK  status: ('A' for Active; 'I' for Inactive)
REMARK    1  A    between atoms: C_1  and  O_2
REMARK    2  A    between atoms: O_2  and  C_3
REMARK    3  A    between atoms: C_8  and  C_9
REMARK    4  A    between atoms: N_14  and  C_15
REMARK    5  A    between atoms: C_15  and  C_16
REMARK    6  A    between atoms: C_16  and  N_17
REMARK                            x       y       z     vdW  Elec       q    Type
REMARK                         _______ _______ _______ _____ _____    ______ ____
ROOT
ATOM      1  C   UNL     1       4.158   4.646  18.654  0.00  0.00    +0.000 C 
ATOM      2  S   UNL     1       4.268   2.864  18.283  0.00  0.00    +0.000 S 
ATOM      3  C   UNL     1       2.695   2.824  17.419  0.00  0.00    +0.000 C 
ATOM      4  C   UNL     1       2.101   4.211  17.487  0.00  0.00    +0.000 C 
ATOM      5  O   UNL     1       0.935   4.421  17.172  0.00  0.00    +0.000 OA
ATOM      6  N   UNL     1       2.999   5.164  17.954  0.00  0.00    +0.000 N 
ENDROOT
BRANCH   1  12
ATOM      7  C   UNL     1       5.811   6.014  17.187  0.00  0.00    +0.000 A 
ATOM      8  C   UNL     1       7.021   6.732  17.119  0.00  0.00    +0.000 A 
ATOM      9  C   UNL     1       7.915   6.773  18.187  0.00  0.00    +0.000 A 
ATOM     10  C   UNL     1       7.632   6.051  19.335  0.00  0.00    +0.000 A 
ATOM     11  C   UNL     1       6.433   5.344  19.423  0.00  0.00    +0.000 A 
ATOM     12  C   UNL     1       5.473   5.338  18.376  0.00  0.00    +0.000 A 
BRANCH   7  14
ATOM     13  C   UNL     1       5.563   5.043  14.982  0.00  0.00    +0.000 C 
ATOM     14  O   UNL     1       5.190   5.987  15.969  0.00  0.00    +0.000 OA
ENDBRANCH   7  14
ENDBRANCH   1  12
BRANCH   6  15
ATOM     15  C   UNL     1       2.546   6.528  18.232  0.00  0.00    +0.000 C 
BRANCH  15  16
ATOM     16  C   UNL     1       2.117   6.794  19.695  0.00  0.00    +0.000 C 
BRANCH  16  17
ATOM     17  N   UNL     1       1.853   8.196  20.081  0.00  0.00    +0.000 NA
ATOM     18  C   UNL     1       1.237   8.967  18.987  0.00  0.00    +0.000 C 
ATOM     19  C   UNL     1       1.049  10.432  19.389  0.00  0.00    +0.000 C 
ATOM     20  C   UNL     1       0.187  10.548  20.640  0.00  0.00    +0.000 C 
ATOM     21  C   UNL     1       0.743   9.666  21.751  0.00  0.00    +0.000 C 
ATOM     22  C   UNL     1       0.975   8.232  21.267  0.00  0.00    +0.000 C 
ENDBRANCH  16  17
ENDBRANCH  15  16
ENDBRANCH   6  15
TORSDOF 5
ENDMDL
MODEL 7
REMARK VINA RESULT:      -6.3      1.797      3.956
REMARK  Name = 
REMARK  6 active torsions:
REMARK  status: ('A' for Active; 'I' for Inactive)
REMARK    1  A    between atoms: C_1  and  O_2
REMARK    2  A    between atoms: O_2  and  C_3
REMARK    3  A    between atoms: C_8  and  C_9
REMARK    4  A    between atoms: N_14  and  C_15
REMARK    5  A    between atoms: C_15  and  C_16
REMARK    6  A    between atoms: C_16  and  N_17
REMARK                            x       y       z     vdW  Elec       q    Type
REMARK                         _______ _______ _______ _____ _____    ______ ____
ROOT
ATOM      1  C   UNL     1       3.481   4.645  17.789  0.00  0.00    +0.000 C 
ATOM      2  S   UNL     1       4.374   3.439  16.754  0.00  0.00    +0.000 S 
ATOM      3  C   UNL     1       5.834   4.471  16.599  0.00  0.00    +0.000 C 
ATOM      4  C   UNL     1       5.560   5.764  17.329  0.00  0.00    +0.000 C 
ATOM      5  O   UNL     1       6.295   6.737  17.203  0.00  0.00    +0.000 OA
ATOM      6  N   UNL     1       4.407   5.714  18.106  0.00  0.00    +0.000 N 
ENDROOT
BRANCH   1  12
ATOM      7  C   UNL     1       3.478   3.231  19.970  0.00  0.00    +0.000 A 
ATOM      8  C   UNL     1       2.746   2.767  21.081  0.00  0.00    +0.000 A 
ATOM      9  C   UNL     1       1.376   2.985  21.205  0.00  0.00    +0.000 A 
ATOM     10  C   UNL     1       0.699   3.637  20.187  0.00  0.00    +0.000 A 
ATOM     11  C   UNL     1       1.410   4.113  19.085  0.00  0.00    +0.000 A 
ATOM     12  C   UNL     1       2.818   3.964  18.963  0.00  0.00    +0.000 A 
BRANCH   7  14
ATOM     13  C   UNL     1       5.064   1.517  20.609  0.00  0.00    +0.000 C 
ATOM     14  O   UNL     1       4.759   2.755  19.994  0.00  0.00    +0.000 OA
ENDBRANCH   7  14
ENDBRANCH   1  12
BRANCH   6  15
ATOM     15  C   UNL     1       3.906   6.926  18.757  0.00  0.00    +0.000 C 
BRANCH  15  16
ATOM     16  C   UNL     1       2.730   7.624  18.032  0.00  0.00    +0.000 C 
BRANCH  16  17
ATOM     17  N   UNL     1       1.623   8.133  18.869  0.00  0.00    +0.000 NA
ATOM     18  C   UNL     1       1.853   7.889  20.303  0.00  0.00    +0.000 C 
ATOM     19  C   UNL     1       0.656   8.355  21.136  0.00  0.00    +0.000 C 
ATOM     20  C   UNL     1       0.377   9.835  20.910  0.00  0.00    +0.000 C 
ATOM     21  C   UNL     1       0.251  10.131  19.421  0.00  0.00    +0.000 C 
ATOM     22  C   UNL     1       1.443   9.579  18.635  0.00  0.00    +0.000 C 
ENDBRANCH  16  17
ENDBRANCH  15  16
ENDBRANCH   6  15
TORSDOF 5
ENDMDL
MODEL 8
REMARK VINA RESULT:      -6.3      1.816      4.081
REMARK  Name = 
REMARK  6 active torsions:
REMARK  status: ('A' for Active; 'I' for Inactive)
REMARK    1  A    between atoms: C_1  and  O_2
REMARK    2  A    between atoms: O_2  and  C_3
REMARK    3  A    between atoms: C_8  and  C_9
REMARK    4  A    between atoms: N_14  and  C_15
REMARK    5  A    between atoms: C_15  and  C_16
REMARK    6  A    between atoms: C_16  and  N_17
REMARK                            x       y       z     vdW  Elec       q    Type
REMARK                         _______ _______ _______ _____ _____    ______ ____
ROOT
ATOM      1  C   UNL     1       3.366   4.642  17.820  0.00  0.00    +0.000 C 
ATOM      2  S   UNL     1       4.272   3.485  16.740  0.00  0.00    +0.000 S 
ATOM      3  C   UNL     1       5.702   4.559  16.586  0.00  0.00    +0.000 C 
ATOM      4  C   UNL     1       5.408   5.826  17.353  0.00  0.00    +0.000 C 
ATOM      5  O   UNL     1       6.115   6.820  17.239  0.00  0.00    +0.000 OA
ATOM      6  N   UNL     1       4.271   5.727  18.148  0.00  0.00    +0.000 N 
ENDROOT
BRANCH   1  12
ATOM      7  C   UNL     1       3.439   3.182  19.970  0.00  0.00    +0.000 A 
ATOM      8  C   UNL     1       2.739   2.672  21.081  0.00  0.00    +0.000 A 
ATOM      9  C   UNL     1       1.364   2.843  21.227  0.00  0.00    +0.000 A 
ATOM     10  C   UNL     1       0.653   3.495  20.233  0.00  0.00    +0.000 A 
ATOM     11  C   UNL     1       1.332   4.017  19.132  0.00  0.00    +0.000 A 
ATOM     12  C   UNL     1       2.742   3.915  18.988  0.00  0.00    +0.000 A 
BRANCH   7  14
ATOM     13  C   UNL     1       5.101   1.545  20.618  0.00  0.00    +0.000 C 
ATOM     14  O   UNL     1       4.735   2.746  19.966  0.00  0.00    +0.000 OA
ENDBRANCH   7  14
ENDBRANCH   1  12
BRANCH   6  15
ATOM     15  C   UNL     1       3.751   6.909  18.838  0.00  0.00    +0.000 C 
BRANCH  15  16
ATOM     16  C   UNL     1       2.531   7.581  18.162  0.00  0.00    +0.000 C 
BRANCH  16  17
ATOM     17  N   UNL     1       1.934   8.748  18.845  0.00  0.00    +0.000 NA
ATOM     18  C   UNL     1       0.891   9.396  18.030  0.00  0.00    +0.000 C 
ATOM     19  C   UNL     1       0.350  10.646  18.729  0.00  0.00    +0.000 C 
ATOM     20  C   UNL     1      -0.216  10.303  20.101  0.00  0.00    +0.000 C 
ATOM     21  C   UNL     1       0.809   9.529  20.919  0.00  0.00    +0.000 C 
ATOM     22  C   UNL     1       1.364   8.333  20.141  0.00  0.00    +0.000 C 
ENDBRANCH  16  17
ENDBRANCH  15  16
ENDBRANCH   6  15
TORSDOF 5
ENDMDL
MODEL 9
REMARK VINA RESULT:      -6.2      2.819      6.879
REMARK  Name = 
REMARK  6 active torsions:
REMARK  status: ('A' for Active; 'I' for Inactive)
REMARK    1  A    between atoms: C_1  and  O_2
REMARK    2  A    between atoms: O_2  and  C_3
REMARK    3  A    between atoms: C_8  and  C_9
REMARK    4  A    between atoms: N_14  and  C_15
REMARK    5  A    between atoms: C_15  and  C_16
REMARK    6  A    between atoms: C_16  and  N_17
REMARK                            x       y       z     vdW  Elec       q    Type
REMARK                         _______ _______ _______ _____ _____    ______ ____
ROOT
ATOM      1  C   UNL     1       5.586   4.949  18.221  0.00  0.00    +0.000 C 
ATOM      2  S   UNL     1       6.779   5.040  19.596  0.00  0.00    +0.000 S 
ATOM      3  C   UNL     1       7.767   6.319  18.814  0.00  0.00    +0.000 C 
ATOM      4  C   UNL     1       7.156   6.607  17.463  0.00  0.00    +0.000 C 
ATOM      5  O   UNL     1       7.747   7.277  16.625  0.00  0.00    +0.000 OA
ATOM      6  N   UNL     1       5.906   6.021  17.298  0.00  0.00    +0.000 N 
ENDROOT
BRANCH   1  12
ATOM      7  C   UNL     1       3.277   3.826  18.624  0.00  0.00    +0.000 A 
ATOM      8  C   UNL     1       2.029   3.881  19.276  0.00  0.00    +0.000 A 
ATOM      9  C   UNL     1       1.630   4.996  20.010  0.00  0.00    +0.000 A 
ATOM     10  C   UNL     1       2.462   6.102  20.068  0.00  0.00    +0.000 A 
ATOM     11  C   UNL     1       3.706   6.059  19.439  0.00  0.00    +0.000 A 
ATOM     12  C   UNL     1       4.167   4.912  18.738  0.00  0.00    +0.000 A 
BRANCH   7  14
ATOM     13  C   UNL     1       3.600   1.436  18.405  0.00  0.00    +0.000 C 
ATOM     14  O   UNL     1       3.368   2.711  17.838  0.00  0.00    +0.000 OA
ENDBRANCH   7  14
ENDBRANCH   1  12
BRANCH   6  15
ATOM     15  C   UNL     1       5.239   6.066  15.995  0.00  0.00    +0.000 C 
BRANCH  15  16
ATOM     16  C   UNL     1       5.093   4.700  15.283  0.00  0.00    +0.000 C 
BRANCH  16  17
ATOM     17  N   UNL     1       5.603   4.599  13.899  0.00  0.00    +0.000 NA
ATOM     18  C   UNL     1       7.069   4.735  13.835  0.00  0.00    +0.000 C 
ATOM     19  C   UNL     1       7.557   4.706  12.384  0.00  0.00    +0.000 C 
ATOM     20  C   UNL     1       7.137   3.416  11.692  0.00  0.00    +0.000 C 
ATOM     21  C   UNL     1       5.637   3.196  11.847  0.00  0.00    +0.000 C 
ATOM     22  C   UNL     1       5.200   3.307  13.310  0.00  0.00    +0.000 C 
ENDBRANCH  16  17
ENDBRANCH  15  16
ENDBRANCH   6  15
TORSDOF 5
ENDMDL
