MODEL 1
REMARK VINA RESULT:      -7.6      0.000      0.000
REMARK  Name = 
REMARK  16 active torsions:
REMARK  status: ('A' for Active; 'I' for Inactive)
REMARK    1  A    between atoms: C_1  and  N_2
REMARK    2  A    between atoms: N_2  and  C_3
REMARK    3  A    between atoms: C_3  and  C_4
REMARK    4  A    between atoms: C_4  and  C_5
REMARK    5  A    between atoms: C_11  and  C_13
REMARK    6  A    between atoms: C_13  and  C_14
REMARK    7  A    between atoms: C_17  and  O_18
REMARK    8  A    between atoms: O_18  and  C_19
REMARK    9  A    between atoms: C_19  and  C_20
REMARK   10  A    between atoms: C_20  and  O_21
REMARK   11  A    between atoms: O_21  and  C_22
REMARK   12  A    between atoms: C_25  and  C_26
REMARK   13  A    between atoms: C_26  and  C_28
REMARK   14  A    between atoms: C_28  and  C_29
REMARK   15  A    between atoms: C_29  and  C_30
REMARK   16  A    between atoms: C_30  and  O_32
REMARK                            x       y       z     vdW  Elec       q    Type
REMARK                         _______ _______ _______ _____ _____    ______ ____
ROOT
ATOM      1  C   UNL     1       2.198   6.399  19.880  0.00  0.00    +0.000 A 
ATOM      2  C   UNL     1       2.485   6.798  18.573  0.00  0.00    +0.000 A 
ATOM      3  C   UNL     1       2.214   8.101  18.155  0.00  0.00    +0.000 A 
ATOM      4  C   UNL     1       1.658   9.027  19.037  0.00  0.00    +0.000 A 
ATOM      5  C   UNL     1       1.339   8.623  20.335  0.00  0.00    +0.000 A 
ATOM      6  C   UNL     1       1.606   7.318  20.757  0.00  0.00    +0.000 A 
ENDROOT
BRANCH   1   7
ATOM      7  C   UNL     1       2.614   5.028  20.356  0.00  0.00    +0.000 C 
BRANCH   7  10
ATOM      8  C   UNL     1       2.290   2.106  17.916  0.00  0.00    +0.000 C 
ATOM      9  N   UNL     1       2.880   3.297  18.518  0.00  0.00    +0.000 N 
ATOM     10  C   UNL     1       2.056   3.936  19.446  0.00  0.00    +0.000 C 
ATOM     11  O   UNL     1       0.864   3.618  19.551  0.00  0.00    +0.000 OA
BRANCH   9  12
ATOM     12  C   UNL     1       4.324   3.543  18.353  0.00  0.00    +0.000 C 
BRANCH  12  13
ATOM     13  C   UNL     1       4.684   4.622  17.321  0.00  0.00    +0.000 C 
BRANCH  13  14
ATOM     14  C   UNL     1       5.880   5.446  17.732  0.00  0.00    +0.000 A 
ATOM     15  C   UNL     1       6.251   6.575  16.987  0.00  0.00    +0.000 A 
ATOM     16  C   UNL     1       7.334   7.358  17.383  0.00  0.00    +0.000 A 
ATOM     17  C   UNL     1       8.063   7.016  18.521  0.00  0.00    +0.000 A 
ATOM     18  C   UNL     1       7.714   5.886  19.259  0.00  0.00    +0.000 A 
ATOM     19  C   UNL     1       6.628   5.102  18.865  0.00  0.00    +0.000 A 
ENDBRANCH  13  14
ENDBRANCH  12  13
ENDBRANCH   9  12
ENDBRANCH   7  10
ENDBRANCH   1   7
BRANCH   4  20
ATOM     20  O   UNL     1       1.389  10.340  18.756  0.00  0.00    +0.000 OA
BRANCH  20  21
ATOM     21  C   UNL     1       0.468  11.018  19.611  0.00  0.00    +0.000 C 
BRANCH  21  22
ATOM     22  C   UNL     1      -0.399  11.986  18.808  0.00  0.00    +0.000 C 
BRANCH  22  23
ATOM     23  O   UNL     1      -1.382  11.240  18.089  0.00  0.00    +0.000 OA
BRANCH  23  24
ATOM     24  C   UNL     1      -2.682  11.497  18.427  0.00  0.00    +0.000 A 
ATOM     25  C   UNL     1      -3.640  10.832  17.659  0.00  0.00    +0.000 A 
ATOM     26  C   UNL     1      -5.007  11.016  17.907  0.00  0.00    +0.000 A 
ATOM     27  C   UNL     1      -5.422  11.868  18.935  0.00  0.00    +0.000 A 
ATOM     28  C   UNL     1      -4.460  12.501  19.732  0.00  0.00    +0.000 A 
ATOM     29  C   UNL     1      -3.097  12.315  19.476  0.00  0.00    +0.000 A 
BRANCH  27  30
ATOM     30  C   UNL     1      -6.882  12.046  19.173  0.00  0.00    +0.000 C 
ATOM     31  O   UNL     1      -7.528  11.158  19.734  0.00  0.00    +0.000 OA
BRANCH  30  32
ATOM     32  C   UNL     1      -7.565  13.312  18.683  0.00  0.00    +0.000 C 
BRANCH  32  33
ATOM     33  C   UNL     1      -7.384  13.483  17.180  0.00  0.00    +0.000 C 
BRANCH  33  34
ATOM     34  C   UNL     1      -7.059  14.915  16.841  0.00  0.00    +0.000 C 
ATOM     35  O   UNL     1      -6.625  15.718  17.654  0.00  0.00    +0.000 OA
BRANCH  34  36
ATOM     36  O   UNL     1      -7.352  15.251  15.568  0.00  0.00    +0.000 OA
ATOM     37  H   UNL     1      -7.986  14.629  15.138  0.00  0.00    +0.000 HD
ENDBRANCH  34  36
ENDBRANCH  33  34
ENDBRANCH  32  33
ENDBRANCH  30  32
ENDBRANCH  27  30
ENDBRANCH  23  24
ENDBRANCH  22  23
ENDBRANCH  21  22
ENDBRANCH  20  21
ENDBRANCH   4  20
TORSDOF 15
ENDMDL
MODEL 2
REMARK VINA RESULT:      -7.5      3.663      5.253
REMARK  Name = 
REMARK  16 active torsions:
REMARK  status: ('A' for Active; 'I' for Inactive)
REMARK    1  A    between atoms: C_1  and  N_2
REMARK    2  A    between atoms: N_2  and  C_3
REMARK    3  A    between atoms: C_3  and  C_4
REMARK    4  A    between atoms: C_4  and  C_5
REMARK    5  A    between atoms: C_11  and  C_13
REMARK    6  A    between atoms: C_13  and  C_14
REMARK    7  A    between atoms: C_17  and  O_18
REMARK    8  A    between atoms: O_18  and  C_19
REMARK    9  A    between atoms: C_19  and  C_20
REMARK   10  A    between atoms: C_20  and  O_21
REMARK   11  A    between atoms: O_21  and  C_22
REMARK   12  A    between atoms: C_25  and  C_26
REMARK   13  A    between atoms: C_26  and  C_28
REMARK   14  A    between atoms: C_28  and  C_29
REMARK   15  A    between atoms: C_29  and  C_30
REMARK   16  A    between atoms: C_30  and  O_32
REMARK                            x       y       z     vdW  Elec       q    Type
REMARK                         _______ _______ _______ _____ _____    ______ ____
ROOT
ATOM      1  C   UNL     1       4.666   5.926  18.687  0.00  0.00    +0.000 A 
ATOM      2  C   UNL     1       3.655   5.890  19.650  0.00  0.00    +0.000 A 
ATOM      3  C   UNL     1       2.545   6.728  19.542  0.00  0.00    +0.000 A 
ATOM      4  C   UNL     1       2.424   7.610  18.468  0.00  0.00    +0.000 A 
ATOM      5  C   UNL     1       3.448   7.672  17.521  0.00  0.00    +0.000 A 
ATOM      6  C   UNL     1       4.563   6.837  17.626  0.00  0.00    +0.000 A 
ENDROOT
BRANCH   1   7
ATOM      7  C   UNL     1       5.796   4.926  18.745  0.00  0.00    +0.000 C 
BRANCH   7  10
ATOM      8  C   UNL     1       5.869   3.760  15.108  0.00  0.00    +0.000 C 
ATOM      9  N   UNL     1       5.406   3.826  16.490  0.00  0.00    +0.000 N 
ATOM     10  C   UNL     1       6.256   4.534  17.343  0.00  0.00    +0.000 C 
ATOM     11  O   UNL     1       7.390   4.862  16.970  0.00  0.00    +0.000 OA
BRANCH   9  12
ATOM     12  C   UNL     1       4.018   3.444  16.801  0.00  0.00    +0.000 C 
BRANCH  12  13
ATOM     13  C   UNL     1       3.872   2.247  17.753  0.00  0.00    +0.000 C 
BRANCH  13  14
ATOM     14  C   UNL     1       2.970   2.543  18.926  0.00  0.00    +0.000 A 
ATOM     15  C   UNL     1       1.641   2.938  18.715  0.00  0.00    +0.000 A 
ATOM     16  C   UNL     1       0.794   3.178  19.797  0.00  0.00    +0.000 A 
ATOM     17  C   UNL     1       1.270   3.036  21.099  0.00  0.00    +0.000 A 
ATOM     18  C   UNL     1       2.594   2.660  21.321  0.00  0.00    +0.000 A 
ATOM     19  C   UNL     1       3.442   2.416  20.240  0.00  0.00    +0.000 A 
ENDBRANCH  13  14
ENDBRANCH  12  13
ENDBRANCH   9  12
ENDBRANCH   7  10
ENDBRANCH   1   7
BRANCH   4  20
ATOM     20  O   UNL     1       1.366   8.446  18.233  0.00  0.00    +0.000 OA
BRANCH  20  21
ATOM     21  C   UNL     1       1.663   9.791  17.856  0.00  0.00    +0.000 C 
BRANCH  21  22
ATOM     22  C   UNL     1       1.450  10.739  19.034  0.00  0.00    +0.000 C 
BRANCH  22  23
ATOM     23  O   UNL     1       0.305  10.311  19.773  0.00  0.00    +0.000 OA
BRANCH  23  24
ATOM     24  C   UNL     1      -0.157  11.195  20.710  0.00  0.00    +0.000 A 
ATOM     25  C   UNL     1      -0.134  12.537  20.326  0.00  0.00    +0.000 A 
ATOM     26  C   UNL     1      -0.579  13.537  21.199  0.00  0.00    +0.000 A 
ATOM     27  C   UNL     1      -1.055  13.194  22.469  0.00  0.00    +0.000 A 
ATOM     28  C   UNL     1      -1.117  11.845  22.837  0.00  0.00    +0.000 A 
ATOM     29  C   UNL     1      -0.668  10.851  21.960  0.00  0.00    +0.000 A 
BRANCH  27  30
ATOM     30  C   UNL     1      -1.519  14.281  23.378  0.00  0.00    +0.000 C 
ATOM     31  O   UNL     1      -0.854  14.577  24.373  0.00  0.00    +0.000 OA
BRANCH  30  32
ATOM     32  C   UNL     1      -2.831  14.987  23.081  0.00  0.00    +0.000 C 
BRANCH  32  33
ATOM     33  C   UNL     1      -3.841  14.027  22.469  0.00  0.00    +0.000 C 
BRANCH  33  34
ATOM     34  C   UNL     1      -4.695  13.395  23.539  0.00  0.00    +0.000 C 
ATOM     35  O   UNL     1      -5.139  12.260  23.462  0.00  0.00    +0.000 OA
BRANCH  34  36
ATOM     36  O   UNL     1      -4.979  14.224  24.564  0.00  0.00    +0.000 OA
ATOM     37  H   UNL     1      -4.555  15.111  24.477  0.00  0.00    +0.000 HD
ENDBRANCH  34  36
ENDBRANCH  33  34
ENDBRANCH  32  33
ENDBRANCH  30  32
ENDBRANCH  27  30
ENDBRANCH  23  24
ENDBRANCH  22  23
ENDBRANCH  21  22
ENDBRANCH  20  21
ENDBRANCH   4  20
TORSDOF 15
ENDMDL
MODEL 3
REMARK VINA RESULT:      -7.5      3.787     11.417
REMARK  Name = 
REMARK  16 active torsions:
REMARK  status: ('A' for Active; 'I' for Inactive)
REMARK    1  A    between atoms: C_1  and  N_2
REMARK    2  A    between atoms: N_2  and  C_3
REMARK    3  A    between atoms: C_3  and  C_4
REMARK    4  A    between atoms: C_4  and  C_5
REMARK    5  A    between atoms: C_11  and  C_13
REMARK    6  A    between atoms: C_13  and  C_14
REMARK    7  A    between atoms: C_17  and  O_18
REMARK    8  A    between atoms: O_18  and  C_19
REMARK    9  A    between atoms: C_19  and  C_20
REMARK   10  A    between atoms: C_20  and  O_21
REMARK   11  A    between atoms: O_21  and  C_22
REMARK   12  A    between atoms: C_25  and  C_26
REMARK   13  A    between atoms: C_26  and  C_28
REMARK   14  A    between atoms: C_28  and  C_29
REMARK   15  A    between atoms: C_29  and  C_30
REMARK   16  A    between atoms: C_30  and  O_32
REMARK                            x       y       z     vdW  Elec       q    Type
REMARK                         _______ _______ _______ _____ _____    ______ ____
ROOT
ATOM      1  C   UNL     1       1.204   9.454  19.177  0.00  0.00    +0.000 A 
ATOM      2  C   UNL     1       1.942   8.554  18.406  0.00  0.00    +0.000 A 
ATOM      3  C   UNL     1       2.329   7.321  18.934  0.00  0.00    +0.000 A 
ATOM      4  C   UNL     1       1.978   6.967  20.237  0.00  0.00    +0.000 A 
ATOM      5  C   UNL     1       1.268   7.879  21.021  0.00  0.00    +0.000 A 
ATOM      6  C   UNL     1       0.882   9.114  20.498  0.00  0.00    +0.000 A 
ENDROOT
BRANCH   1   7
ATOM      7  C   UNL     1       0.682  10.727  18.552  0.00  0.00    +0.000 C 
BRANCH   7  10
ATOM      8  C   UNL     1      -3.076  11.407  18.448  0.00  0.00    +0.000 C 
ATOM      9  N   UNL     1      -1.725  11.400  18.999  0.00  0.00    +0.000 N 
ATOM     10  C   UNL     1      -0.816  10.628  18.272  0.00  0.00    +0.000 C 
ATOM     11  O   UNL     1      -1.212   9.862  17.384  0.00  0.00    +0.000 OA
BRANCH   9  12
ATOM     12  C   UNL     1      -1.365  12.392  20.028  0.00  0.00    +0.000 C 
BRANCH  12  13
ATOM     13  C   UNL     1      -1.176  11.820  21.441  0.00  0.00    +0.000 C 
BRANCH  13  14
ATOM     14  C   UNL     1      -1.814  12.678  22.507  0.00  0.00    +0.000 A 
ATOM     15  C   UNL     1      -3.123  12.416  22.936  0.00  0.00    +0.000 A 
ATOM     16  C   UNL     1      -3.704  13.184  23.944  0.00  0.00    +0.000 A 
ATOM     17  C   UNL     1      -2.987  14.228  24.526  0.00  0.00    +0.000 A 
ATOM     18  C   UNL     1      -1.691  14.509  24.094  0.00  0.00    +0.000 A 
ATOM     19  C   UNL     1      -1.107  13.739  23.087  0.00  0.00    +0.000 A 
ENDBRANCH  13  14
ENDBRANCH  12  13
ENDBRANCH   9  12
ENDBRANCH   7  10
ENDBRANCH   1   7
BRANCH   4  20
ATOM     20  O   UNL     1       2.262   5.775  20.847  0.00  0.00    +0.000 OA
BRANCH  20  21
ATOM     21  C   UNL     1       1.843   4.582  20.183  0.00  0.00    +0.000 C 
BRANCH  21  22
ATOM     22  C   UNL     1       2.561   3.364  20.761  0.00  0.00    +0.000 C 
BRANCH  22  23
ATOM     23  O   UNL     1       3.144   2.619  19.691  0.00  0.00    +0.000 OA
BRANCH  23  24
ATOM     24  C   UNL     1       3.839   3.354  18.770  0.00  0.00    +0.000 A 
ATOM     25  C   UNL     1       3.244   3.448  17.511  0.00  0.00    +0.000 A 
ATOM     26  C   UNL     1       3.860   4.171  16.482  0.00  0.00    +0.000 A 
ATOM     27  C   UNL     1       5.082   4.811  16.713  0.00  0.00    +0.000 A 
ATOM     28  C   UNL     1       5.657   4.752  17.988  0.00  0.00    +0.000 A 
ATOM     29  C   UNL     1       5.037   4.024  19.010  0.00  0.00    +0.000 A 
BRANCH  27  30
ATOM     30  C   UNL     1       5.716   5.571  15.598  0.00  0.00    +0.000 C 
ATOM     31  O   UNL     1       5.375   6.734  15.374  0.00  0.00    +0.000 OA
BRANCH  30  32
ATOM     32  C   UNL     1       6.752   4.882  14.726  0.00  0.00    +0.000 C 
BRANCH  32  33
ATOM     33  C   UNL     1       6.170   3.639  14.066  0.00  0.00    +0.000 C 
BRANCH  33  34
ATOM     34  C   UNL     1       6.383   3.677  12.574  0.00  0.00    +0.000 C 
ATOM     35  O   UNL     1       7.259   4.338  12.036  0.00  0.00    +0.000 OA
BRANCH  34  36
ATOM     36  O   UNL     1       5.474   2.964  11.878  0.00  0.00    +0.000 OA
ATOM     37  H   UNL     1       4.999   2.296  12.428  0.00  0.00    +0.000 HD
ENDBRANCH  34  36
ENDBRANCH  33  34
ENDBRANCH  32  33
ENDBRANCH  30  32
ENDBRANCH  27  30
ENDBRANCH  23  24
ENDBRANCH  22  23
ENDBRANCH  21  22
ENDBRANCH  20  21
ENDBRANCH   4  20
TORSDOF 15
ENDMDL
MODEL 4
REMARK VINA RESULT:      -7.4      3.068      5.115
REMARK  Name = 
REMARK  16 active torsions:
REMARK  status: ('A' for Active; 'I' for Inactive)
REMARK    1  A    between atoms: C_1  and  N_2
REMARK    2  A    between atoms: N_2  and  C_3
REMARK    3  A    between atoms: C_3  and  C_4
REMARK    4  A    between atoms: C_4  and  C_5
REMARK    5  A    between atoms: C_11  and  C_13
REMARK    6  A    between atoms: C_13  and  C_14
REMARK    7  A    between atoms: C_17  and  O_18
REMARK    8  A    between atoms: O_18  and  C_19
REMARK    9  A    between atoms: C_19  and  C_20
REMARK   10  A    between atoms: C_20  and  O_21
REMARK   11  A    between atoms: O_21  and  C_22
REMARK   12  A    between atoms: C_25  and  C_26
REMARK   13  A    between atoms: C_26  and  C_28
REMARK   14  A    between atoms: C_28  and  C_29
REMARK   15  A    between atoms: C_29  and  C_30
REMARK   16  A    between atoms: C_30  and  O_32
REMARK                            x       y       z     vdW  Elec       q    Type
REMARK                         _______ _______ _______ _____ _____    ______ ____
ROOT
ATOM      1  C   UNL     1       5.219   5.837  18.462  0.00  0.00    +0.000 A 
ATOM      2  C   UNL     1       4.296   5.645  19.493  0.00  0.00    +0.000 A 
ATOM      3  C   UNL     1       3.106   6.375  19.522  0.00  0.00    +0.000 A 
ATOM      4  C   UNL     1       2.818   7.301  18.519  0.00  0.00    +0.000 A 
ATOM      5  C   UNL     1       3.754   7.518  17.505  0.00  0.00    +0.000 A 
ATOM      6  C   UNL     1       4.947   6.792  17.474  0.00  0.00    +0.000 A 
ENDROOT
BRANCH   1   7
ATOM      7  C   UNL     1       6.439   4.951  18.372  0.00  0.00    +0.000 C 
BRANCH   7  10
ATOM      8  C   UNL     1       5.825   3.572  14.863  0.00  0.00    +0.000 C 
ATOM      9  N   UNL     1       5.590   3.774  16.288  0.00  0.00    +0.000 N 
ATOM     10  C   UNL     1       6.633   4.425  16.952  0.00  0.00    +0.000 C 
ATOM     11  O   UNL     1       7.724   4.594  16.393  0.00  0.00    +0.000 OA
BRANCH   9  12
ATOM     12  C   UNL     1       4.233   3.578  16.827  0.00  0.00    +0.000 C 
BRANCH  12  13
ATOM     13  C   UNL     1       4.053   2.318  17.688  0.00  0.00    +0.000 C 
BRANCH  13  14
ATOM     14  C   UNL     1       3.064   2.517  18.811  0.00  0.00    +0.000 A 
ATOM     15  C   UNL     1       3.497   2.511  20.144  0.00  0.00    +0.000 A 
ATOM     16  C   UNL     1       2.592   2.728  21.183  0.00  0.00    +0.000 A 
ATOM     17  C   UNL     1       1.245   2.943  20.899  0.00  0.00    +0.000 A 
ATOM     18  C   UNL     1       0.800   2.933  19.578  0.00  0.00    +0.000 A 
ATOM     19  C   UNL     1       1.705   2.718  18.537  0.00  0.00    +0.000 A 
ENDBRANCH  13  14
ENDBRANCH  12  13
ENDBRANCH   9  12
ENDBRANCH   7  10
ENDBRANCH   1   7
BRANCH   4  20
ATOM     20  O   UNL     1       1.671   8.041  18.417  0.00  0.00    +0.000 OA
BRANCH  20  21
ATOM     21  C   UNL     1       1.761   9.304  17.758  0.00  0.00    +0.000 C 
BRANCH  21  22
ATOM     22  C   UNL     1       1.289  10.427  18.679  0.00  0.00    +0.000 C 
BRANCH  22  23
ATOM     23  O   UNL     1       0.899   9.864  19.933  0.00  0.00    +0.000 OA
BRANCH  23  24
ATOM     24  C   UNL     1       0.138  10.673  20.732  0.00  0.00    +0.000 A 
ATOM     25  C   UNL     1      -0.250  10.113  21.950  0.00  0.00    +0.000 A 
ATOM     26  C   UNL     1      -1.034  10.842  22.854  0.00  0.00    +0.000 A 
ATOM     27  C   UNL     1      -1.431  12.145  22.540  0.00  0.00    +0.000 A 
ATOM     28  C   UNL     1      -1.006  12.721  21.337  0.00  0.00    +0.000 A 
ATOM     29  C   UNL     1      -0.226  11.986  20.438  0.00  0.00    +0.000 A 
BRANCH  27  30
ATOM     30  C   UNL     1      -2.267  12.895  23.520  0.00  0.00    +0.000 C 
ATOM     31  O   UNL     1      -1.859  13.959  23.992  0.00  0.00    +0.000 OA
BRANCH  30  32
ATOM     32  C   UNL     1      -3.603  12.314  23.954  0.00  0.00    +0.000 C 
BRANCH  32  33
ATOM     33  C   UNL     1      -4.750  13.235  23.563  0.00  0.00    +0.000 C 
BRANCH  33  34
ATOM     34  C   UNL     1      -5.026  13.148  22.084  0.00  0.00    +0.000 C 
ATOM     35  O   UNL     1      -4.630  13.975  21.276  0.00  0.00    +0.000 OA
BRANCH  34  36
ATOM     36  O   UNL     1      -5.807  12.104  21.739  0.00  0.00    +0.000 OA
ATOM     37  H   UNL     1      -6.694  12.121  22.172  0.00  0.00    +0.000 HD
ENDBRANCH  34  36
ENDBRANCH  33  34
ENDBRANCH  32  33
ENDBRANCH  30  32
ENDBRANCH  27  30
ENDBRANCH  23  24
ENDBRANCH  22  23
ENDBRANCH  21  22
ENDBRANCH  20  21
ENDBRANCH   4  20
TORSDOF 15
ENDMDL
MODEL 5
REMARK VINA RESULT:      -7.3      3.897     10.998
REMARK  Name = 
REMARK  16 active torsions:
REMARK  status: ('A' for Active; 'I' for Inactive)
REMARK    1  A    between atoms: C_1  and  N_2
REMARK    2  A    between atoms: N_2  and  C_3
REMARK    3  A    between atoms: C_3  and  C_4
REMARK    4  A    between atoms: C_4  and  C_5
REMARK    5  A    between atoms: C_11  and  C_13
REMARK    6  A    between atoms: C_13  and  C_14
REMARK    7  A    between atoms: C_17  and  O_18
REMARK    8  A    between atoms: O_18  and  C_19
REMARK    9  A    between atoms: C_19  and  C_20
REMARK   10  A    between atoms: C_20  and  O_21
REMARK   11  A    between atoms: O_21  and  C_22
REMARK   12  A    between atoms: C_25  and  C_26
REMARK   13  A    between atoms: C_26  and  C_28
REMARK   14  A    between atoms: C_28  and  C_29
REMARK   15  A    between atoms: C_29  and  C_30
REMARK   16  A    between atoms: C_30  and  O_32
REMARK                            x       y       z     vdW  Elec       q    Type
REMARK                         _______ _______ _______ _____ _____    ______ ____
ROOT
ATOM      1  C   UNL     1       1.340  10.176  19.132  0.00  0.00    +0.000 A 
ATOM      2  C   UNL     1       0.992   9.645  20.376  0.00  0.00    +0.000 A 
ATOM      3  C   UNL     1       1.312   8.325  20.696  0.00  0.00    +0.000 A 
ATOM      4  C   UNL     1       1.990   7.518  19.782  0.00  0.00    +0.000 A 
ATOM      5  C   UNL     1       2.310   8.035  18.525  0.00  0.00    +0.000 A 
ATOM      6  C   UNL     1       1.989   9.355  18.199  0.00  0.00    +0.000 A 
ENDROOT
BRANCH   1   7
ATOM      7  C   UNL     1       1.104  11.640  18.847  0.00  0.00    +0.000 C 
BRANCH   7  10
ATOM      8  C   UNL     1      -0.381  13.559  21.798  0.00  0.00    +0.000 C 
ATOM      9  N   UNL     1      -0.270  13.079  20.425  0.00  0.00    +0.000 N 
ATOM     10  C   UNL     1       0.935  12.431  20.142  0.00  0.00    +0.000 C 
ATOM     11  O   UNL     1       1.878  12.482  20.943  0.00  0.00    +0.000 OA
BRANCH   9  12
ATOM     12  C   UNL     1      -1.478  13.030  19.582  0.00  0.00    +0.000 C 
BRANCH  12  13
ATOM     13  C   UNL     1      -2.284  11.726  19.681  0.00  0.00    +0.000 C 
BRANCH  13  14
ATOM     14  C   UNL     1      -2.742  11.221  18.334  0.00  0.00    +0.000 A 
ATOM     15  C   UNL     1      -3.954  11.665  17.787  0.00  0.00    +0.000 A 
ATOM     16  C   UNL     1      -4.364  11.227  16.528  0.00  0.00    +0.000 A 
ATOM     17  C   UNL     1      -3.573  10.334  15.809  0.00  0.00    +0.000 A 
ATOM     18  C   UNL     1      -2.374   9.872  16.351  0.00  0.00    +0.000 A 
ATOM     19  C   UNL     1      -1.961  10.311  17.610  0.00  0.00    +0.000 A 
ENDBRANCH  13  14
ENDBRANCH  12  13
ENDBRANCH   9  12
ENDBRANCH   7  10
ENDBRANCH   1   7
BRANCH   4  20
ATOM     20  O   UNL     1       2.394   6.228  19.998  0.00  0.00    +0.000 OA
BRANCH  20  21
ATOM     21  C   UNL     1       1.578   5.417  20.844  0.00  0.00    +0.000 C 
BRANCH  21  22
ATOM     22  C   UNL     1       0.822   4.374  20.023  0.00  0.00    +0.000 C 
BRANCH  22  23
ATOM     23  O   UNL     1       1.644   3.214  19.879  0.00  0.00    +0.000 OA
BRANCH  23  24
ATOM     24  C   UNL     1       2.783   3.386  19.141  0.00  0.00    +0.000 A 
ATOM     25  C   UNL     1       2.582   3.811  17.826  0.00  0.00    +0.000 A 
ATOM     26  C   UNL     1       3.671   4.020  16.970  0.00  0.00    +0.000 A 
ATOM     27  C   UNL     1       4.974   3.807  17.431  0.00  0.00    +0.000 A 
ATOM     28  C   UNL     1       5.176   3.422  18.762  0.00  0.00    +0.000 A 
ATOM     29  C   UNL     1       4.083   3.212  19.611  0.00  0.00    +0.000 A 
BRANCH  27  30
ATOM     30  C   UNL     1       6.111   4.034  16.496  0.00  0.00    +0.000 C 
ATOM     31  O   UNL     1       6.003   3.725  15.307  0.00  0.00    +0.000 OA
BRANCH  30  32
ATOM     32  C   UNL     1       7.409   4.614  17.033  0.00  0.00    +0.000 C 
BRANCH  32  33
ATOM     33  C   UNL     1       7.140   5.806  17.941  0.00  0.00    +0.000 C 
BRANCH  33  34
ATOM     34  C   UNL     1       6.854   7.043  17.128  0.00  0.00    +0.000 C 
ATOM     35  O   UNL     1       5.845   7.187  16.454  0.00  0.00    +0.000 OA
BRANCH  34  36
ATOM     36  O   UNL     1       7.848   7.954  17.161  0.00  0.00    +0.000 OA
ATOM     37  H   UNL     1       8.748   7.549  17.186  0.00  0.00    +0.000 HD
ENDBRANCH  34  36
ENDBRANCH  33  34
ENDBRANCH  32  33
ENDBRANCH  30  32
ENDBRANCH  27  30
ENDBRANCH  23  24
ENDBRANCH  22  23
ENDBRANCH  21  22
ENDBRANCH  20  21
ENDBRANCH   4  20
TORSDOF 15
ENDMDL
MODEL 6
REMARK VINA RESULT:      -7.3      3.608      5.490
REMARK  Name = 
REMARK  16 active torsions:
REMARK  status: ('A' for Active; 'I' for Inactive)
REMARK    1  A    between atoms: C_1  and  N_2
REMARK    2  A    between atoms: N_2  and  C_3
REMARK    3  A    between atoms: C_3  and  C_4
REMARK    4  A    between atoms: C_4  and  C_5
REMARK    5  A    between atoms: C_11  and  C_13
REMARK    6  A    between atoms: C_13  and  C_14
REMARK    7  A    between atoms: C_17  and  O_18
REMARK    8  A    between atoms: O_18  and  C_19
REMARK    9  A    between atoms: C_19  and  C_20
REMARK   10  A    between atoms: C_20  and  O_21
REMARK   11  A    between atoms: O_21  and  C_22
REMARK   12  A    between atoms: C_25  and  C_26
REMARK   13  A    between atoms: C_26  and  C_28
REMARK   14  A    between atoms: C_28  and  C_29
REMARK   15  A    between atoms: C_29  and  C_30
REMARK   16  A    between atoms: C_30  and  O_32
REMARK                            x       y       z     vdW  Elec       q    Type
REMARK                         _______ _______ _______ _____ _____    ______ ____
ROOT
ATOM      1  C   UNL     1       4.555   6.031  18.629  0.00  0.00    +0.000 A 
ATOM      2  C   UNL     1       3.425   6.027  19.450  0.00  0.00    +0.000 A 
ATOM      3  C   UNL     1       2.373   6.910  19.210  0.00  0.00    +0.000 A 
ATOM      4  C   UNL     1       2.429   7.806  18.142  0.00  0.00    +0.000 A 
ATOM      5  C   UNL     1       3.570   7.836  17.339  0.00  0.00    +0.000 A 
ATOM      6  C   UNL     1       4.628   6.955  17.577  0.00  0.00    +0.000 A 
ENDROOT
BRANCH   1   7
ATOM      7  C   UNL     1       5.627   4.985  18.820  0.00  0.00    +0.000 C 
BRANCH   7  10
ATOM      8  C   UNL     1       5.901   3.611  15.266  0.00  0.00    +0.000 C 
ATOM      9  N   UNL     1       5.348   3.773  16.607  0.00  0.00    +0.000 N 
ATOM     10  C   UNL     1       6.166   4.497  17.478  0.00  0.00    +0.000 C 
ATOM     11  O   UNL     1       7.334   4.762  17.167  0.00  0.00    +0.000 OA
BRANCH   9  12
ATOM     12  C   UNL     1       3.927   3.459  16.840  0.00  0.00    +0.000 C 
BRANCH  12  13
ATOM     13  C   UNL     1       3.672   2.227  17.720  0.00  0.00    +0.000 C 
BRANCH  13  14
ATOM     14  C   UNL     1       2.831   2.542  18.934  0.00  0.00    +0.000 A 
ATOM     15  C   UNL     1       3.385   2.454  20.219  0.00  0.00    +0.000 A 
ATOM     16  C   UNL     1       2.622   2.777  21.341  0.00  0.00    +0.000 A 
ATOM     17  C   UNL     1       1.297   3.182  21.190  0.00  0.00    +0.000 A 
ATOM     18  C   UNL     1       0.732   3.256  19.918  0.00  0.00    +0.000 A 
ATOM     19  C   UNL     1       1.494   2.935  18.794  0.00  0.00    +0.000 A 
ENDBRANCH  13  14
ENDBRANCH  12  13
ENDBRANCH   9  12
ENDBRANCH   7  10
ENDBRANCH   1   7
BRANCH   4  20
ATOM     20  O   UNL     1       1.444   8.687  17.783  0.00  0.00    +0.000 OA
BRANCH  20  21
ATOM     21  C   UNL     1       1.281   9.854  18.589  0.00  0.00    +0.000 C 
BRANCH  21  22
ATOM     22  C   UNL     1      -0.114   9.886  19.211  0.00  0.00    +0.000 C 
BRANCH  22  23
ATOM     23  O   UNL     1       0.007  10.171  20.606  0.00  0.00    +0.000 OA
BRANCH  23  24
ATOM     24  C   UNL     1      -0.776  11.193  21.070  0.00  0.00    +0.000 A 
ATOM     25  C   UNL     1      -0.864  11.293  22.459  0.00  0.00    +0.000 A 
ATOM     26  C   UNL     1      -1.638  12.297  23.055  0.00  0.00    +0.000 A 
ATOM     27  C   UNL     1      -2.328  13.214  22.255  0.00  0.00    +0.000 A 
ATOM     28  C   UNL     1      -2.205  13.139  20.863  0.00  0.00    +0.000 A 
ATOM     29  C   UNL     1      -1.432  12.131  20.275  0.00  0.00    +0.000 A 
BRANCH  27  30
ATOM     30  C   UNL     1      -3.146  14.269  22.918  0.00  0.00    +0.000 C 
ATOM     31  O   UNL     1      -4.122  13.953  23.602  0.00  0.00    +0.000 OA
BRANCH  30  32
ATOM     32  C   UNL     1      -2.784  15.730  22.709  0.00  0.00    +0.000 C 
BRANCH  32  33
ATOM     33  C   UNL     1      -2.229  16.343  23.988  0.00  0.00    +0.000 C 
BRANCH  33  34
ATOM     34  C   UNL     1      -0.882  15.754  24.321  0.00  0.00    +0.000 C 
ATOM     35  O   UNL     1       0.026  15.648  23.510  0.00  0.00    +0.000 OA
BRANCH  34  36
ATOM     36  O   UNL     1      -0.790  15.293  25.585  0.00  0.00    +0.000 OA
ATOM     37  H   UNL     1      -0.619  16.004  26.248  0.00  0.00    +0.000 HD
ENDBRANCH  34  36
ENDBRANCH  33  34
ENDBRANCH  32  33
ENDBRANCH  30  32
ENDBRANCH  27  30
ENDBRANCH  23  24
ENDBRANCH  22  23
ENDBRANCH  21  22
ENDBRANCH  20  21
ENDBRANCH   4  20
TORSDOF 15
ENDMDL
MODEL 7
REMARK VINA RESULT:      -7.2      2.351      3.154
REMARK  Name = 
REMARK  16 active torsions:
REMARK  status: ('A' for Active; 'I' for Inactive)
REMARK    1  A    between atoms: C_1  and  N_2
REMARK    2  A    between atoms: N_2  and  C_3
REMARK    3  A    between atoms: C_3  and  C_4
REMARK    4  A    between atoms: C_4  and  C_5
REMARK    5  A    between atoms: C_11  and  C_13
REMARK    6  A    between atoms: C_13  and  C_14
REMARK    7  A    between atoms: C_17  and  O_18
REMARK    8  A    between atoms: O_18  and  C_19
REMARK    9  A    between atoms: C_19  and  C_20
REMARK   10  A    between atoms: C_20  and  O_21
REMARK   11  A    between atoms: O_21  and  C_22
REMARK   12  A    between atoms: C_25  and  C_26
REMARK   13  A    between atoms: C_26  and  C_28
REMARK   14  A    between atoms: C_28  and  C_29
REMARK   15  A    between atoms: C_29  and  C_30
REMARK   16  A    between atoms: C_30  and  O_32
REMARK                            x       y       z     vdW  Elec       q    Type
REMARK                         _______ _______ _______ _____ _____    ______ ____
ROOT
ATOM      1  C   UNL     1       2.214   7.121  19.578  0.00  0.00    +0.000 A 
ATOM      2  C   UNL     1       2.345   7.871  18.407  0.00  0.00    +0.000 A 
ATOM      3  C   UNL     1       1.723   9.115  18.291  0.00  0.00    +0.000 A 
ATOM      4  C   UNL     1       0.969   9.631  19.344  0.00  0.00    +0.000 A 
ATOM      5  C   UNL     1       0.809   8.870  20.504  0.00  0.00    +0.000 A 
ATOM      6  C   UNL     1       1.427   7.623  20.623  0.00  0.00    +0.000 A 
ENDROOT
BRANCH   1   7
ATOM      7  C   UNL     1       2.996   5.839  19.739  0.00  0.00    +0.000 C 
BRANCH   7  10
ATOM      8  C   UNL     1       1.074   2.618  19.012  0.00  0.00    +0.000 C 
ATOM      9  N   UNL     1       1.746   3.879  18.717  0.00  0.00    +0.000 N 
ATOM     10  C   UNL     1       2.062   4.636  19.848  0.00  0.00    +0.000 C 
ATOM     11  O   UNL     1       1.597   4.334  20.955  0.00  0.00    +0.000 OA
BRANCH   9  12
ATOM     12  C   UNL     1       2.293   4.101  17.367  0.00  0.00    +0.000 C 
BRANCH  12  13
ATOM     13  C   UNL     1       3.520   3.246  17.016  0.00  0.00    +0.000 C 
BRANCH  13  14
ATOM     14  C   UNL     1       4.804   4.039  17.020  0.00  0.00    +0.000 A 
ATOM     15  C   UNL     1       5.332   4.537  15.820  0.00  0.00    +0.000 A 
ATOM     16  C   UNL     1       6.499   5.299  15.824  0.00  0.00    +0.000 A 
ATOM     17  C   UNL     1       7.156   5.563  17.024  0.00  0.00    +0.000 A 
ATOM     18  C   UNL     1       6.649   5.059  18.221  0.00  0.00    +0.000 A 
ATOM     19  C   UNL     1       5.479   4.298  18.220  0.00  0.00    +0.000 A 
ENDBRANCH  13  14
ENDBRANCH  12  13
ENDBRANCH   9  12
ENDBRANCH   7  10
ENDBRANCH   1   7
BRANCH   4  20
ATOM     20  O   UNL     1       0.351  10.853  19.364  0.00  0.00    +0.000 OA
BRANCH  20  21
ATOM     21  C   UNL     1       0.938  11.873  20.172  0.00  0.00    +0.000 C 
BRANCH  21  22
ATOM     22  C   UNL     1       0.180  13.189  20.014  0.00  0.00    +0.000 C 
BRANCH  22  23
ATOM     23  O   UNL     1      -0.446  13.516  21.256  0.00  0.00    +0.000 OA
BRANCH  23  24
ATOM     24  C   UNL     1      -1.777  13.211  21.344  0.00  0.00    +0.000 A 
ATOM     25  C   UNL     1      -2.505  13.371  20.164  0.00  0.00    +0.000 A 
ATOM     26  C   UNL     1      -3.877  13.093  20.129  0.00  0.00    +0.000 A 
ATOM     27  C   UNL     1      -4.529  12.646  21.283  0.00  0.00    +0.000 A 
ATOM     28  C   UNL     1      -3.790  12.445  22.454  0.00  0.00    +0.000 A 
ATOM     29  C   UNL     1      -2.420  12.728  22.483  0.00  0.00    +0.000 A 
BRANCH  27  30
ATOM     30  C   UNL     1      -5.991  12.362  21.215  0.00  0.00    +0.000 C 
ATOM     31  O   UNL     1      -6.787  13.077  21.829  0.00  0.00    +0.000 OA
BRANCH  30  32
ATOM     32  C   UNL     1      -6.478  11.166  20.415  0.00  0.00    +0.000 C 
BRANCH  32  33
ATOM     33  C   UNL     1      -7.719  10.554  21.050  0.00  0.00    +0.000 C 
BRANCH  33  34
ATOM     34  C   UNL     1      -7.838   9.095  20.691  0.00  0.00    +0.000 C 
ATOM     35  O   UNL     1      -7.915   8.201  21.521  0.00  0.00    +0.000 OA
BRANCH  34  36
ATOM     36  O   UNL     1      -7.788   8.857  19.364  0.00  0.00    +0.000 OA
ATOM     37  H   UNL     1      -7.578   9.662  18.832  0.00  0.00    +0.000 HD
ENDBRANCH  34  36
ENDBRANCH  33  34
ENDBRANCH  32  33
ENDBRANCH  30  32
ENDBRANCH  27  30
ENDBRANCH  23  24
ENDBRANCH  22  23
ENDBRANCH  21  22
ENDBRANCH  20  21
ENDBRANCH   4  20
TORSDOF 15
ENDMDL
MODEL 8
REMARK VINA RESULT:      -7.2      4.100      6.800
REMARK  Name = 
REMARK  16 active torsions:
REMARK  status: ('A' for Active; 'I' for Inactive)
REMARK    1  A    between atoms: C_1  and  N_2
REMARK    2  A    between atoms: N_2  and  C_3
REMARK    3  A    between atoms: C_3  and  C_4
REMARK    4  A    between atoms: C_4  and  C_5
REMARK    5  A    between atoms: C_11  and  C_13
REMARK    6  A    between atoms: C_13  and  C_14
REMARK    7  A    between atoms: C_17  and  O_18
REMARK    8  A    between atoms: O_18  and  C_19
REMARK    9  A    between atoms: C_19  and  C_20
REMARK   10  A    between atoms: C_20  and  O_21
REMARK   11  A    between atoms: O_21  and  C_22
REMARK   12  A    between atoms: C_25  and  C_26
REMARK   13  A    between atoms: C_26  and  C_28
REMARK   14  A    between atoms: C_28  and  C_29
REMARK   15  A    between atoms: C_29  and  C_30
REMARK   16  A    between atoms: C_30  and  O_32
REMARK                            x       y       z     vdW  Elec       q    Type
REMARK                         _______ _______ _______ _____ _____    ______ ____
ROOT
ATOM      1  C   UNL     1       3.132   7.279  18.015  0.00  0.00    +0.000 A 
ATOM      2  C   UNL     1       2.866   6.697  19.256  0.00  0.00    +0.000 A 
ATOM      3  C   UNL     1       2.005   7.321  20.160  0.00  0.00    +0.000 A 
ATOM      4  C   UNL     1       1.391   8.531  19.834  0.00  0.00    +0.000 A 
ATOM      5  C   UNL     1       1.681   9.131  18.608  0.00  0.00    +0.000 A 
ATOM      6  C   UNL     1       2.545   8.512  17.701  0.00  0.00    +0.000 A 
ENDROOT
BRANCH   1   7
ATOM      7  C   UNL     1       3.962   6.532  16.997  0.00  0.00    +0.000 C 
BRANCH   7  10
ATOM      8  C   UNL     1       7.359   5.142  18.058  0.00  0.00    +0.000 C 
ATOM      9  N   UNL     1       5.907   5.182  17.913  0.00  0.00    +0.000 N 
ATOM     10  C   UNL     1       5.413   6.406  17.457  0.00  0.00    +0.000 C 
ATOM     11  O   UNL     1       6.147   7.401  17.408  0.00  0.00    +0.000 OA
BRANCH   9  12
ATOM     12  C   UNL     1       5.148   3.919  17.949  0.00  0.00    +0.000 C 
BRANCH  12  13
ATOM     13  C   UNL     1       4.770   3.430  19.355  0.00  0.00    +0.000 C 
BRANCH  13  14
ATOM     14  C   UNL     1       3.280   3.277  19.538  0.00  0.00    +0.000 A 
ATOM     15  C   UNL     1       2.448   3.080  18.427  0.00  0.00    +0.000 A 
ATOM     16  C   UNL     1       1.074   2.904  18.595  0.00  0.00    +0.000 A 
ATOM     17  C   UNL     1       0.519   2.934  19.872  0.00  0.00    +0.000 A 
ATOM     18  C   UNL     1       1.334   3.146  20.983  0.00  0.00    +0.000 A 
ATOM     19  C   UNL     1       2.710   3.320  20.817  0.00  0.00    +0.000 A 
ENDBRANCH  13  14
ENDBRANCH  12  13
ENDBRANCH   9  12
ENDBRANCH   7  10
ENDBRANCH   1   7
BRANCH   4  20
ATOM     20  O   UNL     1       0.499   9.212  20.617  0.00  0.00    +0.000 OA
BRANCH  20  21
ATOM     21  C   UNL     1       0.143  10.534  20.210  0.00  0.00    +0.000 C 
BRANCH  21  22
ATOM     22  C   UNL     1       0.036  11.459  21.420  0.00  0.00    +0.000 C 
BRANCH  22  23
ATOM     23  O   UNL     1      -0.764  12.590  21.069  0.00  0.00    +0.000 OA
BRANCH  23  24
ATOM     24  C   UNL     1      -0.099  13.615  20.454  0.00  0.00    +0.000 A 
ATOM     25  C   UNL     1       1.028  14.085  21.129  0.00  0.00    +0.000 A 
ATOM     26  C   UNL     1       1.791  15.134  20.601  0.00  0.00    +0.000 A 
ATOM     27  C   UNL     1       1.427  15.718  19.384  0.00  0.00    +0.000 A 
ATOM     28  C   UNL     1       0.321  15.218  18.686  0.00  0.00    +0.000 A 
ATOM     29  C   UNL     1      -0.438  14.172  19.222  0.00  0.00    +0.000 A 
BRANCH  27  30
ATOM     30  C   UNL     1       2.257  16.835  18.849  0.00  0.00    +0.000 C 
ATOM     31  O   UNL     1       2.313  17.907  19.456  0.00  0.00    +0.000 OA
BRANCH  30  32
ATOM     32  C   UNL     1       2.996  16.647  17.534  0.00  0.00    +0.000 C 
BRANCH  32  33
ATOM     33  C   UNL     1       4.011  15.517  17.636  0.00  0.00    +0.000 C 
BRANCH  33  34
ATOM     34  C   UNL     1       5.073  15.843  18.654  0.00  0.00    +0.000 C 
ATOM     35  O   UNL     1       5.822  16.805  18.561  0.00  0.00    +0.000 OA
BRANCH  34  36
ATOM     36  O   UNL     1       5.167  14.937  19.649  0.00  0.00    +0.000 OA
ATOM     37  H   UNL     1       4.995  15.320  20.542  0.00  0.00    +0.000 HD
ENDBRANCH  34  36
ENDBRANCH  33  34
ENDBRANCH  32  33
ENDBRANCH  30  32
ENDBRANCH  27  30
ENDBRANCH  23  24
ENDBRANCH  22  23
ENDBRANCH  21  22
ENDBRANCH  20  21
ENDBRANCH   4  20
TORSDOF 15
ENDMDL
MODEL 9
REMARK VINA RESULT:      -7.2      2.931      4.711
REMARK  Name = 
REMARK  16 active torsions:
REMARK  status: ('A' for Active; 'I' for Inactive)
REMARK    1  A    between atoms: C_1  and  N_2
REMARK    2  A    between atoms: N_2  and  C_3
REMARK    3  A    between atoms: C_3  and  C_4
REMARK    4  A    between atoms: C_4  and  C_5
REMARK    5  A    between atoms: C_11  and  C_13
REMARK    6  A    between atoms: C_13  and  C_14
REMARK    7  A    between atoms: C_17  and  O_18
REMARK    8  A    between atoms: O_18  and  C_19
REMARK    9  A    between atoms: C_19  and  C_20
REMARK   10  A    between atoms: C_20  and  O_21
REMARK   11  A    between atoms: O_21  and  C_22
REMARK   12  A    between atoms: C_25  and  C_26
REMARK   13  A    between atoms: C_26  and  C_28
REMARK   14  A    between atoms: C_28  and  C_29
REMARK   15  A    between atoms: C_29  and  C_30
REMARK   16  A    between atoms: C_30  and  O_32
REMARK                            x       y       z     vdW  Elec       q    Type
REMARK                         _______ _______ _______ _____ _____    ______ ____
ROOT
ATOM      1  C   UNL     1       3.144   7.558  17.833  0.00  0.00    +0.000 A 
ATOM      2  C   UNL     1       2.887   6.828  18.996  0.00  0.00    +0.000 A 
ATOM      3  C   UNL     1       1.941   7.277  19.918  0.00  0.00    +0.000 A 
ATOM      4  C   UNL     1       1.233   8.457  19.690  0.00  0.00    +0.000 A 
ATOM      5  C   UNL     1       1.510   9.206  18.545  0.00  0.00    +0.000 A 
ATOM      6  C   UNL     1       2.458   8.762  17.620  0.00  0.00    +0.000 A 
ENDROOT
BRANCH   1   7
ATOM      7  C   UNL     1       4.073   6.997  16.783  0.00  0.00    +0.000 C 
BRANCH   7  10
ATOM      8  C   UNL     1       6.803   4.530  17.810  0.00  0.00    +0.000 C 
ATOM      9  N   UNL     1       5.471   4.973  17.413  0.00  0.00    +0.000 N 
ATOM     10  C   UNL     1       5.305   6.360  17.423  0.00  0.00    +0.000 C 
ATOM     11  O   UNL     1       6.159   7.091  17.940  0.00  0.00    +0.000 OA
BRANCH   9  12
ATOM     12  C   UNL     1       4.558   4.013  16.768  0.00  0.00    +0.000 C 
BRANCH  12  13
ATOM     13  C   UNL     1       4.228   2.769  17.607  0.00  0.00    +0.000 C 
BRANCH  13  14
ATOM     14  C   UNL     1       3.184   3.039  18.663  0.00  0.00    +0.000 A 
ATOM     15  C   UNL     1       1.821   2.929  18.355  0.00  0.00    +0.000 A 
ATOM     16  C   UNL     1       0.854   3.144  19.337  0.00  0.00    +0.000 A 
ATOM     17  C   UNL     1       1.241   3.481  20.633  0.00  0.00    +0.000 A 
ATOM     18  C   UNL     1       2.593   3.610  20.947  0.00  0.00    +0.000 A 
ATOM     19  C   UNL     1       3.562   3.393  19.966  0.00  0.00    +0.000 A 
ENDBRANCH  13  14
ENDBRANCH  12  13
ENDBRANCH   9  12
ENDBRANCH   7  10
ENDBRANCH   1   7
BRANCH   4  20
ATOM     20  O   UNL     1       0.255   8.973  20.498  0.00  0.00    +0.000 OA
BRANCH  20  21
ATOM     21  C   UNL     1       0.630   9.353  21.822  0.00  0.00    +0.000 C 
BRANCH  21  22
ATOM     22  C   UNL     1       0.517  10.866  21.999  0.00  0.00    +0.000 C 
BRANCH  22  23
ATOM     23  O   UNL     1      -0.480  11.144  22.983  0.00  0.00    +0.000 OA
BRANCH  23  24
ATOM     24  C   UNL     1      -1.512  11.942  22.568  0.00  0.00    +0.000 A 
ATOM     25  C   UNL     1      -2.545  12.109  23.492  0.00  0.00    +0.000 A 
ATOM     26  C   UNL     1      -3.658  12.901  23.183  0.00  0.00    +0.000 A 
ATOM     27  C   UNL     1      -3.739  13.537  21.939  0.00  0.00    +0.000 A 
ATOM     28  C   UNL     1      -2.683  13.403  21.030  0.00  0.00    +0.000 A 
ATOM     29  C   UNL     1      -1.575  12.607  21.345  0.00  0.00    +0.000 A 
BRANCH  27  30
ATOM     30  C   UNL     1      -4.937  14.371  21.638  0.00  0.00    +0.000 C 
ATOM     31  O   UNL     1      -4.927  15.136  20.671  0.00  0.00    +0.000 OA
BRANCH  30  32
ATOM     32  C   UNL     1      -6.146  14.291  22.554  0.00  0.00    +0.000 C 
BRANCH  32  33
ATOM     33  C   UNL     1      -7.114  13.212  22.087  0.00  0.00    +0.000 C 
BRANCH  33  34
ATOM     34  C   UNL     1      -7.590  12.381  23.251  0.00  0.00    +0.000 C 
ATOM     35  O   UNL     1      -7.911  12.857  24.330  0.00  0.00    +0.000 OA
BRANCH  34  36
ATOM     36  O   UNL     1      -7.568  11.053  23.015  0.00  0.00    +0.000 OA
ATOM     37  H   UNL     1      -8.466  10.646  22.998  0.00  0.00    +0.000 HD
ENDBRANCH  34  36
ENDBRANCH  33  34
ENDBRANCH  32  33
ENDBRANCH  30  32
ENDBRANCH  27  30
ENDBRANCH  23  24
ENDBRANCH  22  23
ENDBRANCH  21  22
ENDBRANCH  20  21
ENDBRANCH   4  20
TORSDOF 15
ENDMDL
