MODEL 1
REMARK VINA RESULT:      -8.3      0.000      0.000
REMARK  Name = 
REMARK  5 active torsions:
REMARK  status: ('A' for Active; 'I' for Inactive)
REMARK    1  A    between atoms: C_1  and  C_2
REMARK    2  A    between atoms: C_7  and  N_8
REMARK    3  A    between atoms: N_8  and  S_9
REMARK    4  A    between atoms: S_9  and  C_12
REMARK    5  A    between atoms: C_18  and  C_19
REMARK                            x       y       z     vdW  Elec       q    Type
REMARK                         _______ _______ _______ _____ _____    ______ ____
ROOT
ATOM      1  C   UNL     1       2.628   4.334  18.876  0.00  0.00    +0.000 A 
ATOM      2  C   UNL     1       2.568   4.150  20.262  0.00  0.00    +0.000 A 
ATOM      3  C   UNL     1       2.228   5.231  21.092  0.00  0.00    +0.000 A 
ATOM      4  C   UNL     1       1.985   6.494  20.541  0.00  0.00    +0.000 A 
ATOM      5  N   UNL     1       1.554   7.582  21.306  0.00  0.00    +0.000 N 
ATOM      6  C   UNL     1       1.219   8.776  20.704  0.00  0.00    +0.000 A 
ATOM      7  C   UNL     1       1.338   9.059  19.391  0.00  0.00    +0.000 A 
ATOM      8  C   UNL     1       2.025   8.018  18.588  0.00  0.00    +0.000 A 
ATOM      9  O   UNL     1       2.574   8.243  17.516  0.00  0.00    +0.000 OA
ATOM     10  C   UNL     1       2.120   6.657  19.154  0.00  0.00    +0.000 A 
ATOM     11  C   UNL     1       2.418   5.590  18.315  0.00  0.00    +0.000 A 
ATOM     12  H   UNL     1       1.567   7.529  22.319  0.00  0.00    +0.000 HD
ENDROOT
BRANCH   7  13
ATOM     13  C   UNL     1       0.989  10.427  18.915  0.00  0.00    +0.000 C 
ATOM     14  O   UNL     1       1.908  11.223  18.686  0.00  0.00    +0.000 OA
ATOM     15  N   UNL     1      -0.321  10.802  18.717  0.00  0.00    +0.000 N 
ATOM     16  C   UNL     1      -1.578  10.169  19.095  0.00  0.00    +0.000 C 
ATOM     17  C   UNL     1      -2.456  10.446  17.887  0.00  0.00    +0.000 C 
ATOM     18  C   UNL     1      -2.087  11.889  17.554  0.00  0.00    +0.000 C 
ATOM     19  C   UNL     1      -0.610  11.998  17.938  0.00  0.00    +0.000 C 
ENDBRANCH   7  13
BRANCH   1  20
ATOM     20  S   UNL     1       2.984   2.998  17.769  0.00  0.00    +0.000 S 
ATOM     21  O   UNL     1       2.533   3.365  16.446  0.00  0.00    +0.000 OA
ATOM     22  O   UNL     1       2.526   1.788  18.420  0.00  0.00    +0.000 OA
BRANCH  20  23
ATOM     23  N   UNL     1       4.678   2.953  17.836  0.00  0.00    +0.000 N 
ATOM     24  H   UNL     1       4.997   1.987  17.744  0.00  0.00    +0.000 HD
BRANCH  23  31
ATOM     25  C   UNL     1       6.038   5.195  19.168  0.00  0.00    +0.000 C 
ATOM     26  C   UNL     1       6.080   4.972  17.684  0.00  0.00    +0.000 A 
ATOM     27  C   UNL     1       6.832   5.847  16.883  0.00  0.00    +0.000 A 
ATOM     28  C   UNL     1       6.920   5.660  15.503  0.00  0.00    +0.000 A 
ATOM     29  C   UNL     1       6.256   4.594  14.900  0.00  0.00    +0.000 A 
ATOM     30  C   UNL     1       5.503   3.718  15.681  0.00  0.00    +0.000 A 
ATOM     31  C   UNL     1       5.412   3.905  17.065  0.00  0.00    +0.000 A 
ENDBRANCH  23  31
ENDBRANCH  20  23
ENDBRANCH   1  20
TORSDOF 4
ENDMDL
MODEL 2
REMARK VINA RESULT:      -8.2      2.461      4.117
REMARK  Name = 
REMARK  5 active torsions:
REMARK  status: ('A' for Active; 'I' for Inactive)
REMARK    1  A    between atoms: C_1  and  C_2
REMARK    2  A    between atoms: C_7  and  N_8
REMARK    3  A    between atoms: N_8  and  S_9
REMARK    4  A    between atoms: S_9  and  C_12
REMARK    5  A    between atoms: C_18  and  C_19
REMARK                            x       y       z     vdW  Elec       q    Type
REMARK                         _______ _______ _______ _____ _____    ______ ____
ROOT
ATOM      1  C   UNL     1       4.409   5.789  18.219  0.00  0.00    +0.000 A 
ATOM      2  C   UNL     1       4.375   6.396  16.959  0.00  0.00    +0.000 A 
ATOM      3  C   UNL     1       3.584   7.540  16.761  0.00  0.00    +0.000 A 
ATOM      4  C   UNL     1       2.808   8.050  17.806  0.00  0.00    +0.000 A 
ATOM      5  N   UNL     1       2.075   9.236  17.694  0.00  0.00    +0.000 N 
ATOM      6  C   UNL     1       1.415   9.760  18.785  0.00  0.00    +0.000 A 
ATOM      7  C   UNL     1       1.323   9.188  20.003  0.00  0.00    +0.000 A 
ATOM      8  C   UNL     1       1.875   7.813  20.089  0.00  0.00    +0.000 A 
ATOM      9  O   UNL     1       1.541   7.004  20.946  0.00  0.00    +0.000 OA
ATOM     10  C   UNL     1       2.815   7.377  19.037  0.00  0.00    +0.000 A 
ATOM     11  C   UNL     1       3.620   6.266  19.260  0.00  0.00    +0.000 A 
ATOM     12  H   UNL     1       1.952   9.675  16.788  0.00  0.00    +0.000 HD
ENDROOT
BRANCH   7  13
ATOM     13  C   UNL     1       0.514   9.862  21.056  0.00  0.00    +0.000 C 
ATOM     14  O   UNL     1       0.880   9.762  22.233  0.00  0.00    +0.000 OA
ATOM     15  N   UNL     1      -0.609  10.592  20.736  0.00  0.00    +0.000 N 
ATOM     16  C   UNL     1      -1.375  10.701  19.502  0.00  0.00    +0.000 C 
ATOM     17  C   UNL     1      -1.738  12.176  19.476  0.00  0.00    +0.000 C 
ATOM     18  C   UNL     1      -2.094  12.438  20.937  0.00  0.00    +0.000 C 
ATOM     19  C   UNL     1      -1.169  11.507  21.722  0.00  0.00    +0.000 C 
ENDBRANCH   7  13
BRANCH   1  20
ATOM     20  S   UNL     1       5.436   4.385  18.554  0.00  0.00    +0.000 S 
ATOM     21  O   UNL     1       5.941   4.497  19.904  0.00  0.00    +0.000 OA
ATOM     22  O   UNL     1       6.324   4.242  17.419  0.00  0.00    +0.000 OA
BRANCH  20  23
ATOM     23  N   UNL     1       4.316   3.117  18.435  0.00  0.00    +0.000 N 
ATOM     24  H   UNL     1       4.814   2.232  18.321  0.00  0.00    +0.000 HD
BRANCH  23  31
ATOM     25  C   UNL     1       1.590   3.764  17.539  0.00  0.00    +0.000 C 
ATOM     26  C   UNL     1       1.921   3.372  18.950  0.00  0.00    +0.000 A 
ATOM     27  C   UNL     1       0.884   3.269  19.891  0.00  0.00    +0.000 A 
ATOM     28  C   UNL     1       1.144   2.882  21.206  0.00  0.00    +0.000 A 
ATOM     29  C   UNL     1       2.448   2.592  21.603  0.00  0.00    +0.000 A 
ATOM     30  C   UNL     1       3.489   2.692  20.680  0.00  0.00    +0.000 A 
ATOM     31  C   UNL     1       3.230   3.082  19.362  0.00  0.00    +0.000 A 
ENDBRANCH  23  31
ENDBRANCH  20  23
ENDBRANCH   1  20
TORSDOF 4
ENDMDL
MODEL 3
REMARK VINA RESULT:      -8.2      1.019      1.541
REMARK  Name = 
REMARK  5 active torsions:
REMARK  status: ('A' for Active; 'I' for Inactive)
REMARK    1  A    between atoms: C_1  and  C_2
REMARK    2  A    between atoms: C_7  and  N_8
REMARK    3  A    between atoms: N_8  and  S_9
REMARK    4  A    between atoms: S_9  and  C_12
REMARK    5  A    between atoms: C_18  and  C_19
REMARK                            x       y       z     vdW  Elec       q    Type
REMARK                         _______ _______ _______ _____ _____    ______ ____
ROOT
ATOM      1  C   UNL     1       2.912   4.766  18.628  0.00  0.00    +0.000 A 
ATOM      2  C   UNL     1       2.958   4.580  20.014  0.00  0.00    +0.000 A 
ATOM      3  C   UNL     1       2.545   5.616  20.867  0.00  0.00    +0.000 A 
ATOM      4  C   UNL     1       2.122   6.840  20.337  0.00  0.00    +0.000 A 
ATOM      5  N   UNL     1       1.614   7.873  21.132  0.00  0.00    +0.000 N 
ATOM      6  C   UNL     1       1.106   9.017  20.556  0.00  0.00    +0.000 A 
ATOM      7  C   UNL     1       1.111   9.308  19.239  0.00  0.00    +0.000 A 
ATOM      8  C   UNL     1       1.865   8.352  18.392  0.00  0.00    +0.000 A 
ATOM      9  O   UNL     1       2.317   8.637  17.289  0.00  0.00    +0.000 OA
ATOM     10  C   UNL     1       2.153   7.014  18.946  0.00  0.00    +0.000 A 
ATOM     11  C   UNL     1       2.522   5.986  18.086  0.00  0.00    +0.000 A 
ATOM     12  H   UNL     1       1.695   7.825  22.141  0.00  0.00    +0.000 HD
ENDROOT
BRANCH   7  13
ATOM     13  C   UNL     1       0.575  10.624  18.791  0.00  0.00    +0.000 C 
ATOM     14  O   UNL     1       1.341  11.595  18.772  0.00  0.00    +0.000 OA
ATOM     15  N   UNL     1      -0.736  10.764  18.392  0.00  0.00    +0.000 N 
ATOM     16  C   UNL     1      -1.884   9.876  18.510  0.00  0.00    +0.000 C 
ATOM     17  C   UNL     1      -2.597  10.092  17.186  0.00  0.00    +0.000 C 
ATOM     18  C   UNL     1      -2.476  11.603  17.007  0.00  0.00    +0.000 C 
ATOM     19  C   UNL     1      -1.130  11.951  17.646  0.00  0.00    +0.000 C 
ENDBRANCH   7  13
BRANCH   1  20
ATOM     20  S   UNL     1       3.354   3.477  17.496  0.00  0.00    +0.000 S 
ATOM     21  O   UNL     1       2.171   3.080  16.767  0.00  0.00    +0.000 OA
ATOM     22  O   UNL     1       4.142   2.521  18.245  0.00  0.00    +0.000 OA
BRANCH  20  23
ATOM     23  N   UNL     1       4.443   4.287  16.479  0.00  0.00    +0.000 N 
ATOM     24  H   UNL     1       3.926   4.781  15.750  0.00  0.00    +0.000 HD
BRANCH  23  31
ATOM     25  C   UNL     1       5.007   7.029  15.576  0.00  0.00    +0.000 C 
ATOM     26  C   UNL     1       5.776   6.349  16.672  0.00  0.00    +0.000 A 
ATOM     27  C   UNL     1       6.792   7.057  17.333  0.00  0.00    +0.000 A 
ATOM     28  C   UNL     1       7.513   6.472  18.375  0.00  0.00    +0.000 A 
ATOM     29  C   UNL     1       7.229   5.168  18.773  0.00  0.00    +0.000 A 
ATOM     30  C   UNL     1       6.224   4.451  18.125  0.00  0.00    +0.000 A 
ATOM     31  C   UNL     1       5.502   5.034  17.078  0.00  0.00    +0.000 A 
ENDBRANCH  23  31
ENDBRANCH  20  23
ENDBRANCH   1  20
TORSDOF 4
ENDMDL
MODEL 4
REMARK VINA RESULT:      -8.0      0.583      1.412
REMARK  Name = 
REMARK  5 active torsions:
REMARK  status: ('A' for Active; 'I' for Inactive)
REMARK    1  A    between atoms: C_1  and  C_2
REMARK    2  A    between atoms: C_7  and  N_8
REMARK    3  A    between atoms: N_8  and  S_9
REMARK    4  A    between atoms: S_9  and  C_12
REMARK    5  A    between atoms: C_18  and  C_19
REMARK                            x       y       z     vdW  Elec       q    Type
REMARK                         _______ _______ _______ _____ _____    ______ ____
ROOT
ATOM      1  C   UNL     1       2.843   4.629  18.718  0.00  0.00    +0.000 A 
ATOM      2  C   UNL     1       2.815   4.406  20.099  0.00  0.00    +0.000 A 
ATOM      3  C   UNL     1       2.400   5.435  20.960  0.00  0.00    +0.000 A 
ATOM      4  C   UNL     1       2.047   6.687  20.445  0.00  0.00    +0.000 A 
ATOM      5  N   UNL     1       1.539   7.718  21.242  0.00  0.00    +0.000 N 
ATOM      6  C   UNL     1       1.101   8.894  20.674  0.00  0.00    +0.000 A 
ATOM      7  C   UNL     1       1.180   9.219  19.368  0.00  0.00    +0.000 A 
ATOM      8  C   UNL     1       1.938   8.257  18.531  0.00  0.00    +0.000 A 
ATOM      9  O   UNL     1       2.453   8.553  17.459  0.00  0.00    +0.000 OA
ATOM     10  C   UNL     1       2.151   6.895  19.061  0.00  0.00    +0.000 A 
ATOM     11  C   UNL     1       2.524   5.877  18.192  0.00  0.00    +0.000 A 
ATOM     12  H   UNL     1       1.570   7.641  22.253  0.00  0.00    +0.000 HD
ENDROOT
BRANCH   7  13
ATOM     13  C   UNL     1       0.714  10.565  18.931  0.00  0.00    +0.000 C 
ATOM     14  O   UNL     1       1.537  11.487  18.890  0.00  0.00    +0.000 OA
ATOM     15  N   UNL     1      -0.596  10.784  18.566  0.00  0.00    +0.000 N 
ATOM     16  C   UNL     1      -1.793   9.969  18.715  0.00  0.00    +0.000 C 
ATOM     17  C   UNL     1      -2.526  10.227  17.410  0.00  0.00    +0.000 C 
ATOM     18  C   UNL     1      -2.317  11.729  17.225  0.00  0.00    +0.000 C 
ATOM     19  C   UNL     1      -0.936  11.993  17.828  0.00  0.00    +0.000 C 
ENDBRANCH   7  13
BRANCH   1  20
ATOM     20  S   UNL     1       3.291   3.354  17.574  0.00  0.00    +0.000 S 
ATOM     21  O   UNL     1       3.107   3.856  16.231  0.00  0.00    +0.000 OA
ATOM     22  O   UNL     1       2.642   2.142  18.029  0.00  0.00    +0.000 OA
BRANCH  20  23
ATOM     23  N   UNL     1       4.940   3.160  17.921  0.00  0.00    +0.000 N 
ATOM     24  H   UNL     1       5.272   2.281  17.520  0.00  0.00    +0.000 HD
BRANCH  23  31
ATOM     25  C   UNL     1       6.055   3.718  15.257  0.00  0.00    +0.000 C 
ATOM     26  C   UNL     1       6.338   4.568  16.462  0.00  0.00    +0.000 A 
ATOM     27  C   UNL     1       7.142   5.710  16.318  0.00  0.00    +0.000 A 
ATOM     28  C   UNL     1       7.408   6.542  17.406  0.00  0.00    +0.000 A 
ATOM     29  C   UNL     1       6.874   6.245  18.658  0.00  0.00    +0.000 A 
ATOM     30  C   UNL     1       6.075   5.113  18.817  0.00  0.00    +0.000 A 
ATOM     31  C   UNL     1       5.809   4.277  17.728  0.00  0.00    +0.000 A 
ENDBRANCH  23  31
ENDBRANCH  20  23
ENDBRANCH   1  20
TORSDOF 4
ENDMDL
MODEL 5
REMARK VINA RESULT:      -7.9      2.507      7.800
REMARK  Name = 
REMARK  5 active torsions:
REMARK  status: ('A' for Active; 'I' for Inactive)
REMARK    1  A    between atoms: C_1  and  C_2
REMARK    2  A    between atoms: C_7  and  N_8
REMARK    3  A    between atoms: N_8  and  S_9
REMARK    4  A    between atoms: S_9  and  C_12
REMARK    5  A    between atoms: C_18  and  C_19
REMARK                            x       y       z     vdW  Elec       q    Type
REMARK                         _______ _______ _______ _____ _____    ______ ____
ROOT
ATOM      1  C   UNL     1       1.740   7.095  20.496  0.00  0.00    +0.000 A 
ATOM      2  C   UNL     1       1.473   5.803  20.961  0.00  0.00    +0.000 A 
ATOM      3  C   UNL     1       2.208   4.718  20.457  0.00  0.00    +0.000 A 
ATOM      4  C   UNL     1       3.179   4.922  19.471  0.00  0.00    +0.000 A 
ATOM      5  N   UNL     1       4.004   3.896  18.999  0.00  0.00    +0.000 N 
ATOM      6  C   UNL     1       5.022   4.166  18.109  0.00  0.00    +0.000 A 
ATOM      7  C   UNL     1       5.282   5.363  17.546  0.00  0.00    +0.000 A 
ATOM      8  C   UNL     1       4.277   6.417  17.828  0.00  0.00    +0.000 A 
ATOM      9  O   UNL     1       4.114   7.403  17.119  0.00  0.00    +0.000 OA
ATOM     10  C   UNL     1       3.373   6.222  18.980  0.00  0.00    +0.000 A 
ATOM     11  C   UNL     1       2.681   7.311  19.495  0.00  0.00    +0.000 A 
ATOM     12  H   UNL     1       3.807   2.932  19.241  0.00  0.00    +0.000 HD
ENDROOT
BRANCH   7  13
ATOM     13  C   UNL     1       6.386   5.466  16.551  0.00  0.00    +0.000 C 
ATOM     14  O   UNL     1       7.489   5.872  16.935  0.00  0.00    +0.000 OA
ATOM     15  N   UNL     1       6.198   5.107  15.234  0.00  0.00    +0.000 N 
ATOM     16  C   UNL     1       4.991   4.809  14.475  0.00  0.00    +0.000 C 
ATOM     17  C   UNL     1       5.441   3.660  13.589  0.00  0.00    +0.000 C 
ATOM     18  C   UNL     1       6.838   4.114  13.171  0.00  0.00    +0.000 C 
ATOM     19  C   UNL     1       7.359   4.891  14.382  0.00  0.00    +0.000 C 
ENDBRANCH   7  13
BRANCH   1  20
ATOM     20  S   UNL     1       0.896   8.514  21.139  0.00  0.00    +0.000 S 
ATOM     21  O   UNL     1       1.608   8.983  22.306  0.00  0.00    +0.000 OA
ATOM     22  O   UNL     1      -0.510   8.170  21.192  0.00  0.00    +0.000 OA
BRANCH  20  23
ATOM     23  N   UNL     1       1.061   9.610  19.854  0.00  0.00    +0.000 N 
ATOM     24  H   UNL     1       1.722   9.236  19.170  0.00  0.00    +0.000 HD
BRANCH  23  31
ATOM     25  C   UNL     1      -0.264  11.860  21.210  0.00  0.00    +0.000 C 
ATOM     26  C   UNL     1      -0.758  11.268  19.921  0.00  0.00    +0.000 A 
ATOM     27  C   UNL     1      -1.886  11.830  19.302  0.00  0.00    +0.000 A 
ATOM     28  C   UNL     1      -2.363  11.328  18.090  0.00  0.00    +0.000 A 
ATOM     29  C   UNL     1      -1.720  10.255  17.478  0.00  0.00    +0.000 A 
ATOM     30  C   UNL     1      -0.600   9.685  18.082  0.00  0.00    +0.000 A 
ATOM     31  C   UNL     1      -0.122  10.185  19.298  0.00  0.00    +0.000 A 
ENDBRANCH  23  31
ENDBRANCH  20  23
ENDBRANCH   1  20
TORSDOF 4
ENDMDL
MODEL 6
REMARK VINA RESULT:      -7.9      2.557      7.996
REMARK  Name = 
REMARK  5 active torsions:
REMARK  status: ('A' for Active; 'I' for Inactive)
REMARK    1  A    between atoms: C_1  and  C_2
REMARK    2  A    between atoms: C_7  and  N_8
REMARK    3  A    between atoms: N_8  and  S_9
REMARK    4  A    between atoms: S_9  and  C_12
REMARK    5  A    between atoms: C_18  and  C_19
REMARK                            x       y       z     vdW  Elec       q    Type
REMARK                         _______ _______ _______ _____ _____    ______ ____
ROOT
ATOM      1  C   UNL     1       1.707   7.030  20.504  0.00  0.00    +0.000 A 
ATOM      2  C   UNL     1       1.475   5.730  20.966  0.00  0.00    +0.000 A 
ATOM      3  C   UNL     1       2.234   4.665  20.453  0.00  0.00    +0.000 A 
ATOM      4  C   UNL     1       3.193   4.896  19.461  0.00  0.00    +0.000 A 
ATOM      5  N   UNL     1       4.040   3.893  18.980  0.00  0.00    +0.000 N 
ATOM      6  C   UNL     1       5.045   4.191  18.085  0.00  0.00    +0.000 A 
ATOM      7  C   UNL     1       5.272   5.396  17.525  0.00  0.00    +0.000 A 
ATOM      8  C   UNL     1       4.243   6.424  17.818  0.00  0.00    +0.000 A 
ATOM      9  O   UNL     1       4.051   7.408  17.113  0.00  0.00    +0.000 OA
ATOM     10  C   UNL     1       3.352   6.202  18.974  0.00  0.00    +0.000 A 
ATOM     11  C   UNL     1       2.636   7.273  19.497  0.00  0.00    +0.000 A 
ATOM     12  H   UNL     1       3.867   2.923  19.220  0.00  0.00    +0.000 HD
ENDROOT
BRANCH   7  13
ATOM     13  C   UNL     1       6.366   5.529  16.523  0.00  0.00    +0.000 C 
ATOM     14  O   UNL     1       7.454   5.985  16.897  0.00  0.00    +0.000 OA
ATOM     15  N   UNL     1       6.187   5.145  15.213  0.00  0.00    +0.000 N 
ATOM     16  C   UNL     1       4.990   4.788  14.463  0.00  0.00    +0.000 C 
ATOM     17  C   UNL     1       5.483   3.646  13.591  0.00  0.00    +0.000 C 
ATOM     18  C   UNL     1       6.858   4.150  13.160  0.00  0.00    +0.000 C 
ATOM     19  C   UNL     1       7.352   4.964  14.358  0.00  0.00    +0.000 C 
ENDBRANCH   7  13
BRANCH   1  20
ATOM     20  S   UNL     1       0.833   8.426  21.157  0.00  0.00    +0.000 S 
ATOM     21  O   UNL     1       1.611   8.991  22.236  0.00  0.00    +0.000 OA
ATOM     22  O   UNL     1      -0.538   8.002  21.350  0.00  0.00    +0.000 OA
BRANCH  20  23
ATOM     23  N   UNL     1       0.818   9.466  19.818  0.00  0.00    +0.000 N 
ATOM     24  H   UNL     1       0.868   8.916  18.958  0.00  0.00    +0.000 HD
BRANCH  23  31
ATOM     25  C   UNL     1      -1.082   9.702  17.584  0.00  0.00    +0.000 C 
ATOM     26  C   UNL     1      -1.058  10.650  18.749  0.00  0.00    +0.000 A 
ATOM     27  C   UNL     1      -2.007  11.683  18.806  0.00  0.00    +0.000 A 
ATOM     28  C   UNL     1      -2.038  12.570  19.884  0.00  0.00    +0.000 A 
ATOM     29  C   UNL     1      -1.117  12.438  20.921  0.00  0.00    +0.000 A 
ATOM     30  C   UNL     1      -0.167  11.419  20.877  0.00  0.00    +0.000 A 
ATOM     31  C   UNL     1      -0.134  10.530  19.797  0.00  0.00    +0.000 A 
ENDBRANCH  23  31
ENDBRANCH  20  23
ENDBRANCH   1  20
TORSDOF 4
ENDMDL
MODEL 7
REMARK VINA RESULT:      -7.9      1.824      2.718
REMARK  Name = 
REMARK  5 active torsions:
REMARK  status: ('A' for Active; 'I' for Inactive)
REMARK    1  A    between atoms: C_1  and  C_2
REMARK    2  A    between atoms: C_7  and  N_8
REMARK    3  A    between atoms: N_8  and  S_9
REMARK    4  A    between atoms: S_9  and  C_12
REMARK    5  A    between atoms: C_18  and  C_19
REMARK                            x       y       z     vdW  Elec       q    Type
REMARK                         _______ _______ _______ _____ _____    ______ ____
ROOT
ATOM      1  C   UNL     1       2.305   5.683  18.960  0.00  0.00    +0.000 A 
ATOM      2  C   UNL     1       2.244   5.555  20.352  0.00  0.00    +0.000 A 
ATOM      3  C   UNL     1       1.827   6.647  21.131  0.00  0.00    +0.000 A 
ATOM      4  C   UNL     1       1.507   7.866  20.524  0.00  0.00    +0.000 A 
ATOM      5  N   UNL     1       0.999   8.956  21.238  0.00  0.00    +0.000 N 
ATOM      6  C   UNL     1       0.592  10.098  20.582  0.00  0.00    +0.000 A 
ATOM      7  C   UNL     1       0.705  10.331  19.258  0.00  0.00    +0.000 A 
ATOM      8  C   UNL     1       1.465   9.303  18.506  0.00  0.00    +0.000 A 
ATOM      9  O   UNL     1       2.007   9.517  17.429  0.00  0.00    +0.000 OA
ATOM     10  C   UNL     1       1.643   7.977  19.132  0.00  0.00    +0.000 A 
ATOM     11  C   UNL     1       2.018   6.896  18.343  0.00  0.00    +0.000 A 
ATOM     12  H   UNL     1       1.006   8.948  22.252  0.00  0.00    +0.000 HD
ENDROOT
BRANCH   7  13
ATOM     13  C   UNL     1       0.271  11.651  18.720  0.00  0.00    +0.000 C 
ATOM     14  O   UNL     1      -0.897  11.772  18.330  0.00  0.00    +0.000 OA
ATOM     15  N   UNL     1       1.137  12.721  18.667  0.00  0.00    +0.000 N 
ATOM     16  C   UNL     1       2.579  12.809  18.849  0.00  0.00    +0.000 C 
ATOM     17  C   UNL     1       2.730  14.120  19.601  0.00  0.00    +0.000 C 
ATOM     18  C   UNL     1       1.725  15.015  18.880  0.00  0.00    +0.000 C 
ATOM     19  C   UNL     1       0.602  14.060  18.468  0.00  0.00    +0.000 C 
ENDBRANCH   7  13
BRANCH   1  20
ATOM     20  S   UNL     1       2.756   4.326  17.915  0.00  0.00    +0.000 S 
ATOM     21  O   UNL     1       1.610   3.960  17.115  0.00  0.00    +0.000 OA
ATOM     22  O   UNL     1       3.435   3.363  18.757  0.00  0.00    +0.000 OA
BRANCH  20  23
ATOM     23  N   UNL     1       3.960   5.034  16.951  0.00  0.00    +0.000 N 
ATOM     24  H   UNL     1       3.637   5.944  16.617  0.00  0.00    +0.000 HD
BRANCH  23  31
ATOM     25  C   UNL     1       6.079   3.838  15.299  0.00  0.00    +0.000 C 
ATOM     26  C   UNL     1       6.334   4.458  16.642  0.00  0.00    +0.000 A 
ATOM     27  C   UNL     1       7.649   4.509  17.131  0.00  0.00    +0.000 A 
ATOM     28  C   UNL     1       7.934   5.100  18.363  0.00  0.00    +0.000 A 
ATOM     29  C   UNL     1       6.907   5.649  19.127  0.00  0.00    +0.000 A 
ATOM     30  C   UNL     1       5.595   5.603  18.656  0.00  0.00    +0.000 A 
ATOM     31  C   UNL     1       5.307   5.009  17.423  0.00  0.00    +0.000 A 
ENDBRANCH  23  31
ENDBRANCH  20  23
ENDBRANCH   1  20
TORSDOF 4
ENDMDL
MODEL 8
REMARK VINA RESULT:      -7.8      2.252      8.366
REMARK  Name = 
REMARK  5 active torsions:
REMARK  status: ('A' for Active; 'I' for Inactive)
REMARK    1  A    between atoms: C_1  and  C_2
REMARK    2  A    between atoms: C_7  and  N_8
REMARK    3  A    between atoms: N_8  and  S_9
REMARK    4  A    between atoms: S_9  and  C_12
REMARK    5  A    between atoms: C_18  and  C_19
REMARK                            x       y       z     vdW  Elec       q    Type
REMARK                         _______ _______ _______ _____ _____    ______ ____
ROOT
ATOM      1  C   UNL     1       0.938   9.917  20.265  0.00  0.00    +0.000 A 
ATOM      2  C   UNL     1       0.430   9.275  21.400  0.00  0.00    +0.000 A 
ATOM      3  C   UNL     1       0.727   7.920  21.622  0.00  0.00    +0.000 A 
ATOM      4  C   UNL     1       1.498   7.206  20.698  0.00  0.00    +0.000 A 
ATOM      5  N   UNL     1       1.902   5.885  20.911  0.00  0.00    +0.000 N 
ATOM      6  C   UNL     1       2.754   5.259  20.027  0.00  0.00    +0.000 A 
ATOM      7  C   UNL     1       3.211   5.777  18.869  0.00  0.00    +0.000 A 
ATOM      8  C   UNL     1       2.607   7.077  18.486  0.00  0.00    +0.000 A 
ATOM      9  O   UNL     1       2.578   7.496  17.335  0.00  0.00    +0.000 OA
ATOM     10  C   UNL     1       1.935   7.865  19.539  0.00  0.00    +0.000 A 
ATOM     11  C   UNL     1       1.682   9.214  19.322  0.00  0.00    +0.000 A 
ATOM     12  H   UNL     1       1.503   5.347  21.673  0.00  0.00    +0.000 HD
ENDROOT
BRANCH   7  13
ATOM     13  C   UNL     1       4.078   4.937  17.996  0.00  0.00    +0.000 C 
ATOM     14  O   UNL     1       3.548   4.306  17.074  0.00  0.00    +0.000 OA
ATOM     15  N   UNL     1       5.439   4.868  18.195  0.00  0.00    +0.000 N 
ATOM     16  C   UNL     1       6.282   5.315  19.295  0.00  0.00    +0.000 C 
ATOM     17  C   UNL     1       7.511   5.836  18.570  0.00  0.00    +0.000 C 
ATOM     18  C   UNL     1       7.707   4.781  17.485  0.00  0.00    +0.000 C 
ATOM     19  C   UNL     1       6.286   4.329  17.139  0.00  0.00    +0.000 C 
ENDBRANCH   7  13
BRANCH   1  20
ATOM     20  S   UNL     1       0.658  11.639  19.961  0.00  0.00    +0.000 S 
ATOM     21  O   UNL     1       1.047  11.935  18.601  0.00  0.00    +0.000 OA
ATOM     22  O   UNL     1       1.222  12.355  21.086  0.00  0.00    +0.000 OA
BRANCH  20  23
ATOM     23  N   UNL     1      -1.026  11.739  20.139  0.00  0.00    +0.000 N 
ATOM     24  H   UNL     1      -1.274  12.648  20.534  0.00  0.00    +0.000 HD
BRANCH  23  31
ATOM     25  C   UNL     1      -3.776  12.751  19.883  0.00  0.00    +0.000 C 
ATOM     26  C   UNL     1      -3.157  11.793  18.907  0.00  0.00    +0.000 A 
ATOM     27  C   UNL     1      -3.903  11.379  17.791  0.00  0.00    +0.000 A 
ATOM     28  C   UNL     1      -3.357  10.511  16.845  0.00  0.00    +0.000 A 
ATOM     29  C   UNL     1      -2.055  10.040  17.000  0.00  0.00    +0.000 A 
ATOM     30  C   UNL     1      -1.303  10.440  18.104  0.00  0.00    +0.000 A 
ATOM     31  C   UNL     1      -1.849  11.309  19.054  0.00  0.00    +0.000 A 
ENDBRANCH  23  31
ENDBRANCH  20  23
ENDBRANCH   1  20
TORSDOF 4
ENDMDL
MODEL 9
REMARK VINA RESULT:      -7.8      3.560      8.378
REMARK  Name = 
REMARK  5 active torsions:
REMARK  status: ('A' for Active; 'I' for Inactive)
REMARK    1  A    between atoms: C_1  and  C_2
REMARK    2  A    between atoms: C_7  and  N_8
REMARK    3  A    between atoms: N_8  and  S_9
REMARK    4  A    between atoms: S_9  and  C_12
REMARK    5  A    between atoms: C_18  and  C_19
REMARK                            x       y       z     vdW  Elec       q    Type
REMARK                         _______ _______ _______ _____ _____    ______ ____
ROOT
ATOM      1  C   UNL     1       0.010  11.528  19.998  0.00  0.00    +0.000 A 
ATOM      2  C   UNL     1      -0.312  11.011  21.257  0.00  0.00    +0.000 A 
ATOM      3  C   UNL     1       0.137   9.730  21.617  0.00  0.00    +0.000 A 
ATOM      4  C   UNL     1       0.875   8.961  20.711  0.00  0.00    +0.000 A 
ATOM      5  N   UNL     1       1.426   7.720  21.045  0.00  0.00    +0.000 N 
ATOM      6  C   UNL     1       2.239   7.050  20.157  0.00  0.00    +0.000 A 
ATOM      7  C   UNL     1       2.521   7.437  18.896  0.00  0.00    +0.000 A 
ATOM      8  C   UNL     1       1.756   8.616  18.421  0.00  0.00    +0.000 A 
ATOM      9  O   UNL     1       1.567   8.867  17.237  0.00  0.00    +0.000 OA
ATOM     10  C   UNL     1       1.122   9.485  19.433  0.00  0.00    +0.000 A 
ATOM     11  C   UNL     1       0.717  10.765  19.075  0.00  0.00    +0.000 A 
ATOM     12  H   UNL     1       1.163   7.263  21.911  0.00  0.00    +0.000 HD
ENDROOT
BRANCH   7  13
ATOM     13  C   UNL     1       3.370   6.558  18.045  0.00  0.00    +0.000 C 
ATOM     14  O   UNL     1       4.460   6.993  17.655  0.00  0.00    +0.000 OA
ATOM     15  N   UNL     1       2.968   5.285  17.708  0.00  0.00    +0.000 N 
ATOM     16  C   UNL     1       1.686   4.607  17.840  0.00  0.00    +0.000 C 
ATOM     17  C   UNL     1       2.103   3.199  18.230  0.00  0.00    +0.000 C 
ATOM     18  C   UNL     1       3.305   2.963  17.319  0.00  0.00    +0.000 C 
ATOM     19  C   UNL     1       3.948   4.345  17.181  0.00  0.00    +0.000 C 
ENDBRANCH   7  13
BRANCH   1  20
ATOM     20  S   UNL     1      -0.468  13.162  19.507  0.00  0.00    +0.000 S 
ATOM     21  O   UNL     1      -1.719  13.488  20.152  0.00  0.00    +0.000 OA
ATOM     22  O   UNL     1      -0.315  13.223  18.069  0.00  0.00    +0.000 OA
BRANCH  20  23
ATOM     23  N   UNL     1       0.799  14.087  20.152  0.00  0.00    +0.000 N 
ATOM     24  H   UNL     1       1.168  13.626  20.986  0.00  0.00    +0.000 HD
BRANCH  23  31
ATOM     25  C   UNL     1       0.506  16.780  19.005  0.00  0.00    +0.000 C 
ATOM     26  C   UNL     1       1.675  15.884  18.713  0.00  0.00    +0.000 A 
ATOM     27  C   UNL     1       2.704  16.355  17.883  0.00  0.00    +0.000 A 
ATOM     28  C   UNL     1       3.822  15.566  17.608  0.00  0.00    +0.000 A 
ATOM     29  C   UNL     1       3.927  14.290  18.158  0.00  0.00    +0.000 A 
ATOM     30  C   UNL     1       2.911  13.807  18.982  0.00  0.00    +0.000 A 
ATOM     31  C   UNL     1       1.790  14.596  19.258  0.00  0.00    +0.000 A 
ENDBRANCH  23  31
ENDBRANCH  20  23
ENDBRANCH   1  20
TORSDOF 4
ENDMDL
