MODEL 1
REMARK VINA RESULT:      -8.1      0.000      0.000
REMARK  Name = 
REMARK  10 active torsions:
REMARK  status: ('A' for Active; 'I' for Inactive)
REMARK    1  A    between atoms: C_1  and  O_2
REMARK    2  A    between atoms: O_2  and  C_3
REMARK    3  A    between atoms: C_6  and  O_7
REMARK    4  A    between atoms: O_7  and  C_8
REMARK    5  A    between atoms: C_9  and  S_10
REMARK    6  A    between atoms: S_10  and  N_13
REMARK    7  A    between atoms: N_13  and  C_14
REMARK    8  A    between atoms: C_17  and  S_18
REMARK    9  A    between atoms: S_18  and  N_21
REMARK   10  A    between atoms: C_26  and  C_27
REMARK                            x       y       z     vdW  Elec       q    Type
REMARK                         _______ _______ _______ _____ _____    ______ ____
ROOT
ATOM      1  C   UNL     1       3.125   6.241  19.452  0.00  0.00    +0.000 A 
ATOM      2  C   UNL     1       2.134   6.636  20.353  0.00  0.00    +0.000 A 
ATOM      3  C   UNL     1       1.428   7.827  20.142  0.00  0.00    +0.000 A 
ATOM      4  C   UNL     1       1.716   8.615  19.020  0.00  0.00    +0.000 A 
ATOM      5  C   UNL     1       2.674   8.194  18.095  0.00  0.00    +0.000 A 
ATOM      6  C   UNL     1       3.389   7.015  18.321  0.00  0.00    +0.000 A 
ENDROOT
BRANCH   4   7
ATOM      7  S   UNL     1       0.767  10.100  18.698  0.00  0.00    +0.000 S 
ATOM      8  O   UNL     1       1.716  11.170  18.476  0.00  0.00    +0.000 OA
ATOM      9  O   UNL     1      -0.197   9.762  17.672  0.00  0.00    +0.000 OA
BRANCH   7  10
ATOM     10  N   UNL     1      -0.096  10.370  20.173  0.00  0.00    +0.000 NA
ATOM     11  C   UNL     1       0.735  10.046  21.377  0.00  0.00    +0.000 C 
ATOM     12  C   UNL     1      -0.080  10.034  22.661  0.00  0.00    +0.000 C 
ATOM     13  C   UNL     1      -0.824  11.344  22.841  0.00  0.00    +0.000 C 
ATOM     14  C   UNL     1      -1.719  11.572  21.638  0.00  0.00    +0.000 C 
ATOM     15  C   UNL     1      -0.915  11.626  20.324  0.00  0.00    +0.000 C 
ATOM     16  C   UNL     1      -1.934  11.823  19.200  0.00  0.00    +0.000 C 
ENDBRANCH   7  10
ENDBRANCH   4   7
BRANCH   1  17
ATOM     17  N   UNL     1       3.845   5.031  19.658  0.00  0.00    +0.000 N 
ATOM     18  H   UNL     1       4.810   5.112  19.978  0.00  0.00    +0.000 HD
BRANCH  17  19
ATOM     19  S   UNL     1       3.733   3.804  18.495  0.00  0.00    +0.000 S 
ATOM     20  O   UNL     1       2.435   3.913  17.857  0.00  0.00    +0.000 OA
ATOM     21  O   UNL     1       4.132   2.570  19.137  0.00  0.00    +0.000 OA
BRANCH  19  26
ATOM     22  C   UNL     1       5.571   4.321  14.932  0.00  0.00    +0.000 A 
ATOM     23  C   UNL     1       6.860   4.700  15.297  0.00  0.00    +0.000 A 
ATOM     24  C   UNL     1       7.216   4.821  16.640  0.00  0.00    +0.000 A 
ATOM     25  C   UNL     1       6.286   4.552  17.653  0.00  0.00    +0.000 A 
ATOM     26  C   UNL     1       4.978   4.204  17.281  0.00  0.00    +0.000 A 
ATOM     27  C   UNL     1       4.626   4.083  15.926  0.00  0.00    +0.000 A 
BRANCH  22  29
ATOM     28  C   UNL     1       6.358   3.516  12.842  0.00  0.00    +0.000 C 
ATOM     29  O   UNL     1       5.366   4.213  13.586  0.00  0.00    +0.000 OA
ENDBRANCH  22  29
BRANCH  25  30
ATOM     30  O   UNL     1       6.593   4.671  18.983  0.00  0.00    +0.000 OA
ATOM     31  C   UNL     1       7.591   5.648  19.294  0.00  0.00    +0.000 C 
ENDBRANCH  25  30
ENDBRANCH  19  26
ENDBRANCH  17  19
ENDBRANCH   1  17
TORSDOF 7
ENDMDL
MODEL 2
REMARK VINA RESULT:      -8.0      2.136      9.524
REMARK  Name = 
REMARK  10 active torsions:
REMARK  status: ('A' for Active; 'I' for Inactive)
REMARK    1  A    between atoms: C_1  and  O_2
REMARK    2  A    between atoms: O_2  and  C_3
REMARK    3  A    between atoms: C_6  and  O_7
REMARK    4  A    between atoms: O_7  and  C_8
REMARK    5  A    between atoms: C_9  and  S_10
REMARK    6  A    between atoms: S_10  and  N_13
REMARK    7  A    between atoms: N_13  and  C_14
REMARK    8  A    between atoms: C_17  and  S_18
REMARK    9  A    between atoms: S_18  and  N_21
REMARK   10  A    between atoms: C_26  and  C_27
REMARK                            x       y       z     vdW  Elec       q    Type
REMARK                         _______ _______ _______ _____ _____    ______ ____
ROOT
ATOM      1  C   UNL     1       1.899   7.926  19.620  0.00  0.00    +0.000 A 
ATOM      2  C   UNL     1       2.271   7.763  18.284  0.00  0.00    +0.000 A 
ATOM      3  C   UNL     1       2.719   6.516  17.828  0.00  0.00    +0.000 A 
ATOM      4  C   UNL     1       2.785   5.435  18.715  0.00  0.00    +0.000 A 
ATOM      5  C   UNL     1       2.367   5.588  20.040  0.00  0.00    +0.000 A 
ATOM      6  C   UNL     1       1.941   6.839  20.494  0.00  0.00    +0.000 A 
ENDROOT
BRANCH   4   7
ATOM      7  S   UNL     1       3.282   3.818  18.124  0.00  0.00    +0.000 S 
ATOM      8  O   UNL     1       3.443   2.972  19.288  0.00  0.00    +0.000 OA
ATOM      9  O   UNL     1       2.344   3.449  17.086  0.00  0.00    +0.000 OA
BRANCH   7  10
ATOM     10  N   UNL     1       4.817   4.101  17.380  0.00  0.00    +0.000 NA
ATOM     11  C   UNL     1       4.734   4.048  15.885  0.00  0.00    +0.000 C 
ATOM     12  C   UNL     1       6.105   4.042  15.225  0.00  0.00    +0.000 C 
ATOM     13  C   UNL     1       6.934   5.224  15.689  0.00  0.00    +0.000 C 
ATOM     14  C   UNL     1       7.064   5.171  17.200  0.00  0.00    +0.000 C 
ATOM     15  C   UNL     1       5.690   5.214  17.898  0.00  0.00    +0.000 C 
ATOM     16  C   UNL     1       5.964   5.120  19.400  0.00  0.00    +0.000 C 
ENDBRANCH   7  10
ENDBRANCH   4   7
BRANCH   1  17
ATOM     17  N   UNL     1       1.441   9.188  20.091  0.00  0.00    +0.000 N 
ATOM     18  H   UNL     1       2.116   9.953  20.103  0.00  0.00    +0.000 HD
BRANCH  17  19
ATOM     19  S   UNL     1       0.496   9.243  21.496  0.00  0.00    +0.000 S 
ATOM     20  O   UNL     1       1.386   9.448  22.623  0.00  0.00    +0.000 OA
ATOM     21  O   UNL     1      -0.387   8.096  21.461  0.00  0.00    +0.000 OA
BRANCH  19  26
ATOM     22  C   UNL     1      -1.768  12.460  22.422  0.00  0.00    +0.000 A 
ATOM     23  C   UNL     1      -2.171  12.929  21.175  0.00  0.00    +0.000 A 
ATOM     24  C   UNL     1      -1.762  12.290  20.005  0.00  0.00    +0.000 A 
ATOM     25  C   UNL     1      -0.945  11.152  20.060  0.00  0.00    +0.000 A 
ATOM     26  C   UNL     1      -0.513  10.703  21.319  0.00  0.00    +0.000 A 
ATOM     27  C   UNL     1      -0.929  11.352  22.493  0.00  0.00    +0.000 A 
BRANCH  22  29
ATOM     28  C   UNL     1      -3.559  12.793  23.945  0.00  0.00    +0.000 C 
ATOM     29  O   UNL     1      -2.264  13.161  23.485  0.00  0.00    +0.000 OA
ENDBRANCH  22  29
BRANCH  25  30
ATOM     30  O   UNL     1      -0.512  10.503  18.935  0.00  0.00    +0.000 OA
ATOM     31  C   UNL     1      -1.521  10.242  17.954  0.00  0.00    +0.000 C 
ENDBRANCH  25  30
ENDBRANCH  19  26
ENDBRANCH  17  19
ENDBRANCH   1  17
TORSDOF 7
ENDMDL
MODEL 3
REMARK VINA RESULT:      -7.9      1.556      1.985
REMARK  Name = 
REMARK  10 active torsions:
REMARK  status: ('A' for Active; 'I' for Inactive)
REMARK    1  A    between atoms: C_1  and  O_2
REMARK    2  A    between atoms: O_2  and  C_3
REMARK    3  A    between atoms: C_6  and  O_7
REMARK    4  A    between atoms: O_7  and  C_8
REMARK    5  A    between atoms: C_9  and  S_10
REMARK    6  A    between atoms: S_10  and  N_13
REMARK    7  A    between atoms: N_13  and  C_14
REMARK    8  A    between atoms: C_17  and  S_18
REMARK    9  A    between atoms: S_18  and  N_21
REMARK   10  A    between atoms: C_26  and  C_27
REMARK                            x       y       z     vdW  Elec       q    Type
REMARK                         _______ _______ _______ _____ _____    ______ ____
ROOT
ATOM      1  C   UNL     1       2.981   6.632  19.660  0.00  0.00    +0.000 A 
ATOM      2  C   UNL     1       2.079   6.973  20.670  0.00  0.00    +0.000 A 
ATOM      3  C   UNL     1       1.220   8.068  20.502  0.00  0.00    +0.000 A 
ATOM      4  C   UNL     1       1.266   8.812  19.317  0.00  0.00    +0.000 A 
ATOM      5  C   UNL     1       2.136   8.440  18.289  0.00  0.00    +0.000 A 
ATOM      6  C   UNL     1       3.005   7.359  18.469  0.00  0.00    +0.000 A 
ENDROOT
BRANCH   4   7
ATOM      7  S   UNL     1       0.121  10.165  19.061  0.00  0.00    +0.000 S 
ATOM      8  O   UNL     1      -0.147  10.231  17.640  0.00  0.00    +0.000 OA
ATOM      9  O   UNL     1      -0.968   9.969  19.994  0.00  0.00    +0.000 OA
BRANCH   7  10
ATOM     10  N   UNL     1       1.008  11.562  19.563  0.00  0.00    +0.000 NA
ATOM     11  C   UNL     1       1.748  12.196  18.424  0.00  0.00    +0.000 C 
ATOM     12  C   UNL     1       2.726  13.265  18.888  0.00  0.00    +0.000 C 
ATOM     13  C   UNL     1       2.025  14.307  19.737  0.00  0.00    +0.000 C 
ATOM     14  C   UNL     1       1.377  13.620  20.924  0.00  0.00    +0.000 C 
ATOM     15  C   UNL     1       0.351  12.557  20.485  0.00  0.00    +0.000 C 
ATOM     16  C   UNL     1      -0.195  11.925  21.766  0.00  0.00    +0.000 C 
ENDBRANCH   7  10
ENDBRANCH   4   7
BRANCH   1  17
ATOM     17  N   UNL     1       3.854   5.520  19.820  0.00  0.00    +0.000 N 
ATOM     18  H   UNL     1       4.846   5.723  19.954  0.00  0.00    +0.000 HD
BRANCH  17  19
ATOM     19  S   UNL     1       3.681   4.188  18.788  0.00  0.00    +0.000 S 
ATOM     20  O   UNL     1       2.388   4.294  18.138  0.00  0.00    +0.000 OA
ATOM     21  O   UNL     1       4.020   3.008  19.555  0.00  0.00    +0.000 OA
BRANCH  19  26
ATOM     22  C   UNL     1       5.531   4.266  15.195  0.00  0.00    +0.000 A 
ATOM     23  C   UNL     1       6.842   4.599  15.525  0.00  0.00    +0.000 A 
ATOM     24  C   UNL     1       7.210   4.821  16.852  0.00  0.00    +0.000 A 
ATOM     25  C   UNL     1       6.270   4.701  17.885  0.00  0.00    +0.000 A 
ATOM     26  C   UNL     1       4.942   4.400  17.544  0.00  0.00    +0.000 A 
ATOM     27  C   UNL     1       4.577   4.177  16.205  0.00  0.00    +0.000 A 
BRANCH  22  29
ATOM     28  C   UNL     1       6.464   3.834  13.056  0.00  0.00    +0.000 C 
ATOM     29  O   UNL     1       5.314   4.048  13.865  0.00  0.00    +0.000 OA
ENDBRANCH  22  29
BRANCH  25  30
ATOM     30  O   UNL     1       6.589   4.923  19.198  0.00  0.00    +0.000 OA
ATOM     31  C   UNL     1       7.778   5.690  19.416  0.00  0.00    +0.000 C 
ENDBRANCH  25  30
ENDBRANCH  19  26
ENDBRANCH  17  19
ENDBRANCH   1  17
TORSDOF 7
ENDMDL
MODEL 4
REMARK VINA RESULT:      -7.8      1.633      2.414
REMARK  Name = 
REMARK  10 active torsions:
REMARK  status: ('A' for Active; 'I' for Inactive)
REMARK    1  A    between atoms: C_1  and  O_2
REMARK    2  A    between atoms: O_2  and  C_3
REMARK    3  A    between atoms: C_6  and  O_7
REMARK    4  A    between atoms: O_7  and  C_8
REMARK    5  A    between atoms: C_9  and  S_10
REMARK    6  A    between atoms: S_10  and  N_13
REMARK    7  A    between atoms: N_13  and  C_14
REMARK    8  A    between atoms: C_17  and  S_18
REMARK    9  A    between atoms: S_18  and  N_21
REMARK   10  A    between atoms: C_26  and  C_27
REMARK                            x       y       z     vdW  Elec       q    Type
REMARK                         _______ _______ _______ _____ _____    ______ ____
ROOT
ATOM      1  C   UNL     1       2.341   6.044  19.155  0.00  0.00    +0.000 A 
ATOM      2  C   UNL     1       2.454   7.357  18.693  0.00  0.00    +0.000 A 
ATOM      3  C   UNL     1       1.869   8.406  19.415  0.00  0.00    +0.000 A 
ATOM      4  C   UNL     1       1.179   8.133  20.602  0.00  0.00    +0.000 A 
ATOM      5  C   UNL     1       1.108   6.824  21.086  0.00  0.00    +0.000 A 
ATOM      6  C   UNL     1       1.676   5.779  20.353  0.00  0.00    +0.000 A 
ENDROOT
BRANCH   4   7
ATOM      7  S   UNL     1       0.494   9.474  21.572  0.00  0.00    +0.000 S 
ATOM      8  O   UNL     1      -0.532   8.905  22.419  0.00  0.00    +0.000 OA
ATOM      9  O   UNL     1       1.616  10.173  22.163  0.00  0.00    +0.000 OA
BRANCH   7  10
ATOM     10  N   UNL     1      -0.223  10.517  20.393  0.00  0.00    +0.000 NA
ATOM     11  C   UNL     1      -0.842   9.748  19.265  0.00  0.00    +0.000 C 
ATOM     12  C   UNL     1      -1.249  10.642  18.104  0.00  0.00    +0.000 C 
ATOM     13  C   UNL     1      -2.162  11.758  18.576  0.00  0.00    +0.000 C 
ATOM     14  C   UNL     1      -1.447  12.559  19.647  0.00  0.00    +0.000 C 
ATOM     15  C   UNL     1      -1.054  11.686  20.855  0.00  0.00    +0.000 C 
ATOM     16  C   UNL     1      -0.318  12.603  21.833  0.00  0.00    +0.000 C 
ENDBRANCH   7  10
ENDBRANCH   4   7
BRANCH   1  17
ATOM     17  N   UNL     1       2.934   4.973  18.430  0.00  0.00    +0.000 N 
ATOM     18  H   UNL     1       2.331   4.187  18.184  0.00  0.00    +0.000 HD
BRANCH  17  19
ATOM     19  S   UNL     1       4.450   4.394  18.919  0.00  0.00    +0.000 S 
ATOM     20  O   UNL     1       4.300   2.993  19.265  0.00  0.00    +0.000 OA
ATOM     21  O   UNL     1       4.973   5.334  19.887  0.00  0.00    +0.000 OA
BRANCH  19  26
ATOM     22  C   UNL     1       5.605   4.347  15.047  0.00  0.00    +0.000 A 
ATOM     23  C   UNL     1       6.983   4.531  15.129  0.00  0.00    +0.000 A 
ATOM     24  C   UNL     1       7.611   4.685  16.364  0.00  0.00    +0.000 A 
ATOM     25  C   UNL     1       6.869   4.646  17.553  0.00  0.00    +0.000 A 
ATOM     26  C   UNL     1       5.475   4.495  17.464  0.00  0.00    +0.000 A 
ATOM     27  C   UNL     1       4.850   4.340  16.215  0.00  0.00    +0.000 A 
BRANCH  22  29
ATOM     28  C   UNL     1       6.006   3.584  12.834  0.00  0.00    +0.000 C 
ATOM     29  O   UNL     1       5.125   4.180  13.779  0.00  0.00    +0.000 OA
ENDBRANCH  22  29
BRANCH  25  30
ATOM     30  O   UNL     1       7.446   4.806  18.785  0.00  0.00    +0.000 OA
ATOM     31  C   UNL     1       8.065   6.078  19.008  0.00  0.00    +0.000 C 
ENDBRANCH  25  30
ENDBRANCH  19  26
ENDBRANCH  17  19
ENDBRANCH   1  17
TORSDOF 7
ENDMDL
MODEL 5
REMARK VINA RESULT:      -7.8      2.360      9.690
REMARK  Name = 
REMARK  10 active torsions:
REMARK  status: ('A' for Active; 'I' for Inactive)
REMARK    1  A    between atoms: C_1  and  O_2
REMARK    2  A    between atoms: O_2  and  C_3
REMARK    3  A    between atoms: C_6  and  O_7
REMARK    4  A    between atoms: O_7  and  C_8
REMARK    5  A    between atoms: C_9  and  S_10
REMARK    6  A    between atoms: S_10  and  N_13
REMARK    7  A    between atoms: N_13  and  C_14
REMARK    8  A    between atoms: C_17  and  S_18
REMARK    9  A    between atoms: S_18  and  N_21
REMARK   10  A    between atoms: C_26  and  C_27
REMARK                            x       y       z     vdW  Elec       q    Type
REMARK                         _______ _______ _______ _____ _____    ______ ____
ROOT
ATOM      1  C   UNL     1       1.617   8.344  20.248  0.00  0.00    +0.000 A 
ATOM      2  C   UNL     1       1.689   7.184  21.022  0.00  0.00    +0.000 A 
ATOM      3  C   UNL     1       2.154   5.990  20.454  0.00  0.00    +0.000 A 
ATOM      4  C   UNL     1       2.551   5.968  19.112  0.00  0.00    +0.000 A 
ATOM      5  C   UNL     1       2.522   7.141  18.352  0.00  0.00    +0.000 A 
ATOM      6  C   UNL     1       2.039   8.324  18.918  0.00  0.00    +0.000 A 
ENDROOT
BRANCH   4   7
ATOM      7  S   UNL     1       3.218   4.467  18.397  0.00  0.00    +0.000 S 
ATOM      8  O   UNL     1       3.156   3.445  19.420  0.00  0.00    +0.000 OA
ATOM      9  O   UNL     1       2.537   4.271  17.134  0.00  0.00    +0.000 OA
BRANCH   7  10
ATOM     10  N   UNL     1       4.867   4.865  18.057  0.00  0.00    +0.000 NA
ATOM     11  C   UNL     1       5.662   5.081  19.309  0.00  0.00    +0.000 C 
ATOM     12  C   UNL     1       7.035   5.674  19.032  0.00  0.00    +0.000 C 
ATOM     13  C   UNL     1       7.799   4.826  18.035  0.00  0.00    +0.000 C 
ATOM     14  C   UNL     1       6.990   4.722  16.755  0.00  0.00    +0.000 C 
ATOM     15  C   UNL     1       5.606   4.089  16.998  0.00  0.00    +0.000 C 
ATOM     16  C   UNL     1       4.890   4.077  15.646  0.00  0.00    +0.000 C 
ENDBRANCH   7  10
ENDBRANCH   4   7
BRANCH   1  17
ATOM     17  N   UNL     1       1.149   9.561  20.818  0.00  0.00    +0.000 N 
ATOM     18  H   UNL     1       1.850  10.266  21.049  0.00  0.00    +0.000 HD
BRANCH  17  19
ATOM     19  S   UNL     1      -0.016   9.495  22.046  0.00  0.00    +0.000 S 
ATOM     20  O   UNL     1       0.673   9.601  23.318  0.00  0.00    +0.000 OA
ATOM     21  O   UNL     1      -0.866   8.357  21.766  0.00  0.00    +0.000 OA
BRANCH  19  26
ATOM     22  C   UNL     1      -2.314  12.714  22.879  0.00  0.00    +0.000 A 
ATOM     23  C   UNL     1      -2.631  13.208  21.617  0.00  0.00    +0.000 A 
ATOM     24  C   UNL     1      -2.150  12.586  20.465  0.00  0.00    +0.000 A 
ATOM     25  C   UNL     1      -1.346  11.441  20.553  0.00  0.00    +0.000 A 
ATOM     26  C   UNL     1      -1.001  10.966  21.829  0.00  0.00    +0.000 A 
ATOM     27  C   UNL     1      -1.489  11.598  22.985  0.00  0.00    +0.000 A 
BRANCH  22  29
ATOM     28  C   UNL     1      -4.088  14.090  23.649  0.00  0.00    +0.000 C 
ATOM     29  O   UNL     1      -2.875  13.400  23.919  0.00  0.00    +0.000 OA
ENDBRANCH  22  29
BRANCH  25  30
ATOM     30  O   UNL     1      -0.843  10.808  19.447  0.00  0.00    +0.000 OA
ATOM     31  C   UNL     1      -1.805  10.494  18.434  0.00  0.00    +0.000 C 
ENDBRANCH  25  30
ENDBRANCH  19  26
ENDBRANCH  17  19
ENDBRANCH   1  17
TORSDOF 7
ENDMDL
MODEL 6
REMARK VINA RESULT:      -7.7      2.319      9.453
REMARK  Name = 
REMARK  10 active torsions:
REMARK  status: ('A' for Active; 'I' for Inactive)
REMARK    1  A    between atoms: C_1  and  O_2
REMARK    2  A    between atoms: O_2  and  C_3
REMARK    3  A    between atoms: C_6  and  O_7
REMARK    4  A    between atoms: O_7  and  C_8
REMARK    5  A    between atoms: C_9  and  S_10
REMARK    6  A    between atoms: S_10  and  N_13
REMARK    7  A    between atoms: N_13  and  C_14
REMARK    8  A    between atoms: C_17  and  S_18
REMARK    9  A    between atoms: S_18  and  N_21
REMARK   10  A    between atoms: C_26  and  C_27
REMARK                            x       y       z     vdW  Elec       q    Type
REMARK                         _______ _______ _______ _____ _____    ______ ____
ROOT
ATOM      1  C   UNL     1       1.722   8.004  19.692  0.00  0.00    +0.000 A 
ATOM      2  C   UNL     1       2.104   7.862  18.356  0.00  0.00    +0.000 A 
ATOM      3  C   UNL     1       2.572   6.627  17.888  0.00  0.00    +0.000 A 
ATOM      4  C   UNL     1       2.648   5.537  18.763  0.00  0.00    +0.000 A 
ATOM      5  C   UNL     1       2.221   5.669  20.087  0.00  0.00    +0.000 A 
ATOM      6  C   UNL     1       1.774   6.908  20.553  0.00  0.00    +0.000 A 
ENDROOT
BRANCH   4   7
ATOM      7  S   UNL     1       3.172   3.934  18.157  0.00  0.00    +0.000 S 
ATOM      8  O   UNL     1       3.326   3.073  19.311  0.00  0.00    +0.000 OA
ATOM      9  O   UNL     1       2.252   3.570  17.100  0.00  0.00    +0.000 OA
BRANCH   7  10
ATOM     10  N   UNL     1       4.714   4.244  17.439  0.00  0.00    +0.000 NA
ATOM     11  C   UNL     1       4.645   4.253  15.942  0.00  0.00    +0.000 C 
ATOM     12  C   UNL     1       6.021   4.271  15.295  0.00  0.00    +0.000 C 
ATOM     13  C   UNL     1       6.848   5.431  15.815  0.00  0.00    +0.000 C 
ATOM     14  C   UNL     1       6.964   5.317  17.323  0.00  0.00    +0.000 C 
ATOM     15  C   UNL     1       5.584   5.333  18.010  0.00  0.00    +0.000 C 
ATOM     16  C   UNL     1       5.844   5.177  19.510  0.00  0.00    +0.000 C 
ENDBRANCH   7  10
ENDBRANCH   4   7
BRANCH   1  17
ATOM     17  N   UNL     1       1.243   9.254  20.174  0.00  0.00    +0.000 N 
ATOM     18  H   UNL     1       1.808  10.079  19.971  0.00  0.00    +0.000 HD
BRANCH  17  19
ATOM     19  S   UNL     1       0.653   9.347  21.760  0.00  0.00    +0.000 S 
ATOM     20  O   UNL     1       1.790   9.311  22.660  0.00  0.00    +0.000 OA
ATOM     21  O   UNL     1      -0.406   8.367  21.879  0.00  0.00    +0.000 OA
BRANCH  19  26
ATOM     22  C   UNL     1      -1.898  12.312  22.780  0.00  0.00    +0.000 A 
ATOM     23  C   UNL     1      -1.408  13.404  22.071  0.00  0.00    +0.000 A 
ATOM     24  C   UNL     1      -0.278  13.283  21.262  0.00  0.00    +0.000 A 
ATOM     25  C   UNL     1       0.382  12.053  21.137  0.00  0.00    +0.000 A 
ATOM     26  C   UNL     1      -0.095  10.962  21.881  0.00  0.00    +0.000 A 
ATOM     27  C   UNL     1      -1.233  11.092  22.694  0.00  0.00    +0.000 A 
BRANCH  22  29
ATOM     28  C   UNL     1      -4.222  12.793  22.776  0.00  0.00    +0.000 C 
ATOM     29  O   UNL     1      -3.026  12.562  23.509  0.00  0.00    +0.000 OA
ENDBRANCH  22  29
BRANCH  25  30
ATOM     30  O   UNL     1       1.502  11.895  20.363  0.00  0.00    +0.000 OA
ATOM     31  C   UNL     1       2.152  13.110  19.976  0.00  0.00    +0.000 C 
ENDBRANCH  25  30
ENDBRANCH  19  26
ENDBRANCH  17  19
ENDBRANCH   1  17
TORSDOF 7
ENDMDL
MODEL 7
REMARK VINA RESULT:      -7.7      1.503      2.191
REMARK  Name = 
REMARK  10 active torsions:
REMARK  status: ('A' for Active; 'I' for Inactive)
REMARK    1  A    between atoms: C_1  and  O_2
REMARK    2  A    between atoms: O_2  and  C_3
REMARK    3  A    between atoms: C_6  and  O_7
REMARK    4  A    between atoms: O_7  and  C_8
REMARK    5  A    between atoms: C_9  and  S_10
REMARK    6  A    between atoms: S_10  and  N_13
REMARK    7  A    between atoms: N_13  and  C_14
REMARK    8  A    between atoms: C_17  and  S_18
REMARK    9  A    between atoms: S_18  and  N_21
REMARK   10  A    between atoms: C_26  and  C_27
REMARK                            x       y       z     vdW  Elec       q    Type
REMARK                         _______ _______ _______ _____ _____    ______ ____
ROOT
ATOM      1  C   UNL     1       2.272   6.980  18.603  0.00  0.00    +0.000 A 
ATOM      2  C   UNL     1       1.836   7.158  19.918  0.00  0.00    +0.000 A 
ATOM      3  C   UNL     1       1.433   8.426  20.357  0.00  0.00    +0.000 A 
ATOM      4  C   UNL     1       1.463   9.510  19.471  0.00  0.00    +0.000 A 
ATOM      5  C   UNL     1       1.854   9.319  18.143  0.00  0.00    +0.000 A 
ATOM      6  C   UNL     1       2.274   8.057  17.716  0.00  0.00    +0.000 A 
ENDROOT
BRANCH   4   7
ATOM      7  S   UNL     1       0.877  11.118  20.000  0.00  0.00    +0.000 S 
ATOM      8  O   UNL     1       0.644  11.038  21.426  0.00  0.00    +0.000 OA
ATOM      9  O   UNL     1       1.809  12.092  19.472  0.00  0.00    +0.000 OA
BRANCH   7  10
ATOM     10  N   UNL     1      -0.625  11.310  19.164  0.00  0.00    +0.000 NA
ATOM     11  C   UNL     1      -1.068  10.037  18.508  0.00  0.00    +0.000 C 
ATOM     12  C   UNL     1      -2.244  10.246  17.566  0.00  0.00    +0.000 C 
ATOM     13  C   UNL     1      -3.395  10.927  18.281  0.00  0.00    +0.000 C 
ATOM     14  C   UNL     1      -2.912  12.252  18.841  0.00  0.00    +0.000 C 
ATOM     15  C   UNL     1      -1.744  12.068  19.829  0.00  0.00    +0.000 C 
ATOM     16  C   UNL     1      -1.336  13.470  20.286  0.00  0.00    +0.000 C 
ENDBRANCH   7  10
ENDBRANCH   4   7
BRANCH   1  17
ATOM     17  N   UNL     1       2.680   5.695  18.148  0.00  0.00    +0.000 N 
ATOM     18  H   UNL     1       1.947   5.003  17.989  0.00  0.00    +0.000 HD
BRANCH  17  19
ATOM     19  S   UNL     1       4.014   4.952  18.883  0.00  0.00    +0.000 S 
ATOM     20  O   UNL     1       3.603   3.629  19.314  0.00  0.00    +0.000 OA
ATOM     21  O   UNL     1       4.555   5.896  19.837  0.00  0.00    +0.000 OA
BRANCH  19  26
ATOM     22  C   UNL     1       5.614   4.423  15.210  0.00  0.00    +0.000 A 
ATOM     23  C   UNL     1       6.979   4.352  15.470  0.00  0.00    +0.000 A 
ATOM     24  C   UNL     1       7.466   4.470  16.772  0.00  0.00    +0.000 A 
ATOM     25  C   UNL     1       6.587   4.652  17.850  0.00  0.00    +0.000 A 
ATOM     26  C   UNL     1       5.214   4.759  17.578  0.00  0.00    +0.000 A 
ATOM     27  C   UNL     1       4.731   4.638  16.264  0.00  0.00    +0.000 A 
BRANCH  22  29
ATOM     28  C   UNL     1       6.257   3.687  13.046  0.00  0.00    +0.000 C 
ATOM     29  O   UNL     1       5.273   4.263  13.897  0.00  0.00    +0.000 OA
ENDBRANCH  22  29
BRANCH  25  30
ATOM     30  O   UNL     1       7.025   4.786  19.141  0.00  0.00    +0.000 OA
ATOM     31  C   UNL     1       7.951   5.854  19.363  0.00  0.00    +0.000 C 
ENDBRANCH  25  30
ENDBRANCH  19  26
ENDBRANCH  17  19
ENDBRANCH   1  17
TORSDOF 7
ENDMDL
MODEL 8
REMARK VINA RESULT:      -7.6      2.092      9.386
REMARK  Name = 
REMARK  10 active torsions:
REMARK  status: ('A' for Active; 'I' for Inactive)
REMARK    1  A    between atoms: C_1  and  O_2
REMARK    2  A    between atoms: O_2  and  C_3
REMARK    3  A    between atoms: C_6  and  O_7
REMARK    4  A    between atoms: O_7  and  C_8
REMARK    5  A    between atoms: C_9  and  S_10
REMARK    6  A    between atoms: S_10  and  N_13
REMARK    7  A    between atoms: N_13  and  C_14
REMARK    8  A    between atoms: C_17  and  S_18
REMARK    9  A    between atoms: S_18  and  N_21
REMARK   10  A    between atoms: C_26  and  C_27
REMARK                            x       y       z     vdW  Elec       q    Type
REMARK                         _______ _______ _______ _____ _____    ______ ____
ROOT
ATOM      1  C   UNL     1       1.924   8.100  19.565  0.00  0.00    +0.000 A 
ATOM      2  C   UNL     1       1.942   7.037  20.470  0.00  0.00    +0.000 A 
ATOM      3  C   UNL     1       2.280   5.750  20.033  0.00  0.00    +0.000 A 
ATOM      4  C   UNL     1       2.604   5.536  18.687  0.00  0.00    +0.000 A 
ATOM      5  C   UNL     1       2.630   6.610  17.793  0.00  0.00    +0.000 A 
ATOM      6  C   UNL     1       2.274   7.888  18.231  0.00  0.00    +0.000 A 
ENDROOT
BRANCH   4   7
ATOM      7  S   UNL     1       3.112   3.910  18.133  0.00  0.00    +0.000 S 
ATOM      8  O   UNL     1       3.242   3.081  19.312  0.00  0.00    +0.000 OA
ATOM      9  O   UNL     1       2.198   3.528  17.077  0.00  0.00    +0.000 OA
BRANCH   7  10
ATOM     10  N   UNL     1       4.665   4.179  17.422  0.00  0.00    +0.000 NA
ATOM     11  C   UNL     1       4.606   4.176  15.924  0.00  0.00    +0.000 C 
ATOM     12  C   UNL     1       5.986   4.157  15.287  0.00  0.00    +0.000 C 
ATOM     13  C   UNL     1       6.835   5.303  15.801  0.00  0.00    +0.000 C 
ATOM     14  C   UNL     1       6.939   5.200  17.311  0.00  0.00    +0.000 C 
ATOM     15  C   UNL     1       5.555   5.254  17.989  0.00  0.00    +0.000 C 
ATOM     16  C   UNL     1       5.802   5.106  19.492  0.00  0.00    +0.000 C 
ENDBRANCH   7  10
ENDBRANCH   4   7
BRANCH   1  17
ATOM     17  N   UNL     1       1.585   9.412  20.002  0.00  0.00    +0.000 N 
ATOM     18  H   UNL     1       2.154   9.816  20.747  0.00  0.00    +0.000 HD
BRANCH  17  19
ATOM     19  S   UNL     1      -0.046   9.791  20.264  0.00  0.00    +0.000 S 
ATOM     20  O   UNL     1      -0.571   8.849  21.234  0.00  0.00    +0.000 OA
ATOM     21  O   UNL     1      -0.667   9.924  18.963  0.00  0.00    +0.000 OA
BRANCH  19  26
ATOM     22  C   UNL     1      -1.021  12.907  22.646  0.00  0.00    +0.000 A 
ATOM     23  C   UNL     1      -0.170  13.916  22.206  0.00  0.00    +0.000 A 
ATOM     24  C   UNL     1       0.739  13.685  21.173  0.00  0.00    +0.000 A 
ATOM     25  C   UNL     1       0.807  12.432  20.548  0.00  0.00    +0.000 A 
ATOM     26  C   UNL     1      -0.030  11.407  21.019  0.00  0.00    +0.000 A 
ATOM     27  C   UNL     1      -0.943  11.647  22.059  0.00  0.00    +0.000 A 
BRANCH  22  29
ATOM     28  C   UNL     1      -3.166  12.670  23.635  0.00  0.00    +0.000 C 
ATOM     29  O   UNL     1      -1.880  13.277  23.642  0.00  0.00    +0.000 OA
ENDBRANCH  22  29
BRANCH  25  30
ATOM     30  O   UNL     1       1.693  12.161  19.539  0.00  0.00    +0.000 OA
ATOM     31  C   UNL     1       1.698  13.103  18.462  0.00  0.00    +0.000 C 
ENDBRANCH  25  30
ENDBRANCH  19  26
ENDBRANCH  17  19
ENDBRANCH   1  17
TORSDOF 7
ENDMDL
MODEL 9
REMARK VINA RESULT:      -7.6      1.711      9.203
REMARK  Name = 
REMARK  10 active torsions:
REMARK  status: ('A' for Active; 'I' for Inactive)
REMARK    1  A    between atoms: C_1  and  O_2
REMARK    2  A    between atoms: O_2  and  C_3
REMARK    3  A    between atoms: C_6  and  O_7
REMARK    4  A    between atoms: O_7  and  C_8
REMARK    5  A    between atoms: C_9  and  S_10
REMARK    6  A    between atoms: S_10  and  N_13
REMARK    7  A    between atoms: N_13  and  C_14
REMARK    8  A    between atoms: C_17  and  S_18
REMARK    9  A    between atoms: S_18  and  N_21
REMARK   10  A    between atoms: C_26  and  C_27
REMARK                            x       y       z     vdW  Elec       q    Type
REMARK                         _______ _______ _______ _____ _____    ______ ____
ROOT
ATOM      1  C   UNL     1       1.965   7.894  19.487  0.00  0.00    +0.000 A 
ATOM      2  C   UNL     1       1.885   6.830  20.387  0.00  0.00    +0.000 A 
ATOM      3  C   UNL     1       2.330   5.556  20.008  0.00  0.00    +0.000 A 
ATOM      4  C   UNL     1       2.861   5.359  18.728  0.00  0.00    +0.000 A 
ATOM      5  C   UNL     1       2.983   6.436  17.846  0.00  0.00    +0.000 A 
ATOM      6  C   UNL     1       2.519   7.700  18.222  0.00  0.00    +0.000 A 
ENDROOT
BRANCH   4   7
ATOM      7  S   UNL     1       3.504   3.754  18.259  0.00  0.00    +0.000 S 
ATOM      8  O   UNL     1       3.762   3.026  19.484  0.00  0.00    +0.000 OA
ATOM      9  O   UNL     1       2.590   3.213  17.274  0.00  0.00    +0.000 OA
BRANCH   7  10
ATOM     10  N   UNL     1       4.994   4.119  17.461  0.00  0.00    +0.000 NA
ATOM     11  C   UNL     1       4.866   4.038  15.970  0.00  0.00    +0.000 C 
ATOM     12  C   UNL     1       6.213   4.106  15.266  0.00  0.00    +0.000 C 
ATOM     13  C   UNL     1       6.981   5.344  15.686  0.00  0.00    +0.000 C 
ATOM     14  C   UNL     1       7.162   5.324  17.192  0.00  0.00    +0.000 C 
ATOM     15  C   UNL     1       5.811   5.293  17.934  0.00  0.00    +0.000 C 
ATOM     16  C   UNL     1       6.138   5.240  19.428  0.00  0.00    +0.000 C 
ENDBRANCH   7  10
ENDBRANCH   4   7
BRANCH   1  17
ATOM     17  N   UNL     1       1.517   9.191  19.866  0.00  0.00    +0.000 N 
ATOM     18  H   UNL     1       0.950   9.260  20.711  0.00  0.00    +0.000 HD
BRANCH  17  19
ATOM     19  S   UNL     1       0.888  10.219  18.675  0.00  0.00    +0.000 S 
ATOM     20  O   UNL     1       0.105   9.410  17.759  0.00  0.00    +0.000 OA
ATOM     21  O   UNL     1       1.985  11.026  18.184  0.00  0.00    +0.000 OA
BRANCH  19  26
ATOM     22  C   UNL     1      -2.479  12.194  19.725  0.00  0.00    +0.000 A 
ATOM     23  C   UNL     1      -2.045  13.027  20.752  0.00  0.00    +0.000 A 
ATOM     24  C   UNL     1      -0.715  13.014  21.170  0.00  0.00    +0.000 A 
ATOM     25  C   UNL     1       0.219  12.168  20.555  0.00  0.00    +0.000 A 
ATOM     26  C   UNL     1      -0.230  11.304  19.543  0.00  0.00    +0.000 A 
ATOM     27  C   UNL     1      -1.572  11.323  19.128  0.00  0.00    +0.000 A 
BRANCH  22  29
ATOM     28  C   UNL     1      -4.666  12.800  20.419  0.00  0.00    +0.000 C 
ATOM     29  O   UNL     1      -3.798  12.329  19.396  0.00  0.00    +0.000 OA
ENDBRANCH  22  29
BRANCH  25  30
ATOM     30  O   UNL     1       1.532  12.116  20.945  0.00  0.00    +0.000 OA
ATOM     31  C   UNL     1       2.256  13.344  20.814  0.00  0.00    +0.000 C 
ENDBRANCH  25  30
ENDBRANCH  19  26
ENDBRANCH  17  19
ENDBRANCH   1  17
TORSDOF 7
ENDMDL
