MODEL 1
REMARK VINA RESULT:      -7.7      0.000      0.000
REMARK  Name = 
REMARK  5 active torsions:
REMARK  status: ('A' for Active; 'I' for Inactive)
REMARK    1  A    between atoms: C_1  and  C_2
REMARK    2  A    between atoms: C_5  and  C_6
REMARK    3  A    between atoms: C_6  and  C_8
REMARK    4  A    between atoms: C_8  and  N_9
REMARK    5  A    between atoms: N_12  and  N_13
REMARK                            x       y       z     vdW  Elec       q    Type
REMARK                         _______ _______ _______ _____ _____    ______ ____
ROOT
ATOM      1  N   UNL     1       3.630   4.343  18.468  0.00  0.00    +0.000 N 
ATOM      2  C   UNL     1       4.749   3.641  18.824  0.00  0.00    +0.000 A 
ATOM      3  N   UNL     1       5.893   3.721  18.243  0.00  0.00    +0.000 NA
ATOM      4  N   UNL     1       4.518   2.806  19.867  0.00  0.00    +0.000 N 
ATOM      5  C   UNL     1       3.226   2.984  20.193  0.00  0.00    +0.000 A 
ATOM      6  C   UNL     1       2.480   2.367  21.199  0.00  0.00    +0.000 A 
ATOM      7  C   UNL     1       1.131   2.736  21.327  0.00  0.00    +0.000 A 
ATOM      8  C   UNL     1       0.563   3.691  20.456  0.00  0.00    +0.000 A 
ATOM      9  C   UNL     1       1.337   4.288  19.445  0.00  0.00    +0.000 A 
ATOM     10  C   UNL     1       2.682   3.914  19.341  0.00  0.00    +0.000 A 
ATOM     11  H   UNL     1       6.079   4.340  17.446  0.00  0.00    +0.000 HD
ENDROOT
BRANCH   4  12
ATOM     12  N   UNL     1       5.422   1.930  20.461  0.00  0.00    +0.000 N 
ATOM     13  H   UNL     1       5.574   1.945  21.480  0.00  0.00    +0.000 HD
ATOM     14  H   UNL     1       5.976   1.277  19.890  0.00  0.00    +0.000 HD
ENDBRANCH   4  12
BRANCH   1  15
ATOM     15  C   UNL     1       3.447   5.306  17.363  0.00  0.00    +0.000 C 
BRANCH  15  16
ATOM     16  C   UNL     1       3.756   6.733  17.772  0.00  0.00    +0.000 C 
ATOM     17  O   UNL     1       4.888   7.146  17.562  0.00  0.00    +0.000 OA
BRANCH  16  22
ATOM     18  C   UNL     1      -0.211  10.293  20.099  0.00  0.00    +0.000 C 
ATOM     19  C   UNL     1       0.841   9.395  19.513  0.00  0.00    +0.000 A 
ATOM     20  C   UNL     1       1.273   9.572  18.193  0.00  0.00    +0.000 A 
ATOM     21  C   UNL     1       2.227   8.714  17.644  0.00  0.00    +0.000 A 
ATOM     22  C   UNL     1       2.765   7.653  18.401  0.00  0.00    +0.000 A 
ATOM     23  C   UNL     1       2.341   7.493  19.732  0.00  0.00    +0.000 A 
ATOM     24  C   UNL     1       1.390   8.360  20.283  0.00  0.00    +0.000 A 
ENDBRANCH  16  22
ENDBRANCH  15  16
ENDBRANCH   1  15
TORSDOF 4
ENDMDL
MODEL 2
REMARK VINA RESULT:      -7.7      0.088      1.060
REMARK  Name = 
REMARK  5 active torsions:
REMARK  status: ('A' for Active; 'I' for Inactive)
REMARK    1  A    between atoms: C_1  and  C_2
REMARK    2  A    between atoms: C_5  and  C_6
REMARK    3  A    between atoms: C_6  and  C_8
REMARK    4  A    between atoms: C_8  and  N_9
REMARK    5  A    between atoms: N_12  and  N_13
REMARK                            x       y       z     vdW  Elec       q    Type
REMARK                         _______ _______ _______ _____ _____    ______ ____
ROOT
ATOM      1  N   UNL     1       3.601   4.283  18.488  0.00  0.00    +0.000 N 
ATOM      2  C   UNL     1       4.725   3.586  18.838  0.00  0.00    +0.000 A 
ATOM      3  N   UNL     1       5.864   3.666  18.246  0.00  0.00    +0.000 NA
ATOM      4  N   UNL     1       4.507   2.756  19.888  0.00  0.00    +0.000 N 
ATOM      5  C   UNL     1       3.217   2.932  20.224  0.00  0.00    +0.000 A 
ATOM      6  C   UNL     1       2.482   2.318  21.240  0.00  0.00    +0.000 A 
ATOM      7  C   UNL     1       1.133   2.683  21.379  0.00  0.00    +0.000 A 
ATOM      8  C   UNL     1       0.554   3.632  20.508  0.00  0.00    +0.000 A 
ATOM      9  C   UNL     1       1.318   4.226  19.487  0.00  0.00    +0.000 A 
ATOM     10  C   UNL     1       2.663   3.855  19.373  0.00  0.00    +0.000 A 
ATOM     11  H   UNL     1       6.041   4.281  17.444  0.00  0.00    +0.000 HD
ENDROOT
BRANCH   4  12
ATOM     12  N   UNL     1       5.419   1.886  20.478  0.00  0.00    +0.000 N 
ATOM     13  H   UNL     1       5.163   0.905  20.663  0.00  0.00    +0.000 HD
ATOM     14  H   UNL     1       6.349   2.216  20.771  0.00  0.00    +0.000 HD
ENDBRANCH   4  12
BRANCH   1  15
ATOM     15  C   UNL     1       3.405   5.239  17.380  0.00  0.00    +0.000 C 
BRANCH  15  16
ATOM     16  C   UNL     1       3.727   6.667  17.774  0.00  0.00    +0.000 C 
ATOM     17  O   UNL     1       4.868   7.062  17.576  0.00  0.00    +0.000 OA
BRANCH  16  22
ATOM     18  C   UNL     1      -0.020  10.367  20.242  0.00  0.00    +0.000 C 
ATOM     19  C   UNL     1       0.918   9.392  19.591  0.00  0.00    +0.000 A 
ATOM     20  C   UNL     1       1.445   8.317  20.318  0.00  0.00    +0.000 A 
ATOM     21  C   UNL     1       2.341   7.433  19.716  0.00  0.00    +0.000 A 
ATOM     22  C   UNL     1       2.739   7.609  18.375  0.00  0.00    +0.000 A 
ATOM     23  C   UNL     1       2.191   8.679  17.645  0.00  0.00    +0.000 A 
ATOM     24  C   UNL     1       1.285   9.560  18.248  0.00  0.00    +0.000 A 
ENDBRANCH  16  22
ENDBRANCH  15  16
ENDBRANCH   1  15
TORSDOF 4
ENDMDL
MODEL 3
REMARK VINA RESULT:      -7.5      3.099      5.329
REMARK  Name = 
REMARK  5 active torsions:
REMARK  status: ('A' for Active; 'I' for Inactive)
REMARK    1  A    between atoms: C_1  and  C_2
REMARK    2  A    between atoms: C_5  and  C_6
REMARK    3  A    between atoms: C_6  and  C_8
REMARK    4  A    between atoms: C_8  and  N_9
REMARK    5  A    between atoms: N_12  and  N_13
REMARK                            x       y       z     vdW  Elec       q    Type
REMARK                         _______ _______ _______ _____ _____    ______ ____
ROOT
ATOM      1  N   UNL     1       4.491   5.006  18.102  0.00  0.00    +0.000 N 
ATOM      2  C   UNL     1       5.332   4.163  18.776  0.00  0.00    +0.000 A 
ATOM      3  N   UNL     1       6.598   4.337  18.923  0.00  0.00    +0.000 NA
ATOM      4  N   UNL     1       4.684   3.077  19.265  0.00  0.00    +0.000 N 
ATOM      5  C   UNL     1       3.398   3.233  18.907  0.00  0.00    +0.000 A 
ATOM      6  C   UNL     1       2.308   2.398  19.159  0.00  0.00    +0.000 A 
ATOM      7  C   UNL     1       1.055   2.796  18.664  0.00  0.00    +0.000 A 
ATOM      8  C   UNL     1       0.922   3.996  17.932  0.00  0.00    +0.000 A 
ATOM      9  C   UNL     1       2.041   4.811  17.685  0.00  0.00    +0.000 A 
ATOM     10  C   UNL     1       3.278   4.401  18.195  0.00  0.00    +0.000 A 
ATOM     11  H   UNL     1       7.103   5.148  18.549  0.00  0.00    +0.000 HD
ENDROOT
BRANCH   4  12
ATOM     12  N   UNL     1       5.237   2.012  19.971  0.00  0.00    +0.000 N 
ATOM     13  H   UNL     1       4.667   1.187  20.206  0.00  0.00    +0.000 HD
ATOM     14  H   UNL     1       6.213   2.046  20.297  0.00  0.00    +0.000 HD
ENDBRANCH   4  12
BRANCH   1  15
ATOM     15  C   UNL     1       4.805   6.257  17.383  0.00  0.00    +0.000 C 
BRANCH  15  16
ATOM     16  C   UNL     1       6.029   6.133  16.497  0.00  0.00    +0.000 C 
ATOM     17  O   UNL     1       7.029   6.755  16.828  0.00  0.00    +0.000 OA
BRANCH  16  22
ATOM     18  C   UNL     1       6.388   2.816  11.733  0.00  0.00    +0.000 C 
ATOM     19  C   UNL     1       6.276   3.699  12.942  0.00  0.00    +0.000 A 
ATOM     20  C   UNL     1       7.310   4.581  13.279  0.00  0.00    +0.000 A 
ATOM     21  C   UNL     1       7.213   5.375  14.423  0.00  0.00    +0.000 A 
ATOM     22  C   UNL     1       6.084   5.297  15.263  0.00  0.00    +0.000 A 
ATOM     23  C   UNL     1       5.040   4.423  14.908  0.00  0.00    +0.000 A 
ATOM     24  C   UNL     1       5.136   3.634  13.756  0.00  0.00    +0.000 A 
ENDBRANCH  16  22
ENDBRANCH  15  16
ENDBRANCH   1  15
TORSDOF 4
ENDMDL
MODEL 4
REMARK VINA RESULT:      -7.5      2.630      4.557
REMARK  Name = 
REMARK  5 active torsions:
REMARK  status: ('A' for Active; 'I' for Inactive)
REMARK    1  A    between atoms: C_1  and  C_2
REMARK    2  A    between atoms: C_5  and  C_6
REMARK    3  A    between atoms: C_6  and  C_8
REMARK    4  A    between atoms: C_8  and  N_9
REMARK    5  A    between atoms: N_12  and  N_13
REMARK                            x       y       z     vdW  Elec       q    Type
REMARK                         _______ _______ _______ _____ _____    ______ ____
ROOT
ATOM      1  N   UNL     1       3.583   3.971  17.906  0.00  0.00    +0.000 N 
ATOM      2  C   UNL     1       3.547   2.975  18.844  0.00  0.00    +0.000 A 
ATOM      3  N   UNL     1       3.930   1.762  18.655  0.00  0.00    +0.000 NA
ATOM      4  N   UNL     1       3.024   3.400  20.021  0.00  0.00    +0.000 N 
ATOM      5  C   UNL     1       2.729   4.698  19.837  0.00  0.00    +0.000 A 
ATOM      6  C   UNL     1       2.169   5.608  20.735  0.00  0.00    +0.000 A 
ATOM      7  C   UNL     1       1.957   6.921  20.285  0.00  0.00    +0.000 A 
ATOM      8  C   UNL     1       2.297   7.289  18.964  0.00  0.00    +0.000 A 
ATOM      9  C   UNL     1       2.851   6.347  18.079  0.00  0.00    +0.000 A 
ATOM     10  C   UNL     1       3.062   5.046  18.552  0.00  0.00    +0.000 A 
ATOM     11  H   UNL     1       4.317   1.424  17.767  0.00  0.00    +0.000 HD
ENDROOT
BRANCH   4  12
ATOM     12  N   UNL     1       2.815   2.645  21.171  0.00  0.00    +0.000 N 
ATOM     13  H   UNL     1       3.409   2.779  22.002  0.00  0.00    +0.000 HD
ATOM     14  H   UNL     1       2.087   1.917  21.199  0.00  0.00    +0.000 HD
ENDBRANCH   4  12
BRANCH   1  15
ATOM     15  C   UNL     1       4.024   3.909  16.498  0.00  0.00    +0.000 C 
BRANCH  15  16
ATOM     16  C   UNL     1       5.518   4.118  16.342  0.00  0.00    +0.000 C 
ATOM     17  O   UNL     1       6.131   3.307  15.661  0.00  0.00    +0.000 OA
BRANCH  16  22
ATOM     18  C   UNL     1       8.594   8.443  18.720  0.00  0.00    +0.000 C 
ATOM     19  C   UNL     1       7.771   7.334  18.130  0.00  0.00    +0.000 A 
ATOM     20  C   UNL     1       7.933   6.015  18.571  0.00  0.00    +0.000 A 
ATOM     21  C   UNL     1       7.189   4.984  17.996  0.00  0.00    +0.000 A 
ATOM     22  C   UNL     1       6.270   5.248  16.959  0.00  0.00    +0.000 A 
ATOM     23  C   UNL     1       6.098   6.577  16.535  0.00  0.00    +0.000 A 
ATOM     24  C   UNL     1       6.840   7.611  17.119  0.00  0.00    +0.000 A 
ENDBRANCH  16  22
ENDBRANCH  15  16
ENDBRANCH   1  15
TORSDOF 4
ENDMDL
MODEL 5
REMARK VINA RESULT:      -7.4      2.676      4.623
REMARK  Name = 
REMARK  5 active torsions:
REMARK  status: ('A' for Active; 'I' for Inactive)
REMARK    1  A    between atoms: C_1  and  C_2
REMARK    2  A    between atoms: C_5  and  C_6
REMARK    3  A    between atoms: C_6  and  C_8
REMARK    4  A    between atoms: C_8  and  N_9
REMARK    5  A    between atoms: N_12  and  N_13
REMARK                            x       y       z     vdW  Elec       q    Type
REMARK                         _______ _______ _______ _____ _____    ______ ____
ROOT
ATOM      1  N   UNL     1       5.160   3.967  17.649  0.00  0.00    +0.000 N 
ATOM      2  C   UNL     1       5.948   4.732  18.466  0.00  0.00    +0.000 A 
ATOM      3  N   UNL     1       5.804   4.848  19.739  0.00  0.00    +0.000 NA
ATOM      4  N   UNL     1       6.907   5.396  17.777  0.00  0.00    +0.000 N 
ATOM      5  C   UNL     1       6.739   5.042  16.491  0.00  0.00    +0.000 A 
ATOM      6  C   UNL     1       7.463   5.442  15.367  0.00  0.00    +0.000 A 
ATOM      7  C   UNL     1       7.074   4.920  14.122  0.00  0.00    +0.000 A 
ATOM      8  C   UNL     1       5.981   4.031  14.028  0.00  0.00    +0.000 A 
ATOM      9  C   UNL     1       5.264   3.654  15.178  0.00  0.00    +0.000 A 
ATOM     10  C   UNL     1       5.675   4.178  16.409  0.00  0.00    +0.000 A 
ATOM     11  H   UNL     1       5.076   4.360  20.272  0.00  0.00    +0.000 HD
ENDROOT
BRANCH   4  12
ATOM     12  N   UNL     1       7.854   6.279  18.288  0.00  0.00    +0.000 N 
ATOM     13  H   UNL     1       7.637   6.864  19.108  0.00  0.00    +0.000 HD
ATOM     14  H   UNL     1       8.774   6.385  17.837  0.00  0.00    +0.000 HD
ENDBRANCH   4  12
BRANCH   1  15
ATOM     15  C   UNL     1       3.986   3.141  17.993  0.00  0.00    +0.000 C 
BRANCH  15  16
ATOM     16  C   UNL     1       2.683   3.914  17.919  0.00  0.00    +0.000 C 
ATOM     17  O   UNL     1       1.850   3.536  17.107  0.00  0.00    +0.000 OA
BRANCH  16  22
ATOM     18  C   UNL     1       1.340   8.564  21.143  0.00  0.00    +0.000 C 
ATOM     19  C   UNL     1       1.721   7.362  20.328  0.00  0.00    +0.000 A 
ATOM     20  C   UNL     1       2.247   7.514  19.039  0.00  0.00    +0.000 A 
ATOM     21  C   UNL     1       2.569   6.391  18.274  0.00  0.00    +0.000 A 
ATOM     22  C   UNL     1       2.363   5.091  18.777  0.00  0.00    +0.000 A 
ATOM     23  C   UNL     1       1.853   4.946  20.080  0.00  0.00    +0.000 A 
ATOM     24  C   UNL     1       1.538   6.073  20.848  0.00  0.00    +0.000 A 
ENDBRANCH  16  22
ENDBRANCH  15  16
ENDBRANCH   1  15
TORSDOF 4
ENDMDL
MODEL 6
REMARK VINA RESULT:      -7.4      2.704      4.775
REMARK  Name = 
REMARK  5 active torsions:
REMARK  status: ('A' for Active; 'I' for Inactive)
REMARK    1  A    between atoms: C_1  and  C_2
REMARK    2  A    between atoms: C_5  and  C_6
REMARK    3  A    between atoms: C_6  and  C_8
REMARK    4  A    between atoms: C_8  and  N_9
REMARK    5  A    between atoms: N_12  and  N_13
REMARK                            x       y       z     vdW  Elec       q    Type
REMARK                         _______ _______ _______ _____ _____    ______ ____
ROOT
ATOM      1  N   UNL     1       5.191   3.981  17.624  0.00  0.00    +0.000 N 
ATOM      2  C   UNL     1       5.961   4.776  18.429  0.00  0.00    +0.000 A 
ATOM      3  N   UNL     1       5.815   4.909  19.699  0.00  0.00    +0.000 NA
ATOM      4  N   UNL     1       6.904   5.452  17.728  0.00  0.00    +0.000 N 
ATOM      5  C   UNL     1       6.743   5.075  16.448  0.00  0.00    +0.000 A 
ATOM      6  C   UNL     1       7.457   5.474  15.318  0.00  0.00    +0.000 A 
ATOM      7  C   UNL     1       7.079   4.925  14.081  0.00  0.00    +0.000 A 
ATOM      8  C   UNL     1       6.007   4.009  14.002  0.00  0.00    +0.000 A 
ATOM      9  C   UNL     1       5.300   3.633  15.158  0.00  0.00    +0.000 A 
ATOM     10  C   UNL     1       5.699   4.185  16.381  0.00  0.00    +0.000 A 
ATOM     11  H   UNL     1       5.099   4.413  20.241  0.00  0.00    +0.000 HD
ENDROOT
BRANCH   4  12
ATOM     12  N   UNL     1       7.831   6.364  18.225  0.00  0.00    +0.000 N 
ATOM     13  H   UNL     1       7.527   7.149  18.820  0.00  0.00    +0.000 HD
ATOM     14  H   UNL     1       8.828   6.289  17.980  0.00  0.00    +0.000 HD
ENDBRANCH   4  12
BRANCH   1  15
ATOM     15  C   UNL     1       4.036   3.134  17.982  0.00  0.00    +0.000 C 
BRANCH  15  16
ATOM     16  C   UNL     1       2.715   3.872  17.889  0.00  0.00    +0.000 C 
ATOM     17  O   UNL     1       1.891   3.454  17.087  0.00  0.00    +0.000 OA
BRANCH  16  22
ATOM     18  C   UNL     1       1.447   8.452  21.242  0.00  0.00    +0.000 C 
ATOM     19  C   UNL     1       1.739   7.272  20.360  0.00  0.00    +0.000 A 
ATOM     20  C   UNL     1       1.537   5.968  20.826  0.00  0.00    +0.000 A 
ATOM     21  C   UNL     1       1.842   4.875  20.013  0.00  0.00    +0.000 A 
ATOM     22  C   UNL     1       2.366   5.062  18.718  0.00  0.00    +0.000 A 
ATOM     23  C   UNL     1       2.549   6.376  18.249  0.00  0.00    +0.000 A 
ATOM     24  C   UNL     1       2.234   7.470  19.063  0.00  0.00    +0.000 A 
ENDBRANCH  16  22
ENDBRANCH  15  16
ENDBRANCH   1  15
TORSDOF 4
ENDMDL
MODEL 7
REMARK VINA RESULT:      -7.4      3.172      5.459
REMARK  Name = 
REMARK  5 active torsions:
REMARK  status: ('A' for Active; 'I' for Inactive)
REMARK    1  A    between atoms: C_1  and  C_2
REMARK    2  A    between atoms: C_5  and  C_6
REMARK    3  A    between atoms: C_6  and  C_8
REMARK    4  A    between atoms: C_8  and  N_9
REMARK    5  A    between atoms: N_12  and  N_13
REMARK                            x       y       z     vdW  Elec       q    Type
REMARK                         _______ _______ _______ _____ _____    ______ ____
ROOT
ATOM      1  N   UNL     1       4.720   5.083  18.045  0.00  0.00    +0.000 N 
ATOM      2  C   UNL     1       5.468   4.201  18.775  0.00  0.00    +0.000 A 
ATOM      3  N   UNL     1       6.738   4.281  18.961  0.00  0.00    +0.000 NA
ATOM      4  N   UNL     1       4.720   3.187  19.276  0.00  0.00    +0.000 N 
ATOM      5  C   UNL     1       3.463   3.430  18.867  0.00  0.00    +0.000 A 
ATOM      6  C   UNL     1       2.303   2.693  19.108  0.00  0.00    +0.000 A 
ATOM      7  C   UNL     1       1.102   3.170  18.556  0.00  0.00    +0.000 A 
ATOM      8  C   UNL     1       1.089   4.350  17.780  0.00  0.00    +0.000 A 
ATOM      9  C   UNL     1       2.277   5.067  17.547  0.00  0.00    +0.000 A 
ATOM     10  C   UNL     1       3.460   4.579  18.115  0.00  0.00    +0.000 A 
ATOM     11  H   UNL     1       7.319   5.036  18.580  0.00  0.00    +0.000 HD
ENDROOT
BRANCH   4  12
ATOM     12  N   UNL     1       5.164   2.108  20.035  0.00  0.00    +0.000 N 
ATOM     13  H   UNL     1       5.783   2.256  20.845  0.00  0.00    +0.000 HD
ATOM     14  H   UNL     1       4.908   1.144  19.780  0.00  0.00    +0.000 HD
ENDBRANCH   4  12
BRANCH   1  15
ATOM     15  C   UNL     1       5.156   6.279  17.297  0.00  0.00    +0.000 C 
BRANCH  15  16
ATOM     16  C   UNL     1       6.351   6.010  16.404  0.00  0.00    +0.000 C 
ATOM     17  O   UNL     1       7.419   6.511  16.727  0.00  0.00    +0.000 OA
BRANCH  16  22
ATOM     18  C   UNL     1       5.997   2.805  11.564  0.00  0.00    +0.000 C 
ATOM     19  C   UNL     1       6.109   3.604  12.830  0.00  0.00    +0.000 A 
ATOM     20  C   UNL     1       5.086   3.572  13.785  0.00  0.00    +0.000 A 
ATOM     21  C   UNL     1       5.181   4.343  14.945  0.00  0.00    +0.000 A 
ATOM     22  C   UNL     1       6.298   5.172  15.172  0.00  0.00    +0.000 A 
ATOM     23  C   UNL     1       7.331   5.184  14.218  0.00  0.00    +0.000 A 
ATOM     24  C   UNL     1       7.238   4.404  13.059  0.00  0.00    +0.000 A 
ENDBRANCH  16  22
ENDBRANCH  15  16
ENDBRANCH   1  15
TORSDOF 4
ENDMDL
MODEL 8
REMARK VINA RESULT:      -7.4      2.647      4.476
REMARK  Name = 
REMARK  5 active torsions:
REMARK  status: ('A' for Active; 'I' for Inactive)
REMARK    1  A    between atoms: C_1  and  C_2
REMARK    2  A    between atoms: C_5  and  C_6
REMARK    3  A    between atoms: C_6  and  C_8
REMARK    4  A    between atoms: C_8  and  N_9
REMARK    5  A    between atoms: N_12  and  N_13
REMARK                            x       y       z     vdW  Elec       q    Type
REMARK                         _______ _______ _______ _____ _____    ______ ____
ROOT
ATOM      1  N   UNL     1       3.583   3.993  17.945  0.00  0.00    +0.000 N 
ATOM      2  C   UNL     1       3.548   2.988  18.874  0.00  0.00    +0.000 A 
ATOM      3  N   UNL     1       3.927   1.776  18.671  0.00  0.00    +0.000 NA
ATOM      4  N   UNL     1       3.034   3.403  20.057  0.00  0.00    +0.000 N 
ATOM      5  C   UNL     1       2.742   4.704  19.888  0.00  0.00    +0.000 A 
ATOM      6  C   UNL     1       2.190   5.607  20.798  0.00  0.00    +0.000 A 
ATOM      7  C   UNL     1       1.981   6.925  20.361  0.00  0.00    +0.000 A 
ATOM      8  C   UNL     1       2.315   7.305  19.043  0.00  0.00    +0.000 A 
ATOM      9  C   UNL     1       2.861   6.370  18.145  0.00  0.00    +0.000 A 
ATOM     10  C   UNL     1       3.070   5.064  18.604  0.00  0.00    +0.000 A 
ATOM     11  H   UNL     1       4.308   1.445  17.778  0.00  0.00    +0.000 HD
ENDROOT
BRANCH   4  12
ATOM     12  N   UNL     1       2.828   2.637  21.202  0.00  0.00    +0.000 N 
ATOM     13  H   UNL     1       3.515   2.647  21.969  0.00  0.00    +0.000 HD
ATOM     14  H   UNL     1       2.005   2.024  21.285  0.00  0.00    +0.000 HD
ENDBRANCH   4  12
BRANCH   1  15
ATOM     15  C   UNL     1       4.017   3.943  16.535  0.00  0.00    +0.000 C 
BRANCH  15  16
ATOM     16  C   UNL     1       5.520   4.062  16.379  0.00  0.00    +0.000 C 
ATOM     17  O   UNL     1       6.087   3.202  15.718  0.00  0.00    +0.000 OA
BRANCH  16  22
ATOM     18  C   UNL     1       8.561   8.433  18.718  0.00  0.00    +0.000 C 
ATOM     19  C   UNL     1       7.806   7.296  18.092  0.00  0.00    +0.000 A 
ATOM     20  C   UNL     1       6.927   7.527  17.026  0.00  0.00    +0.000 A 
ATOM     21  C   UNL     1       6.203   6.471  16.470  0.00  0.00    +0.000 A 
ATOM     22  C   UNL     1       6.336   5.160  16.973  0.00  0.00    +0.000 A 
ATOM     23  C   UNL     1       7.235   4.933  18.030  0.00  0.00    +0.000 A 
ATOM     24  C   UNL     1       7.966   5.992  18.581  0.00  0.00    +0.000 A 
ENDBRANCH  16  22
ENDBRANCH  15  16
ENDBRANCH   1  15
TORSDOF 4
ENDMDL
MODEL 9
REMARK VINA RESULT:      -7.3      1.324      1.949
REMARK  Name = 
REMARK  5 active torsions:
REMARK  status: ('A' for Active; 'I' for Inactive)
REMARK    1  A    between atoms: C_1  and  C_2
REMARK    2  A    between atoms: C_5  and  C_6
REMARK    3  A    between atoms: C_6  and  C_8
REMARK    4  A    between atoms: C_8  and  N_9
REMARK    5  A    between atoms: N_12  and  N_13
REMARK                            x       y       z     vdW  Elec       q    Type
REMARK                         _______ _______ _______ _____ _____    ______ ____
ROOT
ATOM      1  N   UNL     1       2.829   5.590  18.514  0.00  0.00    +0.000 N 
ATOM      2  C   UNL     1       4.145   5.346  18.228  0.00  0.00    +0.000 A 
ATOM      3  N   UNL     1       4.854   6.001  17.378  0.00  0.00    +0.000 NA
ATOM      4  N   UNL     1       4.634   4.295  18.930  0.00  0.00    +0.000 N 
ATOM      5  C   UNL     1       3.615   3.862  19.691  0.00  0.00    +0.000 A 
ATOM      6  C   UNL     1       3.583   2.804  20.600  0.00  0.00    +0.000 A 
ATOM      7  C   UNL     1       2.374   2.558  21.272  0.00  0.00    +0.000 A 
ATOM      8  C   UNL     1       1.238   3.357  21.017  0.00  0.00    +0.000 A 
ATOM      9  C   UNL     1       1.297   4.411  20.088  0.00  0.00    +0.000 A 
ATOM     10  C   UNL     1       2.515   4.644  19.437  0.00  0.00    +0.000 A 
ATOM     11  H   UNL     1       4.494   6.791  16.832  0.00  0.00    +0.000 HD
ENDROOT
BRANCH   4  12
ATOM     12  N   UNL     1       5.917   3.759  18.860  0.00  0.00    +0.000 N 
ATOM     13  H   UNL     1       6.646   4.056  19.526  0.00  0.00    +0.000 HD
ATOM     14  H   UNL     1       6.168   3.084  18.124  0.00  0.00    +0.000 HD
ENDBRANCH   4  12
BRANCH   1  15
ATOM     15  C   UNL     1       1.922   6.600  17.934  0.00  0.00    +0.000 C 
BRANCH  15  16
ATOM     16  C   UNL     1       2.197   8.000  18.446  0.00  0.00    +0.000 C 
ATOM     17  O   UNL     1       3.058   8.651  17.869  0.00  0.00    +0.000 OA
BRANCH  16  22
ATOM     18  C   UNL     1      -0.735  10.432  22.840  0.00  0.00    +0.000 C 
ATOM     19  C   UNL     1       0.054   9.823  21.717  0.00  0.00    +0.000 A 
ATOM     20  C   UNL     1       0.043  10.403  20.443  0.00  0.00    +0.000 A 
ATOM     21  C   UNL     1       0.752   9.813  19.395  0.00  0.00    +0.000 A 
ATOM     22  C   UNL     1       1.481   8.623  19.596  0.00  0.00    +0.000 A 
ATOM     23  C   UNL     1       1.504   8.057  20.883  0.00  0.00    +0.000 A 
ATOM     24  C   UNL     1       0.799   8.655  21.934  0.00  0.00    +0.000 A 
ENDBRANCH  16  22
ENDBRANCH  15  16
ENDBRANCH   1  15
TORSDOF 4
ENDMDL
