MODEL 1
REMARK VINA RESULT:      -7.3      0.000      0.000
REMARK  Name = 
REMARK  7 active torsions:
REMARK  status: ('A' for Active; 'I' for Inactive)
REMARK    1  A    between atoms: C_1  and  C_2
REMARK    2  A    between atoms: C_4  and  N_5
REMARK    3  A    between atoms: N_8  and  C_9
REMARK    4  A    between atoms: C_12  and  C_13
REMARK    5  A    between atoms: C_21  and  C_22
REMARK    6  A    between atoms: C_22  and  C_23
REMARK    7  A    between atoms: C_22  and  C_24
REMARK                            x       y       z     vdW  Elec       q    Type
REMARK                         _______ _______ _______ _____ _____    ______ ____
ROOT
ATOM      1  N   UNL     1       1.974   7.448  19.453  0.00  0.00    +0.000 N 
ATOM      2  C   UNL     1       2.440   8.235  18.298  0.00  0.00    +0.000 C 
ATOM      3  C   UNL     1       1.324   9.247  17.914  0.00  0.00    +0.000 C 
ATOM      4  N   UNL     1       1.025  10.071  19.104  0.00  0.00    +0.000 N 
ATOM      5  C   UNL     1       0.555   9.284  20.257  0.00  0.00    +0.000 C 
ATOM      6  C   UNL     1       1.661   8.269  20.641  0.00  0.00    +0.000 C 
ENDROOT
BRANCH   1  10
ATOM      7  C   UNL     1       1.651   3.057  21.491  0.00  0.00    +0.000 C 
ATOM      8  C   UNL     1       2.373   4.060  20.644  0.00  0.00    +0.000 A 
ATOM      9  C   UNL     1       1.936   5.363  20.576  0.00  0.00    +0.000 A 
ATOM     10  C   UNL     1       2.543   6.199  19.657  0.00  0.00    +0.000 A 
ATOM     11  N   UNL     1       3.555   5.769  18.885  0.00  0.00    +0.000 NA
ATOM     12  C   UNL     1       3.960   4.492  19.048  0.00  0.00    +0.000 A 
ATOM     13  N   UNL     1       3.396   3.611  19.898  0.00  0.00    +0.000 NA
BRANCH  12  14
ATOM     14  C   UNL     1       5.111   3.976  18.211  0.00  0.00    +0.000 C 
ATOM     15  C   UNL     1       4.726   3.866  16.738  0.00  0.00    +0.000 C 
ATOM     16  C   UNL     1       6.360   4.835  18.395  0.00  0.00    +0.000 C 
ENDBRANCH  12  14
ENDBRANCH   1  10
BRANCH   4  17
ATOM     17  C   UNL     1       0.709  11.400  18.948  0.00  0.00    +0.000 A 
ATOM     18  N   UNL     1       1.652  12.309  19.299  0.00  0.00    +0.000 NA
ATOM     19  C   UNL     1       1.344  13.631  19.238  0.00  0.00    +0.000 A 
ATOM     20  C   UNL     1       0.105  14.118  18.829  0.00  0.00    +0.000 A 
ATOM     21  C   UNL     1      -0.864  13.189  18.480  0.00  0.00    +0.000 A 
ATOM     22  C   UNL     1      -0.571  11.825  18.542  0.00  0.00    +0.000 A 
ATOM     23 CL   UNL     1      -1.900  10.751  18.256  0.00  0.00    +0.000 Cl
BRANCH  20  24
ATOM     24  C   UNL     1      -0.159  15.513  18.815  0.00  0.00    +0.000 C 
ATOM     25  N   UNL     1      -0.391  16.652  18.811  0.00  0.00    +0.000 NA
ENDBRANCH  20  24
ENDBRANCH   4  17
TORSDOF 4
ENDMDL
MODEL 2
REMARK VINA RESULT:      -7.2      2.362      2.767
REMARK  Name = 
REMARK  7 active torsions:
REMARK  status: ('A' for Active; 'I' for Inactive)
REMARK    1  A    between atoms: C_1  and  C_2
REMARK    2  A    between atoms: C_4  and  N_5
REMARK    3  A    between atoms: N_8  and  C_9
REMARK    4  A    between atoms: C_12  and  C_13
REMARK    5  A    between atoms: C_21  and  C_22
REMARK    6  A    between atoms: C_22  and  C_23
REMARK    7  A    between atoms: C_22  and  C_24
REMARK                            x       y       z     vdW  Elec       q    Type
REMARK                         _______ _______ _______ _____ _____    ______ ____
ROOT
ATOM      1  N   UNL     1       2.554   7.679  18.659  0.00  0.00    +0.000 N 
ATOM      2  C   UNL     1       1.623   7.506  19.789  0.00  0.00    +0.000 C 
ATOM      3  C   UNL     1       1.320   8.907  20.390  0.00  0.00    +0.000 C 
ATOM      4  N   UNL     1       0.780   9.760  19.311  0.00  0.00    +0.000 N 
ATOM      5  C   UNL     1       1.712   9.937  18.185  0.00  0.00    +0.000 C 
ATOM      6  C   UNL     1       2.024   8.542  17.584  0.00  0.00    +0.000 C 
ENDROOT
BRANCH   1  10
ATOM      7  C   UNL     1       2.793   2.978  17.487  0.00  0.00    +0.000 C 
ATOM      8  C   UNL     1       3.445   4.307  17.715  0.00  0.00    +0.000 A 
ATOM      9  C   UNL     1       2.732   5.351  18.258  0.00  0.00    +0.000 A 
ATOM     10  C   UNL     1       3.338   6.594  18.295  0.00  0.00    +0.000 A 
ATOM     11  N   UNL     1       4.596   6.770  17.857  0.00  0.00    +0.000 NA
ATOM     12  C   UNL     1       5.246   5.684  17.388  0.00  0.00    +0.000 A 
ATOM     13  N   UNL     1       4.710   4.452  17.290  0.00  0.00    +0.000 NA
BRANCH  12  14
ATOM     14  C   UNL     1       6.672   5.837  16.903  0.00  0.00    +0.000 C 
ATOM     15  C   UNL     1       7.355   7.042  17.546  0.00  0.00    +0.000 C 
ATOM     16  C   UNL     1       7.476   4.559  17.131  0.00  0.00    +0.000 C 
ENDBRANCH  12  14
ENDBRANCH   1  10
BRANCH   4  17
ATOM     17  C   UNL     1      -0.203  10.678  19.599  0.00  0.00    +0.000 A 
ATOM     18  N   UNL     1      -0.117  11.330  20.785  0.00  0.00    +0.000 NA
ATOM     19  C   UNL     1      -1.115  12.180  21.140  0.00  0.00    +0.000 A 
ATOM     20  C   UNL     1      -2.235  12.430  20.351  0.00  0.00    +0.000 A 
ATOM     21  C   UNL     1      -2.330  11.755  19.143  0.00  0.00    +0.000 A 
ATOM     22  C   UNL     1      -1.319  10.871  18.762  0.00  0.00    +0.000 A 
ATOM     23 CL   UNL     1      -1.619   9.952  17.324  0.00  0.00    +0.000 Cl
BRANCH  20  24
ATOM     24  C   UNL     1      -3.256  13.311  20.797  0.00  0.00    +0.000 C 
ATOM     25  N   UNL     1      -4.102  14.026  21.149  0.00  0.00    +0.000 NA
ENDBRANCH  20  24
ENDBRANCH   4  17
TORSDOF 4
ENDMDL
MODEL 3
REMARK VINA RESULT:      -7.2      2.331      2.749
REMARK  Name = 
REMARK  7 active torsions:
REMARK  status: ('A' for Active; 'I' for Inactive)
REMARK    1  A    between atoms: C_1  and  C_2
REMARK    2  A    between atoms: C_4  and  N_5
REMARK    3  A    between atoms: N_8  and  C_9
REMARK    4  A    between atoms: C_12  and  C_13
REMARK    5  A    between atoms: C_21  and  C_22
REMARK    6  A    between atoms: C_22  and  C_23
REMARK    7  A    between atoms: C_22  and  C_24
REMARK                            x       y       z     vdW  Elec       q    Type
REMARK                         _______ _______ _______ _____ _____    ______ ____
ROOT
ATOM      1  N   UNL     1       2.509   7.381  18.769  0.00  0.00    +0.000 N 
ATOM      2  C   UNL     1       1.699   7.224  19.990  0.00  0.00    +0.000 C 
ATOM      3  C   UNL     1       1.622   8.602  20.705  0.00  0.00    +0.000 C 
ATOM      4  N   UNL     1       1.061   9.582  19.751  0.00  0.00    +0.000 N 
ATOM      5  C   UNL     1       1.874   9.742  18.533  0.00  0.00    +0.000 C 
ATOM      6  C   UNL     1       1.961   8.370  17.818  0.00  0.00    +0.000 C 
ENDROOT
BRANCH   1  10
ATOM      7  C   UNL     1       2.263   2.630  17.820  0.00  0.00    +0.000 C 
ATOM      8  C   UNL     1       2.991   3.939  17.782  0.00  0.00    +0.000 A 
ATOM      9  C   UNL     1       2.497   5.034  18.454  0.00  0.00    +0.000 A 
ATOM     10  C   UNL     1       3.123   6.250  18.250  0.00  0.00    +0.000 A 
ATOM     11  N   UNL     1       4.204   6.355  17.459  0.00  0.00    +0.000 NA
ATOM     12  C   UNL     1       4.658   5.224  16.878  0.00  0.00    +0.000 A 
ATOM     13  N   UNL     1       4.082   4.013  17.002  0.00  0.00    +0.000 NA
BRANCH  12  14
ATOM     14  C   UNL     1       5.886   5.297  15.996  0.00  0.00    +0.000 C 
ATOM     15  C   UNL     1       7.123   4.760  16.711  0.00  0.00    +0.000 C 
ATOM     16  C   UNL     1       5.659   4.578  14.668  0.00  0.00    +0.000 C 
ENDBRANCH  12  14
ENDBRANCH   1  10
BRANCH   4  17
ATOM     17  C   UNL     1       0.225  10.573  20.208  0.00  0.00    +0.000 A 
ATOM     18  N   UNL     1       0.523  11.135  21.406  0.00  0.00    +0.000 NA
ATOM     19  C   UNL     1      -0.328  12.056  21.928  0.00  0.00    +0.000 A 
ATOM     20  C   UNL     1      -1.502  12.467  21.302  0.00  0.00    +0.000 A 
ATOM     21  C   UNL     1      -1.813  11.886  20.082  0.00  0.00    +0.000 A 
ATOM     22  C   UNL     1      -0.956  10.932  19.530  0.00  0.00    +0.000 A 
ATOM     23 CL   UNL     1      -1.524  10.142  18.096  0.00  0.00    +0.000 Cl
BRANCH  20  24
ATOM     24  C   UNL     1      -2.360  13.416  21.918  0.00  0.00    +0.000 C 
ATOM     25  N   UNL     1      -3.058  14.204  22.409  0.00  0.00    +0.000 NA
ENDBRANCH  20  24
ENDBRANCH   4  17
TORSDOF 4
ENDMDL
MODEL 4
REMARK VINA RESULT:      -7.1      0.930      2.373
REMARK  Name = 
REMARK  7 active torsions:
REMARK  status: ('A' for Active; 'I' for Inactive)
REMARK    1  A    between atoms: C_1  and  C_2
REMARK    2  A    between atoms: C_4  and  N_5
REMARK    3  A    between atoms: N_8  and  C_9
REMARK    4  A    between atoms: C_12  and  C_13
REMARK    5  A    between atoms: C_21  and  C_22
REMARK    6  A    between atoms: C_22  and  C_23
REMARK    7  A    between atoms: C_22  and  C_24
REMARK                            x       y       z     vdW  Elec       q    Type
REMARK                         _______ _______ _______ _____ _____    ______ ____
ROOT
ATOM      1  N   UNL     1       2.100   7.424  19.035  0.00  0.00    +0.000 N 
ATOM      2  C   UNL     1       2.505   8.355  17.966  0.00  0.00    +0.000 C 
ATOM      3  C   UNL     1       1.353   9.374  17.744  0.00  0.00    +0.000 C 
ATOM      4  N   UNL     1       1.079  10.043  19.033  0.00  0.00    +0.000 N 
ATOM      5  C   UNL     1       0.670   9.113  20.099  0.00  0.00    +0.000 C 
ATOM      6  C   UNL     1       1.813   8.090  20.322  0.00  0.00    +0.000 C 
ENDROOT
BRANCH   1  10
ATOM      7  C   UNL     1       6.202   4.834  19.028  0.00  0.00    +0.000 C 
ATOM      8  C   UNL     1       4.708   4.923  19.076  0.00  0.00    +0.000 A 
ATOM      9  C   UNL     1       4.071   6.123  18.853  0.00  0.00    +0.000 A 
ATOM     10  C   UNL     1       2.706   6.176  19.068  0.00  0.00    +0.000 A 
ATOM     11  N   UNL     1       2.015   5.085  19.439  0.00  0.00    +0.000 NA
ATOM     12  C   UNL     1       2.705   3.934  19.586  0.00  0.00    +0.000 A 
ATOM     13  N   UNL     1       4.037   3.814  19.427  0.00  0.00    +0.000 NA
BRANCH  12  14
ATOM     14  C   UNL     1       1.959   2.679  19.983  0.00  0.00    +0.000 C 
ATOM     15  C   UNL     1       1.392   2.788  21.397  0.00  0.00    +0.000 C 
ATOM     16  C   UNL     1       0.865   2.339  18.973  0.00  0.00    +0.000 C 
ENDBRANCH  12  14
ENDBRANCH   1  10
BRANCH   4  17
ATOM     17  C   UNL     1       0.727  11.372  19.047  0.00  0.00    +0.000 A 
ATOM     18  N   UNL     1       1.633  12.251  19.541  0.00  0.00    +0.000 NA
ATOM     19  C   UNL     1       1.287  13.560  19.648  0.00  0.00    +0.000 A 
ATOM     20  C   UNL     1       0.043  14.064  19.276  0.00  0.00    +0.000 A 
ATOM     21  C   UNL     1      -0.889  13.165  18.781  0.00  0.00    +0.000 A 
ATOM     22  C   UNL     1      -0.557  11.813  18.668  0.00  0.00    +0.000 A 
ATOM     23 CL   UNL     1      -1.846  10.752  18.207  0.00  0.00    +0.000 Cl
BRANCH  20  24
ATOM     24  C   UNL     1      -0.261  15.441  19.442  0.00  0.00    +0.000 C 
ATOM     25  N   UNL     1      -0.493  16.572  19.580  0.00  0.00    +0.000 NA
ENDBRANCH  20  24
ENDBRANCH   4  17
TORSDOF 4
ENDMDL
MODEL 5
REMARK VINA RESULT:      -7.1      1.985      2.355
REMARK  Name = 
REMARK  7 active torsions:
REMARK  status: ('A' for Active; 'I' for Inactive)
REMARK    1  A    between atoms: C_1  and  C_2
REMARK    2  A    between atoms: C_4  and  N_5
REMARK    3  A    between atoms: N_8  and  C_9
REMARK    4  A    between atoms: C_12  and  C_13
REMARK    5  A    between atoms: C_21  and  C_22
REMARK    6  A    between atoms: C_22  and  C_23
REMARK    7  A    between atoms: C_22  and  C_24
REMARK                            x       y       z     vdW  Elec       q    Type
REMARK                         _______ _______ _______ _____ _____    ______ ____
ROOT
ATOM      1  N   UNL     1       2.618   6.927  18.827  0.00  0.00    +0.000 N 
ATOM      2  C   UNL     1       1.745   6.943  20.015  0.00  0.00    +0.000 C 
ATOM      3  C   UNL     1       1.679   8.401  20.552  0.00  0.00    +0.000 C 
ATOM      4  N   UNL     1       1.198   9.270  19.458  0.00  0.00    +0.000 N 
ATOM      5  C   UNL     1       2.073   9.257  18.274  0.00  0.00    +0.000 C 
ATOM      6  C   UNL     1       2.148   7.805  17.736  0.00  0.00    +0.000 C 
ENDROOT
BRANCH   1  10
ATOM      7  C   UNL     1       2.408   2.081  18.786  0.00  0.00    +0.000 C 
ATOM      8  C   UNL     1       3.104   3.366  18.457  0.00  0.00    +0.000 A 
ATOM      9  C   UNL     1       2.634   4.562  18.950  0.00  0.00    +0.000 A 
ATOM     10  C   UNL     1       3.219   5.725  18.482  0.00  0.00    +0.000 A 
ATOM     11  N   UNL     1       4.241   5.690  17.611  0.00  0.00    +0.000 NA
ATOM     12  C   UNL     1       4.678   4.476  17.216  0.00  0.00    +0.000 A 
ATOM     13  N   UNL     1       4.137   3.304  17.601  0.00  0.00    +0.000 NA
BRANCH  12  14
ATOM     14  C   UNL     1       5.840   4.395  16.250  0.00  0.00    +0.000 C 
ATOM     15  C   UNL     1       5.677   5.378  15.093  0.00  0.00    +0.000 C 
ATOM     16  C   UNL     1       7.173   4.600  16.967  0.00  0.00    +0.000 C 
ENDBRANCH  12  14
ENDBRANCH   1  10
BRANCH   4  17
ATOM     17  C   UNL     1       0.374  10.332  19.748  0.00  0.00    +0.000 A 
ATOM     18  N   UNL     1       0.585  10.982  20.919  0.00  0.00    +0.000 NA
ATOM     19  C   UNL     1      -0.263  11.980  21.278  0.00  0.00    +0.000 A 
ATOM     20  C   UNL     1      -1.350  12.386  20.506  0.00  0.00    +0.000 A 
ATOM     21  C   UNL     1      -1.574  11.715  19.314  0.00  0.00    +0.000 A 
ATOM     22  C   UNL     1      -0.718  10.680  18.929  0.00  0.00    +0.000 A 
ATOM     23 CL   UNL     1      -1.187   9.795  17.516  0.00  0.00    +0.000 Cl
BRANCH  20  24
ATOM     24  C   UNL     1      -2.213  13.420  20.955  0.00  0.00    +0.000 C 
ATOM     25  N   UNL     1      -2.906  14.275  21.331  0.00  0.00    +0.000 NA
ENDBRANCH  20  24
ENDBRANCH   4  17
TORSDOF 4
ENDMDL
MODEL 6
REMARK VINA RESULT:      -7.1      2.034      3.169
REMARK  Name = 
REMARK  7 active torsions:
REMARK  status: ('A' for Active; 'I' for Inactive)
REMARK    1  A    between atoms: C_1  and  C_2
REMARK    2  A    between atoms: C_4  and  N_5
REMARK    3  A    between atoms: N_8  and  C_9
REMARK    4  A    between atoms: C_12  and  C_13
REMARK    5  A    between atoms: C_21  and  C_22
REMARK    6  A    between atoms: C_22  and  C_23
REMARK    7  A    between atoms: C_22  and  C_24
REMARK                            x       y       z     vdW  Elec       q    Type
REMARK                         _______ _______ _______ _____ _____    ______ ____
ROOT
ATOM      1  N   UNL     1       2.636   7.382  18.822  0.00  0.00    +0.000 N 
ATOM      2  C   UNL     1       1.718   7.292  19.972  0.00  0.00    +0.000 C 
ATOM      3  C   UNL     1       1.440   8.732  20.488  0.00  0.00    +0.000 C 
ATOM      4  N   UNL     1       0.897   9.524  19.365  0.00  0.00    +0.000 N 
ATOM      5  C   UNL     1       1.816   9.617  18.218  0.00  0.00    +0.000 C 
ATOM      6  C   UNL     1       2.102   8.184  17.701  0.00  0.00    +0.000 C 
ENDROOT
BRANCH   1  10
ATOM      7  C   UNL     1       6.630   5.571  16.749  0.00  0.00    +0.000 C 
ATOM      8  C   UNL     1       5.355   5.394  17.514  0.00  0.00    +0.000 A 
ATOM      9  C   UNL     1       4.480   6.445  17.668  0.00  0.00    +0.000 A 
ATOM     10  C   UNL     1       3.402   6.267  18.516  0.00  0.00    +0.000 A 
ATOM     11  N   UNL     1       3.189   5.094  19.136  0.00  0.00    +0.000 NA
ATOM     12  C   UNL     1       4.064   4.096  18.892  0.00  0.00    +0.000 A 
ATOM     13  N   UNL     1       5.153   4.206  18.107  0.00  0.00    +0.000 NA
BRANCH  12  14
ATOM     14  C   UNL     1       3.847   2.753  19.556  0.00  0.00    +0.000 C 
ATOM     15  C   UNL     1       2.853   2.854  20.711  0.00  0.00    +0.000 C 
ATOM     16  C   UNL     1       3.413   1.696  18.543  0.00  0.00    +0.000 C 
ENDBRANCH  12  14
ENDBRANCH   1  10
BRANCH   4  17
ATOM     17  C   UNL     1      -0.070  10.471  19.607  0.00  0.00    +0.000 A 
ATOM     18  N   UNL     1      -0.015  11.127  20.793  0.00  0.00    +0.000 NA
ATOM     19  C   UNL     1      -1.002  12.007  21.102  0.00  0.00    +0.000 A 
ATOM     20  C   UNL     1      -2.081  12.284  20.265  0.00  0.00    +0.000 A 
ATOM     21  C   UNL     1      -2.145  11.606  19.057  0.00  0.00    +0.000 A 
ATOM     22  C   UNL     1      -1.144  10.691  18.722  0.00  0.00    +0.000 A 
ATOM     23 CL   UNL     1      -1.409   9.773  17.278  0.00  0.00    +0.000 Cl
BRANCH  20  24
ATOM     24  C   UNL     1      -3.093  13.197  20.664  0.00  0.00    +0.000 C 
ATOM     25  N   UNL     1      -3.923  13.935  21.006  0.00  0.00    +0.000 NA
ENDBRANCH  20  24
ENDBRANCH   4  17
TORSDOF 4
ENDMDL
MODEL 7
REMARK VINA RESULT:      -6.9      2.344      3.308
REMARK  Name = 
REMARK  7 active torsions:
REMARK  status: ('A' for Active; 'I' for Inactive)
REMARK    1  A    between atoms: C_1  and  C_2
REMARK    2  A    between atoms: C_4  and  N_5
REMARK    3  A    between atoms: N_8  and  C_9
REMARK    4  A    between atoms: C_12  and  C_13
REMARK    5  A    between atoms: C_21  and  C_22
REMARK    6  A    between atoms: C_22  and  C_23
REMARK    7  A    between atoms: C_22  and  C_24
REMARK                            x       y       z     vdW  Elec       q    Type
REMARK                         _______ _______ _______ _____ _____    ______ ____
ROOT
ATOM      1  N   UNL     1       2.278   7.845  18.644  0.00  0.00    +0.000 N 
ATOM      2  C   UNL     1       1.549   7.627  19.907  0.00  0.00    +0.000 C 
ATOM      3  C   UNL     1       1.489   8.977  20.675  0.00  0.00    +0.000 C 
ATOM      4  N   UNL     1       0.850   9.977  19.794  0.00  0.00    +0.000 N 
ATOM      5  C   UNL     1       1.581  10.198  18.535  0.00  0.00    +0.000 C 
ATOM      6  C   UNL     1       1.650   8.854  17.766  0.00  0.00    +0.000 C 
ENDROOT
BRANCH   1  10
ATOM      7  C   UNL     1       6.265   5.894  16.687  0.00  0.00    +0.000 C 
ATOM      8  C   UNL     1       4.829   5.801  17.105  0.00  0.00    +0.000 A 
ATOM      9  C   UNL     1       4.149   6.923  17.523  0.00  0.00    +0.000 A 
ATOM     10  C   UNL     1       2.880   6.748  18.047  0.00  0.00    +0.000 A 
ATOM     11  N   UNL     1       2.313   5.532  18.107  0.00  0.00    +0.000 NA
ATOM     12  C   UNL     1       3.025   4.490  17.629  0.00  0.00    +0.000 A 
ATOM     13  N   UNL     1       4.276   4.578  17.136  0.00  0.00    +0.000 NA
BRANCH  12  14
ATOM     14  C   UNL     1       2.411   3.107  17.662  0.00  0.00    +0.000 C 
ATOM     15  C   UNL     1       3.454   2.039  17.981  0.00  0.00    +0.000 C 
ATOM     16  C   UNL     1       1.237   3.043  18.636  0.00  0.00    +0.000 C 
ENDBRANCH  12  14
ENDBRANCH   1  10
BRANCH   4  17
ATOM     17  C   UNL     1       0.025  10.932  20.339  0.00  0.00    +0.000 A 
ATOM     18  N   UNL     1       0.388  11.461  21.533  0.00  0.00    +0.000 NA
ATOM     19  C   UNL     1      -0.446  12.343  22.141  0.00  0.00    +0.000 A 
ATOM     20  C   UNL     1      -1.667  12.747  21.607  0.00  0.00    +0.000 A 
ATOM     21  C   UNL     1      -2.046  12.199  20.390  0.00  0.00    +0.000 A 
ATOM     22  C   UNL     1      -1.206  11.284  19.751  0.00  0.00    +0.000 A 
ATOM     23 CL   UNL     1      -1.850  10.529  18.331  0.00  0.00    +0.000 Cl
BRANCH  20  24
ATOM     24  C   UNL     1      -2.504  13.654  22.310  0.00  0.00    +0.000 C 
ATOM     25  N   UNL     1      -3.173  14.403  22.895  0.00  0.00    +0.000 NA
ENDBRANCH  20  24
ENDBRANCH   4  17
TORSDOF 4
ENDMDL
MODEL 8
REMARK VINA RESULT:      -6.9      2.631      3.508
REMARK  Name = 
REMARK  7 active torsions:
REMARK  status: ('A' for Active; 'I' for Inactive)
REMARK    1  A    between atoms: C_1  and  C_2
REMARK    2  A    between atoms: C_4  and  N_5
REMARK    3  A    between atoms: N_8  and  C_9
REMARK    4  A    between atoms: C_12  and  C_13
REMARK    5  A    between atoms: C_21  and  C_22
REMARK    6  A    between atoms: C_22  and  C_23
REMARK    7  A    between atoms: C_22  and  C_24
REMARK                            x       y       z     vdW  Elec       q    Type
REMARK                         _______ _______ _______ _____ _____    ______ ____
ROOT
ATOM      1  N   UNL     1       1.663   8.299  19.913  0.00  0.00    +0.000 N 
ATOM      2  C   UNL     1       0.844   8.167  21.132  0.00  0.00    +0.000 C 
ATOM      3  C   UNL     1       0.793   9.552  21.837  0.00  0.00    +0.000 C 
ATOM      4  N   UNL     1       0.257  10.536  20.874  0.00  0.00    +0.000 N 
ATOM      5  C   UNL     1       1.079  10.671  19.659  0.00  0.00    +0.000 C 
ATOM      6  C   UNL     1       1.139   9.292  18.953  0.00  0.00    +0.000 C 
ENDROOT
BRANCH   1  10
ATOM      7  C   UNL     1       4.737   6.317  16.727  0.00  0.00    +0.000 C 
ATOM      8  C   UNL     1       3.762   6.196  17.857  0.00  0.00    +0.000 A 
ATOM      9  C   UNL     1       3.016   7.282  18.257  0.00  0.00    +0.000 A 
ATOM     10  C   UNL     1       2.255   7.152  19.405  0.00  0.00    +0.000 A 
ATOM     11  N   UNL     1       2.208   5.993  20.083  0.00  0.00    +0.000 NA
ATOM     12  C   UNL     1       2.926   4.960  19.596  0.00  0.00    +0.000 A 
ATOM     13  N   UNL     1       3.716   5.021  18.506  0.00  0.00    +0.000 NA
BRANCH  12  14
ATOM     14  C   UNL     1       2.883   3.632  20.321  0.00  0.00    +0.000 C 
ATOM     15  C   UNL     1       1.454   3.242  20.690  0.00  0.00    +0.000 C 
ATOM     16  C   UNL     1       3.564   2.533  19.508  0.00  0.00    +0.000 C 
ENDBRANCH  12  14
ENDBRANCH   1  10
BRANCH   4  17
ATOM     17  C   UNL     1      -0.560  11.548  21.321  0.00  0.00    +0.000 A 
ATOM     18  N   UNL     1      -0.372  11.984  22.591  0.00  0.00    +0.000 NA
ATOM     19  C   UNL     1      -1.216  12.922  23.094  0.00  0.00    +0.000 A 
ATOM     20  C   UNL     1      -2.275  13.473  22.377  0.00  0.00    +0.000 A 
ATOM     21  C   UNL     1      -2.475  13.020  21.082  0.00  0.00    +0.000 A 
ATOM     22  C   UNL     1      -1.624  12.051  20.547  0.00  0.00    +0.000 A 
ATOM     23 CL   UNL     1      -2.066  11.430  18.992  0.00  0.00    +0.000 Cl
BRANCH  20  24
ATOM     24  C   UNL     1      -3.136  14.431  22.975  0.00  0.00    +0.000 C 
ATOM     25  N   UNL     1      -3.851  15.201  23.472  0.00  0.00    +0.000 NA
ENDBRANCH  20  24
ENDBRANCH   4  17
TORSDOF 4
ENDMDL
MODEL 9
REMARK VINA RESULT:      -6.8      0.778      1.037
REMARK  Name = 
REMARK  7 active torsions:
REMARK  status: ('A' for Active; 'I' for Inactive)
REMARK    1  A    between atoms: C_1  and  C_2
REMARK    2  A    between atoms: C_4  and  N_5
REMARK    3  A    between atoms: N_8  and  C_9
REMARK    4  A    between atoms: C_12  and  C_13
REMARK    5  A    between atoms: C_21  and  C_22
REMARK    6  A    between atoms: C_22  and  C_23
REMARK    7  A    between atoms: C_22  and  C_24
REMARK                            x       y       z     vdW  Elec       q    Type
REMARK                         _______ _______ _______ _____ _____    ______ ____
ROOT
ATOM      1  N   UNL     1       1.847   7.548  19.245  0.00  0.00    +0.000 N 
ATOM      2  C   UNL     1       2.368   8.370  18.138  0.00  0.00    +0.000 C 
ATOM      3  C   UNL     1       1.349   9.511  17.857  0.00  0.00    +0.000 C 
ATOM      4  N   UNL     1       1.154  10.269  19.110  0.00  0.00    +0.000 N 
ATOM      5  C   UNL     1       0.630   9.447  20.214  0.00  0.00    +0.000 C 
ATOM      6  C   UNL     1       1.638   8.304  20.496  0.00  0.00    +0.000 C 
ENDROOT
BRANCH   1  10
ATOM      7  C   UNL     1       2.028   3.440  21.818  0.00  0.00    +0.000 C 
ATOM      8  C   UNL     1       2.369   4.238  20.598  0.00  0.00    +0.000 A 
ATOM      9  C   UNL     1       2.107   5.589  20.550  0.00  0.00    +0.000 A 
ATOM     10  C   UNL     1       2.295   6.238  19.343  0.00  0.00    +0.000 A 
ATOM     11  N   UNL     1       2.757   5.585  18.264  0.00  0.00    +0.000 NA
ATOM     12  C   UNL     1       3.040   4.273  18.408  0.00  0.00    +0.000 A 
ATOM     13  N   UNL     1       2.851   3.567  19.539  0.00  0.00    +0.000 NA
BRANCH  12  14
ATOM     14  C   UNL     1       3.582   3.507  17.220  0.00  0.00    +0.000 C 
ATOM     15  C   UNL     1       4.917   4.078  16.748  0.00  0.00    +0.000 C 
ATOM     16  C   UNL     1       3.696   2.015  17.527  0.00  0.00    +0.000 C 
ENDBRANCH  12  14
ENDBRANCH   1  10
BRANCH   4  17
ATOM     17  C   UNL     1       0.968  11.630  19.058  0.00  0.00    +0.000 A 
ATOM     18  N   UNL     1       1.972  12.414  19.521  0.00  0.00    +0.000 NA
ATOM     19  C   UNL     1       1.789  13.759  19.563  0.00  0.00    +0.000 A 
ATOM     20  C   UNL     1       0.618  14.393  19.153  0.00  0.00    +0.000 A 
ATOM     21  C   UNL     1      -0.415  13.592  18.690  0.00  0.00    +0.000 A 
ATOM     22  C   UNL     1      -0.250  12.206  18.644  0.00  0.00    +0.000 A 
ATOM     23 CL   UNL     1      -1.656  11.289  18.217  0.00  0.00    +0.000 Cl
BRANCH  20  24
ATOM     24  C   UNL     1       0.483  15.803  19.251  0.00  0.00    +0.000 C 
ATOM     25  N   UNL     1       0.388  16.960  19.320  0.00  0.00    +0.000 NA
ENDBRANCH  20  24
ENDBRANCH   4  17
TORSDOF 4
ENDMDL
