MODEL 1
REMARK VINA RESULT:      -7.5      0.000      0.000
REMARK  Name = 
REMARK  5 active torsions:
REMARK  status: ('A' for Active; 'I' for Inactive)
REMARK    1  A    between atoms: C_1  and  C_2
REMARK    2  A    between atoms: C_2  and  C_3
REMARK    3  A    between atoms: C_8  and  C_10
REMARK    4  A    between atoms: C_15  and  C_16
REMARK    5  A    between atoms: C_19  and  C_20
REMARK                            x       y       z     vdW  Elec       q    Type
REMARK                         _______ _______ _______ _____ _____    ______ ____
ROOT
ATOM      1  C   UNL     1       4.182   6.276  17.302  0.00  0.00    +0.000 A 
ATOM      2  C   UNL     1       5.384   6.794  16.782  0.00  0.00    +0.000 A 
ATOM      3  C   UNL     1       6.396   5.941  16.340  0.00  0.00    +0.000 A 
ATOM      4  C   UNL     1       6.238   4.564  16.445  0.00  0.00    +0.000 A 
ATOM      5  C   UNL     1       5.066   4.040  16.987  0.00  0.00    +0.000 A 
ATOM      6  C   UNL     1       4.014   4.879  17.408  0.00  0.00    +0.000 A 
ENDROOT
BRANCH   1  12
ATOM      7  C   UNL     1       0.445   8.856  21.407  0.00  0.00    +0.000 A 
ATOM      8  C   UNL     1       0.765   9.682  20.346  0.00  0.00    +0.000 A 
ATOM      9  N   UNL     1       1.594   9.134  19.392  0.00  0.00    +0.000 NA
ATOM     10  C   UNL     1       1.919   7.919  19.746  0.00  0.00    +0.000 A 
ATOM     11  N   UNL     1       2.740   7.028  19.111  0.00  0.00    +0.000 N 
ATOM     12  C   UNL     1       3.141   7.224  17.805  0.00  0.00    +0.000 C 
ATOM     13  O   UNL     1       2.688   8.056  17.028  0.00  0.00    +0.000 OA
ATOM     14  S   UNL     1       1.275   7.362  21.227  0.00  0.00    +0.000 S 
ATOM     15  H   UNL     1       3.028   6.230  19.652  0.00  0.00    +0.000 HD
BRANCH   7  17
ATOM     16  C   UNL     1      -0.731  10.622  22.716  0.00  0.00    +0.000 C 
ATOM     17  C   UNL     1      -0.455   9.135  22.565  0.00  0.00    +0.000 C 
ENDBRANCH   7  17
ENDBRANCH   1  12
BRANCH   6  18
ATOM     18  C   UNL     1       2.804   4.230  17.898  0.00  0.00    +0.000 A 
ATOM     19  N   UNL     1       1.696   3.911  17.255  0.00  0.00    +0.000 NA
ATOM     20  N   UNL     1       0.823   3.412  18.203  0.00  0.00    +0.000 NA
ATOM     21  C   UNL     1       1.452   3.497  19.355  0.00  0.00    +0.000 A 
ATOM     22  C   UNL     1       1.016   3.107  20.706  0.00  0.00    +0.000 C 
ATOM     23  O   UNL     1       2.694   4.057  19.250  0.00  0.00    +0.000 OA
ENDBRANCH   6  18
TORSDOF 3
ENDMDL
MODEL 2
REMARK VINA RESULT:      -7.5      2.725      4.688
REMARK  Name = 
REMARK  5 active torsions:
REMARK  status: ('A' for Active; 'I' for Inactive)
REMARK    1  A    between atoms: C_1  and  C_2
REMARK    2  A    between atoms: C_2  and  C_3
REMARK    3  A    between atoms: C_8  and  C_10
REMARK    4  A    between atoms: C_15  and  C_16
REMARK    5  A    between atoms: C_19  and  C_20
REMARK                            x       y       z     vdW  Elec       q    Type
REMARK                         _______ _______ _______ _____ _____    ______ ____
ROOT
ATOM      1  C   UNL     1       5.222   5.326  16.902  0.00  0.00    +0.000 A 
ATOM      2  C   UNL     1       4.555   4.393  16.087  0.00  0.00    +0.000 A 
ATOM      3  C   UNL     1       5.209   3.787  15.012  0.00  0.00    +0.000 A 
ATOM      4  C   UNL     1       6.522   4.134  14.716  0.00  0.00    +0.000 A 
ATOM      5  C   UNL     1       7.183   5.080  15.498  0.00  0.00    +0.000 A 
ATOM      6  C   UNL     1       6.557   5.679  16.609  0.00  0.00    +0.000 A 
ENDROOT
BRANCH   1  12
ATOM      7  C   UNL     1       1.174   9.131  19.473  0.00  0.00    +0.000 A 
ATOM      8  C   UNL     1       1.481   8.032  20.253  0.00  0.00    +0.000 A 
ATOM      9  N   UNL     1       2.400   7.157  19.716  0.00  0.00    +0.000 NA
ATOM     10  C   UNL     1       2.757   7.576  18.532  0.00  0.00    +0.000 A 
ATOM     11  N   UNL     1       3.621   7.002  17.639  0.00  0.00    +0.000 N 
ATOM     12  C   UNL     1       4.472   5.983  18.016  0.00  0.00    +0.000 C 
ATOM     13  O   UNL     1       4.695   5.617  19.164  0.00  0.00    +0.000 OA
ATOM     14  S   UNL     1       2.021   9.018  17.982  0.00  0.00    +0.000 S 
ATOM     15  H   UNL     1       3.597   7.369  16.702  0.00  0.00    +0.000 HD
BRANCH   7  17
ATOM     16  C   UNL     1      -0.863  10.386  18.771  0.00  0.00    +0.000 C 
ATOM     17  C   UNL     1       0.261  10.270  19.788  0.00  0.00    +0.000 C 
ENDBRANCH   7  17
ENDBRANCH   1  12
BRANCH   6  18
ATOM     18  C   UNL     1       7.356   6.605  17.401  0.00  0.00    +0.000 A 
ATOM     19  N   UNL     1       7.979   6.417  18.550  0.00  0.00    +0.000 NA
ATOM     20  N   UNL     1       8.500   7.643  18.918  0.00  0.00    +0.000 NA
ATOM     21  C   UNL     1       8.127   8.491  17.985  0.00  0.00    +0.000 A 
ATOM     22  C   UNL     1       8.397   9.931  17.848  0.00  0.00    +0.000 C 
ATOM     23  O   UNL     1       7.351   7.917  17.017  0.00  0.00    +0.000 OA
ENDBRANCH   6  18
TORSDOF 3
ENDMDL
MODEL 3
REMARK VINA RESULT:      -7.5      3.052      7.087
REMARK  Name = 
REMARK  5 active torsions:
REMARK  status: ('A' for Active; 'I' for Inactive)
REMARK    1  A    between atoms: C_1  and  C_2
REMARK    2  A    between atoms: C_2  and  C_3
REMARK    3  A    between atoms: C_8  and  C_10
REMARK    4  A    between atoms: C_15  and  C_16
REMARK    5  A    between atoms: C_19  and  C_20
REMARK                            x       y       z     vdW  Elec       q    Type
REMARK                         _______ _______ _______ _____ _____    ______ ____
ROOT
ATOM      1  C   UNL     1       3.747   3.959  19.548  0.00  0.00    +0.000 A 
ATOM      2  C   UNL     1       3.631   2.778  20.305  0.00  0.00    +0.000 A 
ATOM      3  C   UNL     1       2.565   2.598  21.188  0.00  0.00    +0.000 A 
ATOM      4  C   UNL     1       1.624   3.607  21.353  0.00  0.00    +0.000 A 
ATOM      5  C   UNL     1       1.745   4.794  20.632  0.00  0.00    +0.000 A 
ATOM      6  C   UNL     1       2.792   4.986  19.709  0.00  0.00    +0.000 A 
ENDROOT
BRANCH   1  12
ATOM      7  C   UNL     1       6.717   4.518  14.224  0.00  0.00    +0.000 A 
ATOM      8  C   UNL     1       7.385   5.075  15.298  0.00  0.00    +0.000 A 
ATOM      9  N   UNL     1       6.757   4.958  16.518  0.00  0.00    +0.000 NA
ATOM     10  C   UNL     1       5.613   4.347  16.360  0.00  0.00    +0.000 A 
ATOM     11  N   UNL     1       4.659   4.049  17.295  0.00  0.00    +0.000 N 
ATOM     12  C   UNL     1       4.927   4.130  18.647  0.00  0.00    +0.000 C 
ATOM     13  O   UNL     1       6.032   4.276  19.155  0.00  0.00    +0.000 OA
ATOM     14  S   UNL     1       5.212   3.888  14.763  0.00  0.00    +0.000 S 
ATOM     15  H   UNL     1       3.762   3.768  16.936  0.00  0.00    +0.000 HD
BRANCH   7  17
ATOM     16  C   UNL     1       6.433   3.323  12.054  0.00  0.00    +0.000 C 
ATOM     17  C   UNL     1       7.149   4.439  12.797  0.00  0.00    +0.000 C 
ENDBRANCH   7  17
ENDBRANCH   1  12
BRANCH   6  18
ATOM     18  C   UNL     1       2.792   6.234  18.956  0.00  0.00    +0.000 A 
ATOM     19  N   UNL     1       3.618   6.657  18.017  0.00  0.00    +0.000 NA
ATOM     20  N   UNL     1       3.234   7.948  17.709  0.00  0.00    +0.000 NA
ATOM     21  C   UNL     1       2.225   8.226  18.506  0.00  0.00    +0.000 A 
ATOM     22  C   UNL     1       1.414   9.449  18.618  0.00  0.00    +0.000 C 
ATOM     23  O   UNL     1       1.922   7.207  19.365  0.00  0.00    +0.000 OA
ENDBRANCH   6  18
TORSDOF 3
ENDMDL
MODEL 4
REMARK VINA RESULT:      -7.4      1.955      2.114
REMARK  Name = 
REMARK  5 active torsions:
REMARK  status: ('A' for Active; 'I' for Inactive)
REMARK    1  A    between atoms: C_1  and  C_2
REMARK    2  A    between atoms: C_2  and  C_3
REMARK    3  A    between atoms: C_8  and  C_10
REMARK    4  A    between atoms: C_15  and  C_16
REMARK    5  A    between atoms: C_19  and  C_20
REMARK                            x       y       z     vdW  Elec       q    Type
REMARK                         _______ _______ _______ _____ _____    ______ ____
ROOT
ATOM      1  C   UNL     1       4.519   5.620  17.021  0.00  0.00    +0.000 A 
ATOM      2  C   UNL     1       5.250   6.331  16.050  0.00  0.00    +0.000 A 
ATOM      3  C   UNL     1       5.880   5.661  15.000  0.00  0.00    +0.000 A 
ATOM      4  C   UNL     1       5.820   4.274  14.927  0.00  0.00    +0.000 A 
ATOM      5  C   UNL     1       5.125   3.558  15.899  0.00  0.00    +0.000 A 
ATOM      6  C   UNL     1       4.451   4.212  16.950  0.00  0.00    +0.000 A 
ENDROOT
BRANCH   1  12
ATOM      7  C   UNL     1       0.768   9.646  19.704  0.00  0.00    +0.000 A 
ATOM      8  C   UNL     1       1.166   8.615  20.533  0.00  0.00    +0.000 A 
ATOM      9  N   UNL     1       2.022   7.694  19.972  0.00  0.00    +0.000 NA
ATOM     10  C   UNL     1       2.242   8.011  18.724  0.00  0.00    +0.000 A 
ATOM     11  N   UNL     1       3.003   7.360  17.791  0.00  0.00    +0.000 N 
ATOM     12  C   UNL     1       3.896   6.371  18.153  0.00  0.00    +0.000 C 
ATOM     13  O   UNL     1       4.248   6.101  19.296  0.00  0.00    +0.000 OA
ATOM     14  S   UNL     1       1.443   9.405  18.142  0.00  0.00    +0.000 S 
ATOM     15  H   UNL     1       2.872   7.648  16.835  0.00  0.00    +0.000 HD
BRANCH   7  17
ATOM     16  C   UNL     1      -1.204  10.992  18.984  0.00  0.00    +0.000 C 
ATOM     17  C   UNL     1      -0.109  10.812  20.023  0.00  0.00    +0.000 C 
ENDBRANCH   7  17
ENDBRANCH   1  12
BRANCH   6  18
ATOM     18  C   UNL     1       3.698   3.377  17.877  0.00  0.00    +0.000 A 
ATOM     19  N   UNL     1       4.126   2.496  18.762  0.00  0.00    +0.000 NA
ATOM     20  N   UNL     1       3.001   1.908  19.306  0.00  0.00    +0.000 NA
ATOM     21  C   UNL     1       1.974   2.449  18.687  0.00  0.00    +0.000 A 
ATOM     22  C   UNL     1       0.531   2.215  18.860  0.00  0.00    +0.000 C 
ATOM     23  O   UNL     1       2.339   3.351  17.727  0.00  0.00    +0.000 OA
ENDBRANCH   6  18
TORSDOF 3
ENDMDL
MODEL 5
REMARK VINA RESULT:      -7.4      2.121      3.812
REMARK  Name = 
REMARK  5 active torsions:
REMARK  status: ('A' for Active; 'I' for Inactive)
REMARK    1  A    between atoms: C_1  and  C_2
REMARK    2  A    between atoms: C_2  and  C_3
REMARK    3  A    between atoms: C_8  and  C_10
REMARK    4  A    between atoms: C_15  and  C_16
REMARK    5  A    between atoms: C_19  and  C_20
REMARK                            x       y       z     vdW  Elec       q    Type
REMARK                         _______ _______ _______ _____ _____    ______ ____
ROOT
ATOM      1  C   UNL     1       3.057   4.982  19.593  0.00  0.00    +0.000 A 
ATOM      2  C   UNL     1       2.482   4.053  20.481  0.00  0.00    +0.000 A 
ATOM      3  C   UNL     1       3.088   2.817  20.712  0.00  0.00    +0.000 A 
ATOM      4  C   UNL     1       4.252   2.478  20.033  0.00  0.00    +0.000 A 
ATOM      5  C   UNL     1       4.814   3.377  19.128  0.00  0.00    +0.000 A 
ATOM      6  C   UNL     1       4.241   4.645  18.903  0.00  0.00    +0.000 A 
ENDROOT
BRANCH   1  12
ATOM      7  C   UNL     1       0.506  10.360  21.021  0.00  0.00    +0.000 A 
ATOM      8  C   UNL     1       0.945  10.280  19.713  0.00  0.00    +0.000 A 
ATOM      9  N   UNL     1       1.513   9.079  19.347  0.00  0.00    +0.000 NA
ATOM     10  C   UNL     1       1.531   8.276  20.376  0.00  0.00    +0.000 A 
ATOM     11  N   UNL     1       2.027   7.004  20.468  0.00  0.00    +0.000 N 
ATOM     12  C   UNL     1       2.353   6.276  19.342  0.00  0.00    +0.000 C 
ATOM     13  O   UNL     1       2.074   6.573  18.186  0.00  0.00    +0.000 OA
ATOM     14  S   UNL     1       0.890   8.896  21.834  0.00  0.00    +0.000 S 
ATOM     15  H   UNL     1       2.137   6.639  21.400  0.00  0.00    +0.000 HD
BRANCH   7  17
ATOM     16  C   UNL     1      -0.984  11.023  22.907  0.00  0.00    +0.000 C 
ATOM     17  C   UNL     1      -0.185  11.494  21.703  0.00  0.00    +0.000 C 
ENDBRANCH   7  17
ENDBRANCH   1  12
BRANCH   6  18
ATOM     18  C   UNL     1       4.942   5.536  17.988  0.00  0.00    +0.000 A 
ATOM     19  N   UNL     1       4.777   5.718  16.690  0.00  0.00    +0.000 NA
ATOM     20  N   UNL     1       5.765   6.597  16.289  0.00  0.00    +0.000 NA
ATOM     21  C   UNL     1       6.478   6.857  17.364  0.00  0.00    +0.000 A 
ATOM     22  C   UNL     1       7.649   7.732  17.537  0.00  0.00    +0.000 C 
ATOM     23  O   UNL     1       6.050   6.178  18.470  0.00  0.00    +0.000 OA
ENDBRANCH   6  18
TORSDOF 3
ENDMDL
MODEL 6
REMARK VINA RESULT:      -7.3      1.575      1.842
REMARK  Name = 
REMARK  5 active torsions:
REMARK  status: ('A' for Active; 'I' for Inactive)
REMARK    1  A    between atoms: C_1  and  C_2
REMARK    2  A    between atoms: C_2  and  C_3
REMARK    3  A    between atoms: C_8  and  C_10
REMARK    4  A    between atoms: C_15  and  C_16
REMARK    5  A    between atoms: C_19  and  C_20
REMARK                            x       y       z     vdW  Elec       q    Type
REMARK                         _______ _______ _______ _____ _____    ______ ____
ROOT
ATOM      1  C   UNL     1       3.982   5.765  17.521  0.00  0.00    +0.000 A 
ATOM      2  C   UNL     1       4.988   6.314  16.704  0.00  0.00    +0.000 A 
ATOM      3  C   UNL     1       5.640   5.531  15.750  0.00  0.00    +0.000 A 
ATOM      4  C   UNL     1       5.323   4.183  15.627  0.00  0.00    +0.000 A 
ATOM      5  C   UNL     1       4.350   3.621  16.452  0.00  0.00    +0.000 A 
ATOM      6  C   UNL     1       3.653   4.399  17.398  0.00  0.00    +0.000 A 
ENDROOT
BRANCH   1  12
ATOM      7  C   UNL     1       0.463  10.287  19.676  0.00  0.00    +0.000 A 
ATOM      8  C   UNL     1       0.660   9.256  20.575  0.00  0.00    +0.000 A 
ATOM      9  N   UNL     1       1.459   8.224  20.134  0.00  0.00    +0.000 NA
ATOM     10  C   UNL     1       1.833   8.461  18.905  0.00  0.00    +0.000 A 
ATOM     11  N   UNL     1       2.604   7.691  18.076  0.00  0.00    +0.000 N 
ATOM     12  C   UNL     1       3.340   6.628  18.559  0.00  0.00    +0.000 C 
ATOM     13  O   UNL     1       3.547   6.372  19.740  0.00  0.00    +0.000 OA
ATOM     14  S   UNL     1       1.255   9.906  18.200  0.00  0.00    +0.000 S 
ATOM     15  H   UNL     1       2.599   7.949  17.103  0.00  0.00    +0.000 HD
BRANCH   7  17
ATOM     16  C   UNL     1      -1.496  11.635  18.926  0.00  0.00    +0.000 C 
ATOM     17  C   UNL     1      -0.304  11.554  19.866  0.00  0.00    +0.000 C 
ENDBRANCH   7  17
ENDBRANCH   1  12
BRANCH   6  18
ATOM     18  C   UNL     1       2.609   3.731  18.165  0.00  0.00    +0.000 A 
ATOM     19  N   UNL     1       1.368   3.433  17.825  0.00  0.00    +0.000 NA
ATOM     20  N   UNL     1       0.771   2.900  18.951  0.00  0.00    +0.000 NA
ATOM     21  C   UNL     1       1.680   2.944  19.899  0.00  0.00    +0.000 A 
ATOM     22  C   UNL     1       1.610   2.506  21.303  0.00  0.00    +0.000 C 
ATOM     23  O   UNL     1       2.856   3.510  19.491  0.00  0.00    +0.000 OA
ENDBRANCH   6  18
TORSDOF 3
ENDMDL
MODEL 7
REMARK VINA RESULT:      -7.3      2.707      4.749
REMARK  Name = 
REMARK  5 active torsions:
REMARK  status: ('A' for Active; 'I' for Inactive)
REMARK    1  A    between atoms: C_1  and  C_2
REMARK    2  A    between atoms: C_2  and  C_3
REMARK    3  A    between atoms: C_8  and  C_10
REMARK    4  A    between atoms: C_15  and  C_16
REMARK    5  A    between atoms: C_19  and  C_20
REMARK                            x       y       z     vdW  Elec       q    Type
REMARK                         _______ _______ _______ _____ _____    ______ ____
ROOT
ATOM      1  C   UNL     1       5.425   4.600  16.282  0.00  0.00    +0.000 A 
ATOM      2  C   UNL     1       4.871   3.823  15.248  0.00  0.00    +0.000 A 
ATOM      3  C   UNL     1       5.495   3.742  14.002  0.00  0.00    +0.000 A 
ATOM      4  C   UNL     1       6.658   4.465  13.762  0.00  0.00    +0.000 A 
ATOM      5  C   UNL     1       7.199   5.263  14.768  0.00  0.00    +0.000 A 
ATOM      6  C   UNL     1       6.608   5.334  16.045  0.00  0.00    +0.000 A 
ENDROOT
BRANCH   1  12
ATOM      7  C   UNL     1       1.616   6.990  20.436  0.00  0.00    +0.000 A 
ATOM      8  C   UNL     1       1.823   5.632  20.584  0.00  0.00    +0.000 A 
ATOM      9  N   UNL     1       2.686   5.057  19.677  0.00  0.00    +0.000 NA
ATOM     10  C   UNL     1       3.100   5.967  18.836  0.00  0.00    +0.000 A 
ATOM     11  N   UNL     1       3.938   5.830  17.763  0.00  0.00    +0.000 N 
ATOM     12  C   UNL     1       4.702   4.694  17.587  0.00  0.00    +0.000 C 
ATOM     13  O   UNL     1       4.871   3.804  18.412  0.00  0.00    +0.000 OA
ATOM     14  S   UNL     1       2.485   7.546  19.062  0.00  0.00    +0.000 S 
ATOM     15  H   UNL     1       3.962   6.604  17.120  0.00  0.00    +0.000 HD
BRANCH   7  17
ATOM     16  C   UNL     1       0.857   9.339  20.786  0.00  0.00    +0.000 C 
ATOM     17  C   UNL     1       0.784   7.902  21.276  0.00  0.00    +0.000 C 
ENDBRANCH   7  17
ENDBRANCH   1  12
BRANCH   6  18
ATOM     18  C   UNL     1       7.288   6.144  17.048  0.00  0.00    +0.000 A 
ATOM     19  N   UNL     1       7.712   5.817  18.255  0.00  0.00    +0.000 NA
ATOM     20  N   UNL     1       8.194   6.978  18.828  0.00  0.00    +0.000 NA
ATOM     21  C   UNL     1       7.996   7.930  17.942  0.00  0.00    +0.000 A 
ATOM     22  C   UNL     1       8.318   9.365  18.003  0.00  0.00    +0.000 C 
ATOM     23  O   UNL     1       7.375   7.487  16.808  0.00  0.00    +0.000 OA
ENDBRANCH   6  18
TORSDOF 3
ENDMDL
MODEL 8
REMARK VINA RESULT:      -7.2      2.527      4.335
REMARK  Name = 
REMARK  5 active torsions:
REMARK  status: ('A' for Active; 'I' for Inactive)
REMARK    1  A    between atoms: C_1  and  C_2
REMARK    2  A    between atoms: C_2  and  C_3
REMARK    3  A    between atoms: C_8  and  C_10
REMARK    4  A    between atoms: C_15  and  C_16
REMARK    5  A    between atoms: C_19  and  C_20
REMARK                            x       y       z     vdW  Elec       q    Type
REMARK                         _______ _______ _______ _____ _____    ______ ____
ROOT
ATOM      1  C   UNL     1       2.443   4.770  19.901  0.00  0.00    +0.000 A 
ATOM      2  C   UNL     1       1.397   4.307  20.722  0.00  0.00    +0.000 A 
ATOM      3  C   UNL     1       1.535   3.129  21.457  0.00  0.00    +0.000 A 
ATOM      4  C   UNL     1       2.702   2.379  21.353  0.00  0.00    +0.000 A 
ATOM      5  C   UNL     1       3.731   2.812  20.519  0.00  0.00    +0.000 A 
ATOM      6  C   UNL     1       3.631   4.016  19.794  0.00  0.00    +0.000 A 
ENDROOT
BRANCH   1  12
ATOM      7  C   UNL     1       1.273  10.699  18.923  0.00  0.00    +0.000 A 
ATOM      8  C   UNL     1       2.001  10.099  17.913  0.00  0.00    +0.000 A 
ATOM      9  N   UNL     1       2.274   8.760  18.088  0.00  0.00    +0.000 NA
ATOM     10  C   UNL     1       1.784   8.364  19.232  0.00  0.00    +0.000 A 
ATOM     11  N   UNL     1       1.848   7.127  19.814  0.00  0.00    +0.000 N 
ATOM     12  C   UNL     1       2.238   6.014  19.097  0.00  0.00    +0.000 C 
ATOM     13  O   UNL     1       2.375   5.951  17.881  0.00  0.00    +0.000 OA
ATOM     14  S   UNL     1       0.985   9.550  20.167  0.00  0.00    +0.000 S 
ATOM     15  H   UNL     1       1.594   7.084  20.787  0.00  0.00    +0.000 HD
BRANCH   7  17
ATOM     16  C   UNL     1       1.770  13.083  18.386  0.00  0.00    +0.000 C 
ATOM     17  C   UNL     1       0.784  12.107  19.008  0.00  0.00    +0.000 C 
ENDBRANCH   7  17
ENDBRANCH   1  12
BRANCH   6  18
ATOM     18  C   UNL     1       4.790   4.413  19.004  0.00  0.00    +0.000 A 
ATOM     19  N   UNL     1       5.169   4.021  17.802  0.00  0.00    +0.000 NA
ATOM     20  N   UNL     1       6.389   4.622  17.560  0.00  0.00    +0.000 NA
ATOM     21  C   UNL     1       6.676   5.308  18.645  0.00  0.00    +0.000 A 
ATOM     22  C   UNL     1       7.843   6.151  18.954  0.00  0.00    +0.000 C 
ATOM     23  O   UNL     1       5.735   5.180  19.627  0.00  0.00    +0.000 OA
ENDBRANCH   6  18
TORSDOF 3
ENDMDL
MODEL 9
REMARK VINA RESULT:      -7.2      2.315      4.176
REMARK  Name = 
REMARK  5 active torsions:
REMARK  status: ('A' for Active; 'I' for Inactive)
REMARK    1  A    between atoms: C_1  and  C_2
REMARK    2  A    between atoms: C_2  and  C_3
REMARK    3  A    between atoms: C_8  and  C_10
REMARK    4  A    between atoms: C_15  and  C_16
REMARK    5  A    between atoms: C_19  and  C_20
REMARK                            x       y       z     vdW  Elec       q    Type
REMARK                         _______ _______ _______ _____ _____    ______ ____
ROOT
ATOM      1  C   UNL     1       2.343   4.722  18.926  0.00  0.00    +0.000 A 
ATOM      2  C   UNL     1       1.349   3.741  19.099  0.00  0.00    +0.000 A 
ATOM      3  C   UNL     1       1.471   2.487  18.497  0.00  0.00    +0.000 A 
ATOM      4  C   UNL     1       2.565   2.212  17.685  0.00  0.00    +0.000 A 
ATOM      5  C   UNL     1       3.540   3.187  17.481  0.00  0.00    +0.000 A 
ATOM      6  C   UNL     1       3.459   4.447  18.106  0.00  0.00    +0.000 A 
ENDROOT
BRANCH   1  12
ATOM      7  C   UNL     1       1.300  10.752  19.084  0.00  0.00    +0.000 A 
ATOM      8  C   UNL     1       0.965  10.097  20.254  0.00  0.00    +0.000 A 
ATOM      9  N   UNL     1       1.198   8.739  20.265  0.00  0.00    +0.000 NA
ATOM     10  C   UNL     1       1.673   8.371  19.105  0.00  0.00    +0.000 A 
ATOM     11  N   UNL     1       2.015   7.119  18.672  0.00  0.00    +0.000 N 
ATOM     12  C   UNL     1       2.153   6.066  19.553  0.00  0.00    +0.000 C 
ATOM     13  O   UNL     1       2.183   6.148  20.775  0.00  0.00    +0.000 OA
ATOM     14  S   UNL     1       1.861   9.604  17.936  0.00  0.00    +0.000 S 
ATOM     15  H   UNL     1       2.158   7.019  17.680  0.00  0.00    +0.000 HD
BRANCH   7  17
ATOM     16  C   UNL     1       2.513  12.742  18.199  0.00  0.00    +0.000 C 
ATOM     17  C   UNL     1       1.212  12.211  18.777  0.00  0.00    +0.000 C 
ENDBRANCH   7  17
ENDBRANCH   1  12
BRANCH   6  18
ATOM     18  C   UNL     1       4.563   5.372  17.881  0.00  0.00    +0.000 A 
ATOM     19  N   UNL     1       4.696   6.329  16.981  0.00  0.00    +0.000 NA
ATOM     20  N   UNL     1       5.972   6.835  17.134  0.00  0.00    +0.000 NA
ATOM     21  C   UNL     1       6.531   6.128  18.092  0.00  0.00    +0.000 A 
ATOM     22  C   UNL     1       7.875   6.226  18.683  0.00  0.00    +0.000 C 
ATOM     23  O   UNL     1       5.717   5.143  18.578  0.00  0.00    +0.000 OA
ENDBRANCH   6  18
TORSDOF 3
ENDMDL
