MODEL 1
REMARK VINA RESULT:      -8.9      0.000      0.000
REMARK  Name = 
REMARK  9 active torsions:
REMARK  status: ('A' for Active; 'I' for Inactive)
REMARK    1  A    between atoms: C_1  and  C_2
REMARK    2  A    between atoms: C_3  and  C_4
REMARK    3  A    between atoms: N_6  and  C_7
REMARK    4  A    between atoms: C_7  and  C_8
REMARK    5  A    between atoms: C_8  and  C_9
REMARK    6  A    between atoms: C_19  and  S_20
REMARK    7  A    between atoms: S_20  and  N_23
REMARK    8  A    between atoms: C_25  and  C_26
REMARK    9  A    between atoms: C_28  and  C_29
REMARK                            x       y       z     vdW  Elec       q    Type
REMARK                         _______ _______ _______ _____ _____    ______ ____
ROOT
ATOM      1  C   UNL     1       0.487   8.911  22.211  0.00  0.00    +0.000 C 
ATOM      2  C   UNL     1       0.922   9.249  20.832  0.00  0.00    +0.000 A 
ATOM      3  C   UNL     1       0.829  10.454  20.137  0.00  0.00    +0.000 A 
ATOM      4  O   UNL     1       1.415  10.308  18.897  0.00  0.00    +0.000 OA
ATOM      5  C   UNL     1       1.865   9.025  18.796  0.00  0.00    +0.000 A 
ATOM      6  C   UNL     1       2.530   8.468  17.705  0.00  0.00    +0.000 A 
ATOM      7  C   UNL     1       2.886   7.111  17.809  0.00  0.00    +0.000 A 
ATOM      8  C   UNL     1       2.574   6.373  18.960  0.00  0.00    +0.000 A 
ATOM      9  C   UNL     1       1.907   6.965  20.039  0.00  0.00    +0.000 A 
ATOM     10  C   UNL     1       1.562   8.323  19.953  0.00  0.00    +0.000 A 
ENDROOT
BRANCH   3  11
ATOM     11  C   UNL     1       0.260  11.746  20.491  0.00  0.00    +0.000 C 
ATOM     12  O   UNL     1       0.921  12.717  20.849  0.00  0.00    +0.000 OA
ATOM     13  N   UNL     1      -1.123  11.804  20.392  0.00  0.00    +0.000 N 
ATOM     14  H   UNL     1      -1.599  10.940  20.165  0.00  0.00    +0.000 HD
BRANCH  13  15
ATOM     15  C   UNL     1      -1.889  12.994  20.750  0.00  0.00    +0.000 C 
BRANCH  15  16
ATOM     16  C   UNL     1      -3.400  12.776  20.611  0.00  0.00    +0.000 C 
BRANCH  16  17
ATOM     17  C   UNL     1      -4.128  12.736  21.935  0.00  0.00    +0.000 A 
ATOM     18  C   UNL     1      -5.520  12.902  21.988  0.00  0.00    +0.000 A 
ATOM     19  C   UNL     1      -6.194  12.868  23.212  0.00  0.00    +0.000 A 
ATOM     20  C   UNL     1      -5.486  12.672  24.396  0.00  0.00    +0.000 A 
ATOM     21  C   UNL     1      -4.104  12.503  24.357  0.00  0.00    +0.000 A 
ATOM     22  C   UNL     1      -3.427  12.535  23.133  0.00  0.00    +0.000 A 
ENDBRANCH  16  17
ENDBRANCH  15  16
ENDBRANCH  13  15
ENDBRANCH   3  11
BRANCH   8  23
ATOM     23  S   UNL     1       2.957   4.628  19.066  0.00  0.00    +0.000 S 
ATOM     24  O   UNL     1       2.982   4.294  20.472  0.00  0.00    +0.000 OA
ATOM     25  O   UNL     1       2.074   3.946  18.142  0.00  0.00    +0.000 OA
BRANCH  23  26
ATOM     26  N   UNL     1       4.516   4.535  18.444  0.00  0.00    +0.000 NA
ATOM     27  C   UNL     1       4.749   3.915  17.140  0.00  0.00    +0.000 C 
ATOM     28  C   UNL     1       5.296   4.990  16.203  0.00  0.00    +0.000 C 
ATOM     29  C   UNL     1       5.409   4.461  14.781  0.00  0.00    +0.000 C 
ATOM     30  C   UNL     1       6.640   5.481  16.748  0.00  0.00    +0.000 C 
ATOM     31  C   UNL     1       6.483   6.050  18.171  0.00  0.00    +0.000 C 
ATOM     32  C   UNL     1       7.867   6.381  18.741  0.00  0.00    +0.000 C 
ATOM     33  C   UNL     1       5.697   5.113  19.111  0.00  0.00    +0.000 C 
ENDBRANCH  23  26
ENDBRANCH   8  23
TORSDOF 6
ENDMDL
MODEL 2
REMARK VINA RESULT:      -8.8      2.227      3.713
REMARK  Name = 
REMARK  9 active torsions:
REMARK  status: ('A' for Active; 'I' for Inactive)
REMARK    1  A    between atoms: C_1  and  C_2
REMARK    2  A    between atoms: C_3  and  C_4
REMARK    3  A    between atoms: N_6  and  C_7
REMARK    4  A    between atoms: C_7  and  C_8
REMARK    5  A    between atoms: C_8  and  C_9
REMARK    6  A    between atoms: C_19  and  S_20
REMARK    7  A    between atoms: S_20  and  N_23
REMARK    8  A    between atoms: C_25  and  C_26
REMARK    9  A    between atoms: C_28  and  C_29
REMARK                            x       y       z     vdW  Elec       q    Type
REMARK                         _______ _______ _______ _____ _____    ______ ____
ROOT
ATOM      1  C   UNL     1       1.788   9.353  17.776  0.00  0.00    +0.000 C 
ATOM      2  C   UNL     1       1.607   8.619  19.055  0.00  0.00    +0.000 A 
ATOM      3  C   UNL     1       1.119   9.068  20.281  0.00  0.00    +0.000 A 
ATOM      4  O   UNL     1       1.084   8.014  21.169  0.00  0.00    +0.000 OA
ATOM      5  C   UNL     1       1.557   6.910  20.524  0.00  0.00    +0.000 A 
ATOM      6  C   UNL     1       1.678   5.629  21.062  0.00  0.00    +0.000 A 
ATOM      7  C   UNL     1       2.213   4.639  20.219  0.00  0.00    +0.000 A 
ATOM      8  C   UNL     1       2.604   4.946  18.908  0.00  0.00    +0.000 A 
ATOM      9  C   UNL     1       2.467   6.243  18.399  0.00  0.00    +0.000 A 
ATOM     10  C   UNL     1       1.918   7.236  19.225  0.00  0.00    +0.000 A 
ENDROOT
BRANCH   3  11
ATOM     11  C   UNL     1       0.665  10.376  20.733  0.00  0.00    +0.000 C 
ATOM     12  O   UNL     1       1.391  11.213  21.261  0.00  0.00    +0.000 OA
ATOM     13  N   UNL     1      -0.684  10.615  20.516  0.00  0.00    +0.000 N 
ATOM     14  H   UNL     1      -1.229   9.846  20.146  0.00  0.00    +0.000 HD
BRANCH  13  15
ATOM     15  C   UNL     1      -1.344  11.845  20.942  0.00  0.00    +0.000 C 
BRANCH  15  16
ATOM     16  C   UNL     1      -1.750  12.728  19.756  0.00  0.00    +0.000 C 
BRANCH  16  17
ATOM     17  C   UNL     1      -2.480  11.976  18.667  0.00  0.00    +0.000 A 
ATOM     18  C   UNL     1      -1.781  11.459  17.566  0.00  0.00    +0.000 A 
ATOM     19  C   UNL     1      -2.455  10.766  16.557  0.00  0.00    +0.000 A 
ATOM     20  C   UNL     1      -3.834  10.584  16.635  0.00  0.00    +0.000 A 
ATOM     21  C   UNL     1      -4.540  11.089  17.724  0.00  0.00    +0.000 A 
ATOM     22  C   UNL     1      -3.867  11.782  18.735  0.00  0.00    +0.000 A 
ENDBRANCH  16  17
ENDBRANCH  15  16
ENDBRANCH  13  15
ENDBRANCH   3  11
BRANCH   8  23
ATOM     23  S   UNL     1       3.356   3.707  17.857  0.00  0.00    +0.000 S 
ATOM     24  O   UNL     1       3.921   2.707  18.736  0.00  0.00    +0.000 OA
ATOM     25  O   UNL     1       2.376   3.361  16.848  0.00  0.00    +0.000 OA
BRANCH  23  26
ATOM     26  N   UNL     1       4.598   4.546  17.097  0.00  0.00    +0.000 NA
ATOM     27  C   UNL     1       5.514   5.371  17.883  0.00  0.00    +0.000 C 
ATOM     28  C   UNL     1       6.913   4.772  17.752  0.00  0.00    +0.000 C 
ATOM     29  C   UNL     1       7.893   5.480  18.675  0.00  0.00    +0.000 C 
ATOM     30  C   UNL     1       7.343   4.843  16.284  0.00  0.00    +0.000 C 
ATOM     31  C   UNL     1       6.354   4.080  15.383  0.00  0.00    +0.000 C 
ATOM     32  C   UNL     1       6.727   4.307  13.914  0.00  0.00    +0.000 C 
ATOM     33  C   UNL     1       4.881   4.453  15.653  0.00  0.00    +0.000 C 
ENDBRANCH  23  26
ENDBRANCH   8  23
TORSDOF 6
ENDMDL
MODEL 3
REMARK VINA RESULT:      -8.7      1.328      2.552
REMARK  Name = 
REMARK  9 active torsions:
REMARK  status: ('A' for Active; 'I' for Inactive)
REMARK    1  A    between atoms: C_1  and  C_2
REMARK    2  A    between atoms: C_3  and  C_4
REMARK    3  A    between atoms: N_6  and  C_7
REMARK    4  A    between atoms: C_7  and  C_8
REMARK    5  A    between atoms: C_8  and  C_9
REMARK    6  A    between atoms: C_19  and  S_20
REMARK    7  A    between atoms: S_20  and  N_23
REMARK    8  A    between atoms: C_25  and  C_26
REMARK    9  A    between atoms: C_28  and  C_29
REMARK                            x       y       z     vdW  Elec       q    Type
REMARK                         _______ _______ _______ _____ _____    ______ ____
ROOT
ATOM      1  C   UNL     1       1.863   9.383  17.815  0.00  0.00    +0.000 C 
ATOM      2  C   UNL     1       1.651   8.646  19.086  0.00  0.00    +0.000 A 
ATOM      3  C   UNL     1       1.153   9.097  20.307  0.00  0.00    +0.000 A 
ATOM      4  O   UNL     1       1.088   8.039  21.190  0.00  0.00    +0.000 OA
ATOM      5  C   UNL     1       1.550   6.930  20.546  0.00  0.00    +0.000 A 
ATOM      6  C   UNL     1       1.641   5.645  21.079  0.00  0.00    +0.000 A 
ATOM      7  C   UNL     1       2.171   4.650  20.238  0.00  0.00    +0.000 A 
ATOM      8  C   UNL     1       2.586   4.957  18.935  0.00  0.00    +0.000 A 
ATOM      9  C   UNL     1       2.478   6.258  18.430  0.00  0.00    +0.000 A 
ATOM     10  C   UNL     1       1.935   7.257  19.254  0.00  0.00    +0.000 A 
ENDROOT
BRANCH   3  11
ATOM     11  C   UNL     1       0.716  10.410  20.760  0.00  0.00    +0.000 C 
ATOM     12  O   UNL     1       1.446  11.229  21.311  0.00  0.00    +0.000 OA
ATOM     13  N   UNL     1      -0.623  10.679  20.515  0.00  0.00    +0.000 N 
ATOM     14  H   UNL     1      -1.175   9.924  20.126  0.00  0.00    +0.000 HD
BRANCH  13  15
ATOM     15  C   UNL     1      -1.268  11.919  20.935  0.00  0.00    +0.000 C 
BRANCH  15  16
ATOM     16  C   UNL     1      -1.615  11.916  22.428  0.00  0.00    +0.000 C 
BRANCH  16  17
ATOM     17  C   UNL     1      -3.037  12.341  22.717  0.00  0.00    +0.000 A 
ATOM     18  C   UNL     1      -3.878  12.766  21.679  0.00  0.00    +0.000 A 
ATOM     19  C   UNL     1      -5.192  13.163  21.944  0.00  0.00    +0.000 A 
ATOM     20  C   UNL     1      -5.678  13.141  23.250  0.00  0.00    +0.000 A 
ATOM     21  C   UNL     1      -4.854  12.719  24.290  0.00  0.00    +0.000 A 
ATOM     22  C   UNL     1      -3.539  12.321  24.026  0.00  0.00    +0.000 A 
ENDBRANCH  16  17
ENDBRANCH  15  16
ENDBRANCH  13  15
ENDBRANCH   3  11
BRANCH   8  23
ATOM     23  S   UNL     1       3.331   3.710  17.889  0.00  0.00    +0.000 S 
ATOM     24  O   UNL     1       3.891   2.711  18.771  0.00  0.00    +0.000 OA
ATOM     25  O   UNL     1       2.349   3.365  16.882  0.00  0.00    +0.000 OA
BRANCH  23  26
ATOM     26  N   UNL     1       4.577   4.539  17.124  0.00  0.00    +0.000 NA
ATOM     27  C   UNL     1       5.500   5.360  17.908  0.00  0.00    +0.000 C 
ATOM     28  C   UNL     1       6.894   4.752  17.775  0.00  0.00    +0.000 C 
ATOM     29  C   UNL     1       7.881   5.456  18.695  0.00  0.00    +0.000 C 
ATOM     30  C   UNL     1       7.322   4.817  16.306  0.00  0.00    +0.000 C 
ATOM     31  C   UNL     1       6.327   4.059  15.408  0.00  0.00    +0.000 C 
ATOM     32  C   UNL     1       6.698   4.282  13.938  0.00  0.00    +0.000 C 
ATOM     33  C   UNL     1       4.857   4.442  15.680  0.00  0.00    +0.000 C 
ENDBRANCH  23  26
ENDBRANCH   8  23
TORSDOF 6
ENDMDL
MODEL 4
REMARK VINA RESULT:      -8.6      0.620      1.043
REMARK  Name = 
REMARK  9 active torsions:
REMARK  status: ('A' for Active; 'I' for Inactive)
REMARK    1  A    between atoms: C_1  and  C_2
REMARK    2  A    between atoms: C_3  and  C_4
REMARK    3  A    between atoms: N_6  and  C_7
REMARK    4  A    between atoms: C_7  and  C_8
REMARK    5  A    between atoms: C_8  and  C_9
REMARK    6  A    between atoms: C_19  and  S_20
REMARK    7  A    between atoms: S_20  and  N_23
REMARK    8  A    between atoms: C_25  and  C_26
REMARK    9  A    between atoms: C_28  and  C_29
REMARK                            x       y       z     vdW  Elec       q    Type
REMARK                         _______ _______ _______ _____ _____    ______ ____
ROOT
ATOM      1  C   UNL     1       0.468   8.591  22.225  0.00  0.00    +0.000 C 
ATOM      2  C   UNL     1       0.902   9.005  20.866  0.00  0.00    +0.000 A 
ATOM      3  C   UNL     1       0.766  10.234  20.222  0.00  0.00    +0.000 A 
ATOM      4  O   UNL     1       1.367  10.165  18.983  0.00  0.00    +0.000 OA
ATOM      5  C   UNL     1       1.868   8.906  18.832  0.00  0.00    +0.000 A 
ATOM      6  C   UNL     1       2.564   8.422  17.725  0.00  0.00    +0.000 A 
ATOM      7  C   UNL     1       2.973   7.077  17.775  0.00  0.00    +0.000 A 
ATOM      8  C   UNL     1       2.681   6.279  18.890  0.00  0.00    +0.000 A 
ATOM      9  C   UNL     1       1.983   6.798  19.986  0.00  0.00    +0.000 A 
ATOM     10  C   UNL     1       1.584   8.144  19.955  0.00  0.00    +0.000 A 
ENDROOT
BRANCH   3  11
ATOM     11  C   UNL     1       0.143  11.486  20.626  0.00  0.00    +0.000 C 
ATOM     12  O   UNL     1       0.427  12.100  21.650  0.00  0.00    +0.000 OA
ATOM     13  N   UNL     1      -0.823  11.950  19.744  0.00  0.00    +0.000 N 
ATOM     14  H   UNL     1      -1.053  11.348  18.963  0.00  0.00    +0.000 HD
BRANCH  13  15
ATOM     15  C   UNL     1      -1.599  13.162  19.991  0.00  0.00    +0.000 C 
BRANCH  15  16
ATOM     16  C   UNL     1      -3.067  12.857  20.309  0.00  0.00    +0.000 C 
BRANCH  16  17
ATOM     17  C   UNL     1      -3.437  13.114  21.752  0.00  0.00    +0.000 A 
ATOM     18  C   UNL     1      -2.488  13.620  22.652  0.00  0.00    +0.000 A 
ATOM     19  C   UNL     1      -2.827  13.855  23.988  0.00  0.00    +0.000 A 
ATOM     20  C   UNL     1      -4.118  13.585  24.438  0.00  0.00    +0.000 A 
ATOM     21  C   UNL     1      -5.071  13.085  23.555  0.00  0.00    +0.000 A 
ATOM     22  C   UNL     1      -4.733  12.850  22.218  0.00  0.00    +0.000 A 
ENDBRANCH  16  17
ENDBRANCH  15  16
ENDBRANCH  13  15
ENDBRANCH   3  11
BRANCH   8  23
ATOM     23  S   UNL     1       3.133   4.548  18.925  0.00  0.00    +0.000 S 
ATOM     24  O   UNL     1       3.177   4.160  20.318  0.00  0.00    +0.000 OA
ATOM     25  O   UNL     1       2.273   3.869  17.978  0.00  0.00    +0.000 OA
BRANCH  23  26
ATOM     26  N   UNL     1       4.691   4.541  18.296  0.00  0.00    +0.000 NA
ATOM     27  C   UNL     1       4.956   3.914  17.001  0.00  0.00    +0.000 C 
ATOM     28  C   UNL     1       5.431   5.004  16.042  0.00  0.00    +0.000 C 
ATOM     29  C   UNL     1       5.569   4.458  14.629  0.00  0.00    +0.000 C 
ATOM     30  C   UNL     1       6.744   5.587  16.571  0.00  0.00    +0.000 C 
ATOM     31  C   UNL     1       6.559   6.170  17.984  0.00  0.00    +0.000 C 
ATOM     32  C   UNL     1       7.923   6.595  18.540  0.00  0.00    +0.000 C 
ATOM     33  C   UNL     1       5.838   5.202  18.946  0.00  0.00    +0.000 C 
ENDBRANCH  23  26
ENDBRANCH   8  23
TORSDOF 6
ENDMDL
MODEL 5
REMARK VINA RESULT:      -8.6      2.469      3.589
REMARK  Name = 
REMARK  9 active torsions:
REMARK  status: ('A' for Active; 'I' for Inactive)
REMARK    1  A    between atoms: C_1  and  C_2
REMARK    2  A    between atoms: C_3  and  C_4
REMARK    3  A    between atoms: N_6  and  C_7
REMARK    4  A    between atoms: C_7  and  C_8
REMARK    5  A    between atoms: C_8  and  C_9
REMARK    6  A    between atoms: C_19  and  S_20
REMARK    7  A    between atoms: S_20  and  N_23
REMARK    8  A    between atoms: C_25  and  C_26
REMARK    9  A    between atoms: C_28  and  C_29
REMARK                            x       y       z     vdW  Elec       q    Type
REMARK                         _______ _______ _______ _____ _____    ______ ____
ROOT
ATOM      1  C   UNL     1       2.129   8.802  17.862  0.00  0.00    +0.000 C 
ATOM      2  C   UNL     1       1.859   8.062  19.121  0.00  0.00    +0.000 A 
ATOM      3  C   UNL     1       1.338   8.519  20.330  0.00  0.00    +0.000 A 
ATOM      4  O   UNL     1       1.218   7.457  21.203  0.00  0.00    +0.000 OA
ATOM      5  C   UNL     1       1.670   6.340  20.565  0.00  0.00    +0.000 A 
ATOM      6  C   UNL     1       1.710   5.050  21.090  0.00  0.00    +0.000 A 
ATOM      7  C   UNL     1       2.238   4.046  20.258  0.00  0.00    +0.000 A 
ATOM      8  C   UNL     1       2.699   4.350  18.970  0.00  0.00    +0.000 A 
ATOM      9  C   UNL     1       2.642   5.657  18.472  0.00  0.00    +0.000 A 
ATOM     10  C   UNL     1       2.101   6.665  19.287  0.00  0.00    +0.000 A 
ENDROOT
BRANCH   3  11
ATOM     11  C   UNL     1       0.923   9.840  20.779  0.00  0.00    +0.000 C 
ATOM     12  O   UNL     1       1.534  10.513  21.604  0.00  0.00    +0.000 OA
ATOM     13  N   UNL     1      -0.246  10.299  20.190  0.00  0.00    +0.000 N 
ATOM     14  H   UNL     1      -0.731   9.654  19.578  0.00  0.00    +0.000 HD
BRANCH  13  15
ATOM     15  C   UNL     1      -0.856  11.578  20.541  0.00  0.00    +0.000 C 
BRANCH  15  16
ATOM     16  C   UNL     1      -1.236  12.400  19.304  0.00  0.00    +0.000 C 
BRANCH  16  17
ATOM     17  C   UNL     1      -2.187  11.682  18.373  0.00  0.00    +0.000 A 
ATOM     18  C   UNL     1      -1.695  10.908  17.311  0.00  0.00    +0.000 A 
ATOM     19  C   UNL     1      -2.573  10.246  16.447  0.00  0.00    +0.000 A 
ATOM     20  C   UNL     1      -3.950  10.353  16.633  0.00  0.00    +0.000 A 
ATOM     21  C   UNL     1      -4.451  11.116  17.684  0.00  0.00    +0.000 A 
ATOM     22  C   UNL     1      -3.574  11.778  18.551  0.00  0.00    +0.000 A 
ENDBRANCH  16  17
ENDBRANCH  15  16
ENDBRANCH  13  15
ENDBRANCH   3  11
BRANCH   8  23
ATOM     23  S   UNL     1       3.442   3.091  17.937  0.00  0.00    +0.000 S 
ATOM     24  O   UNL     1       3.621   1.924  18.772  0.00  0.00    +0.000 OA
ATOM     25  O   UNL     1       2.664   3.035  16.717  0.00  0.00    +0.000 OA
BRANCH  23  26
ATOM     26  N   UNL     1       4.945   3.738  17.556  0.00  0.00    +0.000 NA
ATOM     27  C   UNL     1       5.326   3.931  16.157  0.00  0.00    +0.000 C 
ATOM     28  C   UNL     1       5.510   5.428  15.924  0.00  0.00    +0.000 C 
ATOM     29  C   UNL     1       5.747   5.722  14.450  0.00  0.00    +0.000 C 
ATOM     30  C   UNL     1       6.657   5.928  16.807  0.00  0.00    +0.000 C 
ATOM     31  C   UNL     1       6.365   5.655  18.295  0.00  0.00    +0.000 C 
ATOM     32  C   UNL     1       7.599   6.020  19.128  0.00  0.00    +0.000 C 
ATOM     33  C   UNL     1       5.913   4.205  18.565  0.00  0.00    +0.000 C 
ENDBRANCH  23  26
ENDBRANCH   8  23
TORSDOF 6
ENDMDL
MODEL 6
REMARK VINA RESULT:      -8.5      1.471      2.330
REMARK  Name = 
REMARK  9 active torsions:
REMARK  status: ('A' for Active; 'I' for Inactive)
REMARK    1  A    between atoms: C_1  and  C_2
REMARK    2  A    between atoms: C_3  and  C_4
REMARK    3  A    between atoms: N_6  and  C_7
REMARK    4  A    between atoms: C_7  and  C_8
REMARK    5  A    between atoms: C_8  and  C_9
REMARK    6  A    between atoms: C_19  and  S_20
REMARK    7  A    between atoms: S_20  and  N_23
REMARK    8  A    between atoms: C_25  and  C_26
REMARK    9  A    between atoms: C_28  and  C_29
REMARK                            x       y       z     vdW  Elec       q    Type
REMARK                         _______ _______ _______ _____ _____    ______ ____
ROOT
ATOM      1  C   UNL     1       2.082   8.906  17.786  0.00  0.00    +0.000 C 
ATOM      2  C   UNL     1       1.874   8.157  19.052  0.00  0.00    +0.000 A 
ATOM      3  C   UNL     1       1.441   8.612  20.297  0.00  0.00    +0.000 A 
ATOM      4  O   UNL     1       1.351   7.542  21.164  0.00  0.00    +0.000 OA
ATOM      5  C   UNL     1       1.734   6.423  20.487  0.00  0.00    +0.000 A 
ATOM      6  C   UNL     1       1.776   5.126  20.994  0.00  0.00    +0.000 A 
ATOM      7  C   UNL     1       2.227   4.120  20.120  0.00  0.00    +0.000 A 
ATOM      8  C   UNL     1       2.614   4.429  18.808  0.00  0.00    +0.000 A 
ATOM      9  C   UNL     1       2.556   5.743  18.329  0.00  0.00    +0.000 A 
ATOM     10  C   UNL     1       2.092   6.753  19.188  0.00  0.00    +0.000 A 
ENDROOT
BRANCH   3  11
ATOM     11  C   UNL     1       1.087   9.937  20.785  0.00  0.00    +0.000 C 
ATOM     12  O   UNL     1       1.326  10.341  21.920  0.00  0.00    +0.000 OA
ATOM     13  N   UNL     1       0.443  10.734  19.850  0.00  0.00    +0.000 N 
ATOM     14  H   UNL     1       0.215  10.301  18.963  0.00  0.00    +0.000 HD
BRANCH  13  15
ATOM     15  C   UNL     1      -0.038  12.077  20.157  0.00  0.00    +0.000 C 
BRANCH  15  16
ATOM     16  C   UNL     1      -1.501  12.279  19.744  0.00  0.00    +0.000 C 
BRANCH  16  17
ATOM     17  C   UNL     1      -2.437  12.468  20.916  0.00  0.00    +0.000 A 
ATOM     18  C   UNL     1      -3.740  12.949  20.716  0.00  0.00    +0.000 A 
ATOM     19  C   UNL     1      -4.606  13.127  21.799  0.00  0.00    +0.000 A 
ATOM     20  C   UNL     1      -4.179  12.829  23.092  0.00  0.00    +0.000 A 
ATOM     21  C   UNL     1      -2.890  12.348  23.303  0.00  0.00    +0.000 A 
ATOM     22  C   UNL     1      -2.022  12.169  22.221  0.00  0.00    +0.000 A 
ENDBRANCH  16  17
ENDBRANCH  15  16
ENDBRANCH  13  15
ENDBRANCH   3  11
BRANCH   8  23
ATOM     23  S   UNL     1       3.259   3.166  17.718  0.00  0.00    +0.000 S 
ATOM     24  O   UNL     1       3.230   1.924  18.459  0.00  0.00    +0.000 OA
ATOM     25  O   UNL     1       2.567   3.308  16.453  0.00  0.00    +0.000 OA
BRANCH  23  26
ATOM     26  N   UNL     1       4.855   3.635  17.481  0.00  0.00    +0.000 NA
ATOM     27  C   UNL     1       5.453   3.557  16.149  0.00  0.00    +0.000 C 
ATOM     28  C   UNL     1       5.807   4.976  15.710  0.00  0.00    +0.000 C 
ATOM     29  C   UNL     1       6.283   4.993  14.266  0.00  0.00    +0.000 C 
ATOM     30  C   UNL     1       6.854   5.542  16.673  0.00  0.00    +0.000 C 
ATOM     31  C   UNL     1       6.325   5.552  18.120  0.00  0.00    +0.000 C 
ATOM     32  C   UNL     1       7.452   5.972  19.070  0.00  0.00    +0.000 C 
ATOM     33  C   UNL     1       5.705   4.204  18.544  0.00  0.00    +0.000 C 
ENDBRANCH  23  26
ENDBRANCH   8  23
TORSDOF 6
ENDMDL
MODEL 7
REMARK VINA RESULT:      -8.5      2.960      9.949
REMARK  Name = 
REMARK  9 active torsions:
REMARK  status: ('A' for Active; 'I' for Inactive)
REMARK    1  A    between atoms: C_1  and  C_2
REMARK    2  A    between atoms: C_3  and  C_4
REMARK    3  A    between atoms: N_6  and  C_7
REMARK    4  A    between atoms: C_7  and  C_8
REMARK    5  A    between atoms: C_8  and  C_9
REMARK    6  A    between atoms: C_19  and  S_20
REMARK    7  A    between atoms: S_20  and  N_23
REMARK    8  A    between atoms: C_25  and  C_26
REMARK    9  A    between atoms: C_28  and  C_29
REMARK                            x       y       z     vdW  Elec       q    Type
REMARK                         _______ _______ _______ _____ _____    ______ ____
ROOT
ATOM      1  C   UNL     1       2.406   4.713  20.550  0.00  0.00    +0.000 C 
ATOM      2  C   UNL     1       2.644   5.695  19.462  0.00  0.00    +0.000 A 
ATOM      3  C   UNL     1       3.337   5.547  18.262  0.00  0.00    +0.000 A 
ATOM      4  O   UNL     1       3.251   6.720  17.541  0.00  0.00    +0.000 OA
ATOM      5  C   UNL     1       2.526   7.609  18.276  0.00  0.00    +0.000 A 
ATOM      6  C   UNL     1       2.196   8.912  17.904  0.00  0.00    +0.000 A 
ATOM      7  C   UNL     1       1.454   9.664  18.833  0.00  0.00    +0.000 A 
ATOM      8  C   UNL     1       1.078   9.114  20.067  0.00  0.00    +0.000 A 
ATOM      9  C   UNL     1       1.424   7.801  20.407  0.00  0.00    +0.000 A 
ATOM     10  C   UNL     1       2.151   7.035  19.482  0.00  0.00    +0.000 A 
ENDROOT
BRANCH   3  11
ATOM     11  C   UNL     1       4.073   4.429  17.689  0.00  0.00    +0.000 C 
ATOM     12  O   UNL     1       4.226   3.345  18.246  0.00  0.00    +0.000 OA
ATOM     13  N   UNL     1       4.605   4.682  16.433  0.00  0.00    +0.000 N 
ATOM     14  H   UNL     1       4.500   5.624  16.077  0.00  0.00    +0.000 HD
BRANCH  13  15
ATOM     15  C   UNL     1       5.418   3.710  15.711  0.00  0.00    +0.000 C 
BRANCH  15  16
ATOM     16  C   UNL     1       6.895   4.116  15.651  0.00  0.00    +0.000 C 
BRANCH  16  17
ATOM     17  C   UNL     1       7.293   5.098  16.730  0.00  0.00    +0.000 A 
ATOM     18  C   UNL     1       7.251   6.479  16.488  0.00  0.00    +0.000 A 
ATOM     19  C   UNL     1       7.622   7.387  17.484  0.00  0.00    +0.000 A 
ATOM     20  C   UNL     1       8.041   6.926  18.730  0.00  0.00    +0.000 A 
ATOM     21  C   UNL     1       8.085   5.558  18.985  0.00  0.00    +0.000 A 
ATOM     22  C   UNL     1       7.713   4.647  17.990  0.00  0.00    +0.000 A 
ENDBRANCH  16  17
ENDBRANCH  15  16
ENDBRANCH  13  15
ENDBRANCH   3  11
BRANCH   8  23
ATOM     23  S   UNL     1       0.200  10.093  21.281  0.00  0.00    +0.000 S 
ATOM     24  O   UNL     1      -0.713   9.195  21.953  0.00  0.00    +0.000 OA
ATOM     25  O   UNL     1       1.196  10.846  22.014  0.00  0.00    +0.000 OA
BRANCH  23  26
ATOM     26  N   UNL     1      -0.675  11.179  20.344  0.00  0.00    +0.000 NA
ATOM     27  C   UNL     1      -0.390  12.611  20.424  0.00  0.00    +0.000 C 
ATOM     28  C   UNL     1       0.113  13.066  19.056  0.00  0.00    +0.000 C 
ATOM     29  C   UNL     1       0.586  14.511  19.106  0.00  0.00    +0.000 C 
ATOM     30  C   UNL     1      -1.001  12.855  18.026  0.00  0.00    +0.000 C 
ATOM     31  C   UNL     1      -1.425  11.375  17.969  0.00  0.00    +0.000 C 
ATOM     32  C   UNL     1      -2.644  11.232  17.051  0.00  0.00    +0.000 C 
ATOM     33  C   UNL     1      -1.699  10.772  19.363  0.00  0.00    +0.000 C 
ENDBRANCH  23  26
ENDBRANCH   8  23
TORSDOF 6
ENDMDL
MODEL 8
REMARK VINA RESULT:      -8.5      0.873      1.205
REMARK  Name = 
REMARK  9 active torsions:
REMARK  status: ('A' for Active; 'I' for Inactive)
REMARK    1  A    between atoms: C_1  and  C_2
REMARK    2  A    between atoms: C_3  and  C_4
REMARK    3  A    between atoms: N_6  and  C_7
REMARK    4  A    between atoms: C_7  and  C_8
REMARK    5  A    between atoms: C_8  and  C_9
REMARK    6  A    between atoms: C_19  and  S_20
REMARK    7  A    between atoms: S_20  and  N_23
REMARK    8  A    between atoms: C_25  and  C_26
REMARK    9  A    between atoms: C_28  and  C_29
REMARK                            x       y       z     vdW  Elec       q    Type
REMARK                         _______ _______ _______ _____ _____    ______ ____
ROOT
ATOM      1  C   UNL     1       0.143   8.704  21.964  0.00  0.00    +0.000 C 
ATOM      2  C   UNL     1       0.673   9.083  20.629  0.00  0.00    +0.000 A 
ATOM      3  C   UNL     1       0.546  10.279  19.924  0.00  0.00    +0.000 A 
ATOM      4  O   UNL     1       1.252  10.186  18.743  0.00  0.00    +0.000 OA
ATOM      5  C   UNL     1       1.811   8.944  18.687  0.00  0.00    +0.000 A 
ATOM      6  C   UNL     1       2.615   8.447  17.663  0.00  0.00    +0.000 A 
ATOM      7  C   UNL     1       3.068   7.123  17.803  0.00  0.00    +0.000 A 
ATOM      8  C   UNL     1       2.715   6.357  18.923  0.00  0.00    +0.000 A 
ATOM      9  C   UNL     1       1.907   6.889  19.935  0.00  0.00    +0.000 A 
ATOM     10  C   UNL     1       1.462   8.215  19.815  0.00  0.00    +0.000 A 
ENDROOT
BRANCH   3  11
ATOM     11  C   UNL     1      -0.156  11.519  20.222  0.00  0.00    +0.000 C 
ATOM     12  O   UNL     1      -0.965  12.053  19.468  0.00  0.00    +0.000 OA
ATOM     13  N   UNL     1       0.163  12.070  21.455  0.00  0.00    +0.000 N 
ATOM     14  H   UNL     1       0.894  11.611  21.983  0.00  0.00    +0.000 HD
BRANCH  13  15
ATOM     15  C   UNL     1      -0.394  13.337  21.919  0.00  0.00    +0.000 C 
BRANCH  15  16
ATOM     16  C   UNL     1      -1.216  13.175  23.203  0.00  0.00    +0.000 C 
BRANCH  16  17
ATOM     17  C   UNL     1      -2.708  13.137  22.962  0.00  0.00    +0.000 A 
ATOM     18  C   UNL     1      -3.233  13.427  21.695  0.00  0.00    +0.000 A 
ATOM     19  C   UNL     1      -4.613  13.395  21.472  0.00  0.00    +0.000 A 
ATOM     20  C   UNL     1      -5.482  13.077  22.513  0.00  0.00    +0.000 A 
ATOM     21  C   UNL     1      -4.974  12.784  23.776  0.00  0.00    +0.000 A 
ATOM     22  C   UNL     1      -3.593  12.814  24.001  0.00  0.00    +0.000 A 
ENDBRANCH  16  17
ENDBRANCH  15  16
ENDBRANCH  13  15
ENDBRANCH   3  11
BRANCH   8  23
ATOM     23  S   UNL     1       3.227   4.649  19.068  0.00  0.00    +0.000 S 
ATOM     24  O   UNL     1       3.320   4.363  20.483  0.00  0.00    +0.000 OA
ATOM     25  O   UNL     1       2.367   3.876  18.196  0.00  0.00    +0.000 OA
BRANCH  23  26
ATOM     26  N   UNL     1       4.768   4.647  18.398  0.00  0.00    +0.000 NA
ATOM     27  C   UNL     1       5.006   3.995  17.111  0.00  0.00    +0.000 C 
ATOM     28  C   UNL     1       5.440   5.068  16.116  0.00  0.00    +0.000 C 
ATOM     29  C   UNL     1       5.548   4.493  14.711  0.00  0.00    +0.000 C 
ATOM     30  C   UNL     1       6.760   5.680  16.595  0.00  0.00    +0.000 C 
ATOM     31  C   UNL     1       6.604   6.293  18.000  0.00  0.00    +0.000 C 
ATOM     32  C   UNL     1       7.976   6.748  18.509  0.00  0.00    +0.000 C 
ATOM     33  C   UNL     1       5.922   5.338  19.002  0.00  0.00    +0.000 C 
ENDBRANCH  23  26
ENDBRANCH   8  23
TORSDOF 6
ENDMDL
MODEL 9
REMARK VINA RESULT:      -8.5      2.645      4.225
REMARK  Name = 
REMARK  9 active torsions:
REMARK  status: ('A' for Active; 'I' for Inactive)
REMARK    1  A    between atoms: C_1  and  C_2
REMARK    2  A    between atoms: C_3  and  C_4
REMARK    3  A    between atoms: N_6  and  C_7
REMARK    4  A    between atoms: C_7  and  C_8
REMARK    5  A    between atoms: C_8  and  C_9
REMARK    6  A    between atoms: C_19  and  S_20
REMARK    7  A    between atoms: S_20  and  N_23
REMARK    8  A    between atoms: C_25  and  C_26
REMARK    9  A    between atoms: C_28  and  C_29
REMARK                            x       y       z     vdW  Elec       q    Type
REMARK                         _______ _______ _______ _____ _____    ______ ____
ROOT
ATOM      1  C   UNL     1       0.692   8.903  22.292  0.00  0.00    +0.000 C 
ATOM      2  C   UNL     1       1.055   9.252  20.895  0.00  0.00    +0.000 A 
ATOM      3  C   UNL     1       0.929  10.462  20.215  0.00  0.00    +0.000 A 
ATOM      4  O   UNL     1       1.448  10.325  18.944  0.00  0.00    +0.000 OA
ATOM      5  C   UNL     1       1.887   9.042  18.809  0.00  0.00    +0.000 A 
ATOM      6  C   UNL     1       2.491   8.491  17.680  0.00  0.00    +0.000 A 
ATOM      7  C   UNL     1       2.846   7.132  17.754  0.00  0.00    +0.000 A 
ATOM      8  C   UNL     1       2.594   6.386  18.914  0.00  0.00    +0.000 A 
ATOM      9  C   UNL     1       1.988   6.971  20.031  0.00  0.00    +0.000 A 
ATOM     10  C   UNL     1       1.643   8.331  19.975  0.00  0.00    +0.000 A 
ENDROOT
BRANCH   3  11
ATOM     11  C   UNL     1       0.385  11.754  20.610  0.00  0.00    +0.000 C 
ATOM     12  O   UNL     1       0.140  12.074  21.770  0.00  0.00    +0.000 OA
ATOM     13  N   UNL     1       0.156  12.621  19.552  0.00  0.00    +0.000 N 
ATOM     14  H   UNL     1       0.312  12.255  18.621  0.00  0.00    +0.000 HD
BRANCH  13  15
ATOM     15  C   UNL     1      -0.432  13.945  19.732  0.00  0.00    +0.000 C 
BRANCH  15  16
ATOM     16  C   UNL     1       0.581  14.965  20.263  0.00  0.00    +0.000 C 
BRANCH  16  17
ATOM     17  C   UNL     1       1.369  15.656  19.173  0.00  0.00    +0.000 A 
ATOM     18  C   UNL     1       0.945  16.891  18.662  0.00  0.00    +0.000 A 
ATOM     19  C   UNL     1       1.670  17.530  17.651  0.00  0.00    +0.000 A 
ATOM     20  C   UNL     1       2.824  16.940  17.140  0.00  0.00    +0.000 A 
ATOM     21  C   UNL     1       3.258  15.716  17.641  0.00  0.00    +0.000 A 
ATOM     22  C   UNL     1       2.534  15.075  18.652  0.00  0.00    +0.000 A 
ENDBRANCH  16  17
ENDBRANCH  15  16
ENDBRANCH  13  15
ENDBRANCH   3  11
BRANCH   8  23
ATOM     23  S   UNL     1       2.976   4.639  18.985  0.00  0.00    +0.000 S 
ATOM     24  O   UNL     1       2.990   4.275  20.384  0.00  0.00    +0.000 OA
ATOM     25  O   UNL     1       2.098   3.978  18.040  0.00  0.00    +0.000 OA
BRANCH  23  26
ATOM     26  N   UNL     1       4.538   4.558  18.372  0.00  0.00    +0.000 NA
ATOM     27  C   UNL     1       4.791   3.894  17.093  0.00  0.00    +0.000 C 
ATOM     28  C   UNL     1       5.317   4.944  16.117  0.00  0.00    +0.000 C 
ATOM     29  C   UNL     1       5.448   4.363  14.717  0.00  0.00    +0.000 C 
ATOM     30  C   UNL     1       6.647   5.487  16.647  0.00  0.00    +0.000 C 
ATOM     31  C   UNL     1       6.471   6.107  18.046  0.00  0.00    +0.000 C 
ATOM     32  C   UNL     1       7.844   6.492  18.607  0.00  0.00    +0.000 C 
ATOM     33  C   UNL     1       5.703   5.189  19.020  0.00  0.00    +0.000 C 
ENDBRANCH  23  26
ENDBRANCH   8  23
TORSDOF 6
ENDMDL
