MODEL 1
REMARK VINA RESULT:      -7.3      0.000      0.000
REMARK  Name = 
REMARK  5 active torsions:
REMARK  status: ('A' for Active; 'I' for Inactive)
REMARK    1  A    between atoms: C_1  and  C_2
REMARK    2  A    between atoms: C_2  and  C_3
REMARK    3  A    between atoms: N_7  and  S_8
REMARK    4  A    between atoms: S_8  and  C_11
REMARK    5  A    between atoms: C_15  and  N_16
REMARK                            x       y       z     vdW  Elec       q    Type
REMARK                         _______ _______ _______ _____ _____    ______ ____
ROOT
ATOM      1  S   UNL     1       3.272   2.839  17.948  0.00  0.00    +0.000 S 
ATOM      2  O   UNL     1       3.677   1.507  18.343  0.00  0.00    +0.000 OA
ATOM      3  O   UNL     1       2.314   3.081  16.887  0.00  0.00    +0.000 OA
ENDROOT
BRANCH   1   4
ATOM      4  C   UNL     1       4.763   3.714  17.527  0.00  0.00    +0.000 A 
ATOM      5  C   UNL     1       5.524   4.250  18.576  0.00  0.00    +0.000 A 
ATOM      6  C   UNL     1       6.715   4.921  18.301  0.00  0.00    +0.000 A 
ATOM      7  C   UNL     1       7.155   5.053  16.983  0.00  0.00    +0.000 A 
ATOM      8  C   UNL     1       6.382   4.524  15.939  0.00  0.00    +0.000 A 
ATOM      9  C   UNL     1       5.172   3.862  16.201  0.00  0.00    +0.000 A 
BRANCH   8  10
ATOM     10  N   UNL     1       6.858   4.645  14.554  0.00  0.00    +0.000 N 
ATOM     11  O   UNL     1       6.291   3.965  13.688  0.00  0.00    +0.000 OA
ATOM     12  O   UNL     1       7.789   5.431  14.338  0.00  0.00    +0.000 OA
ENDBRANCH   8  10
ENDBRANCH   1   4
BRANCH   1  17
ATOM     13  C   UNL     1       2.062   4.875  19.383  0.00  0.00    +0.000 A 
ATOM     14  N   UNL     1       1.599   5.067  20.608  0.00  0.00    +0.000 NA
ATOM     15  C   UNL     1       1.888   3.930  21.319  0.00  0.00    +0.000 A 
ATOM     16  C   UNL     1       2.517   3.008  20.522  0.00  0.00    +0.000 A 
ATOM     17  N   UNL     1       2.619   3.619  19.296  0.00  0.00    +0.000 N 
BRANCH  13  19
ATOM     18  C   UNL     1       3.002   7.015  18.516  0.00  0.00    +0.000 C 
ATOM     19  C   UNL     1       1.982   5.907  18.306  0.00  0.00    +0.000 C 
ENDBRANCH  13  19
ENDBRANCH   1  17
TORSDOF 4
ENDMDL
MODEL 2
REMARK VINA RESULT:      -7.3      2.015      2.479
REMARK  Name = 
REMARK  5 active torsions:
REMARK  status: ('A' for Active; 'I' for Inactive)
REMARK    1  A    between atoms: C_1  and  C_2
REMARK    2  A    between atoms: C_2  and  C_3
REMARK    3  A    between atoms: N_7  and  S_8
REMARK    4  A    between atoms: S_8  and  C_11
REMARK    5  A    between atoms: C_15  and  N_16
REMARK                            x       y       z     vdW  Elec       q    Type
REMARK                         _______ _______ _______ _____ _____    ______ ____
ROOT
ATOM      1  S   UNL     1       3.335   2.858  17.927  0.00  0.00    +0.000 S 
ATOM      2  O   UNL     1       3.854   1.563  18.315  0.00  0.00    +0.000 OA
ATOM      3  O   UNL     1       2.336   3.020  16.890  0.00  0.00    +0.000 OA
ENDROOT
BRANCH   1   4
ATOM      4  C   UNL     1       4.741   3.847  17.470  0.00  0.00    +0.000 A 
ATOM      5  C   UNL     1       4.977   4.054  16.103  0.00  0.00    +0.000 A 
ATOM      6  C   UNL     1       6.049   4.844  15.692  0.00  0.00    +0.000 A 
ATOM      7  C   UNL     1       6.884   5.438  16.640  0.00  0.00    +0.000 A 
ATOM      8  C   UNL     1       6.647   5.218  18.005  0.00  0.00    +0.000 A 
ATOM      9  C   UNL     1       5.582   4.409  18.431  0.00  0.00    +0.000 A 
BRANCH   8  10
ATOM     10  N   UNL     1       7.514   5.861  19.003  0.00  0.00    +0.000 N 
ATOM     11  O   UNL     1       8.123   6.884  18.664  0.00  0.00    +0.000 OA
ATOM     12  O   UNL     1       7.572   5.344  20.126  0.00  0.00    +0.000 OA
ENDBRANCH   8  10
ENDBRANCH   1   4
BRANCH   1  17
ATOM     13  C   UNL     1       2.113   4.847  19.417  0.00  0.00    +0.000 A 
ATOM     14  N   UNL     1       1.619   4.992  20.636  0.00  0.00    +0.000 NA
ATOM     15  C   UNL     1       1.870   3.821  21.303  0.00  0.00    +0.000 A 
ATOM     16  C   UNL     1       2.508   2.925  20.485  0.00  0.00    +0.000 A 
ATOM     17  N   UNL     1       2.655   3.588  19.290  0.00  0.00    +0.000 N 
BRANCH  13  19
ATOM     18  C   UNL     1       2.590   7.247  18.940  0.00  0.00    +0.000 C 
ATOM     19  C   UNL     1       2.080   5.927  18.386  0.00  0.00    +0.000 C 
ENDBRANCH  13  19
ENDBRANCH   1  17
TORSDOF 4
ENDMDL
MODEL 3
REMARK VINA RESULT:      -7.2      0.792      2.029
REMARK  Name = 
REMARK  5 active torsions:
REMARK  status: ('A' for Active; 'I' for Inactive)
REMARK    1  A    between atoms: C_1  and  C_2
REMARK    2  A    between atoms: C_2  and  C_3
REMARK    3  A    between atoms: N_7  and  S_8
REMARK    4  A    between atoms: S_8  and  C_11
REMARK    5  A    between atoms: C_15  and  N_16
REMARK                            x       y       z     vdW  Elec       q    Type
REMARK                         _______ _______ _______ _____ _____    ______ ____
ROOT
ATOM      1  S   UNL     1       3.277   3.405  18.061  0.00  0.00    +0.000 S 
ATOM      2  O   UNL     1       3.543   2.254  18.899  0.00  0.00    +0.000 OA
ATOM      3  O   UNL     1       2.406   3.342  16.904  0.00  0.00    +0.000 OA
ENDROOT
BRANCH   1   4
ATOM      4  C   UNL     1       4.858   3.998  17.504  0.00  0.00    +0.000 A 
ATOM      5  C   UNL     1       5.807   4.342  18.478  0.00  0.00    +0.000 A 
ATOM      6  C   UNL     1       7.071   4.787  18.094  0.00  0.00    +0.000 A 
ATOM      7  C   UNL     1       7.397   4.881  16.740  0.00  0.00    +0.000 A 
ATOM      8  C   UNL     1       6.439   4.546  15.772  0.00  0.00    +0.000 A 
ATOM      9  C   UNL     1       5.157   4.115  16.145  0.00  0.00    +0.000 A 
BRANCH   8  10
ATOM     10  N   UNL     1       6.791   4.626  14.347  0.00  0.00    +0.000 N 
ATOM     11  O   UNL     1       7.702   5.399  14.021  0.00  0.00    +0.000 OA
ATOM     12  O   UNL     1       6.161   3.905  13.563  0.00  0.00    +0.000 OA
ENDBRANCH   8  10
ENDBRANCH   1   4
BRANCH   1  17
ATOM     13  C   UNL     1       1.701   4.516  20.049  0.00  0.00    +0.000 A 
ATOM     14  N   UNL     1       1.511   5.706  20.596  0.00  0.00    +0.000 NA
ATOM     15  C   UNL     1       2.294   6.588  19.896  0.00  0.00    +0.000 A 
ATOM     16  C   UNL     1       3.000   5.938  18.916  0.00  0.00    +0.000 A 
ATOM     17  N   UNL     1       2.616   4.624  19.025  0.00  0.00    +0.000 N 
BRANCH  13  19
ATOM     18  C   UNL     1       1.655   2.668  21.721  0.00  0.00    +0.000 C 
ATOM     19  C   UNL     1       0.989   3.283  20.501  0.00  0.00    +0.000 C 
ENDBRANCH  13  19
ENDBRANCH   1  17
TORSDOF 4
ENDMDL
MODEL 4
REMARK VINA RESULT:      -7.2      1.059      1.231
REMARK  Name = 
REMARK  5 active torsions:
REMARK  status: ('A' for Active; 'I' for Inactive)
REMARK    1  A    between atoms: C_1  and  C_2
REMARK    2  A    between atoms: C_2  and  C_3
REMARK    3  A    between atoms: N_7  and  S_8
REMARK    4  A    between atoms: S_8  and  C_11
REMARK    5  A    between atoms: C_15  and  N_16
REMARK                            x       y       z     vdW  Elec       q    Type
REMARK                         _______ _______ _______ _____ _____    ______ ____
ROOT
ATOM      1  S   UNL     1       4.164   2.380  19.113  0.00  0.00    +0.000 S 
ATOM      2  O   UNL     1       5.027   1.806  20.124  0.00  0.00    +0.000 OA
ATOM      3  O   UNL     1       3.615   1.601  18.021  0.00  0.00    +0.000 OA
ENDROOT
BRANCH   1   4
ATOM      4  C   UNL     1       5.061   3.740  18.398  0.00  0.00    +0.000 A 
ATOM      5  C   UNL     1       5.519   4.746  19.260  0.00  0.00    +0.000 A 
ATOM      6  C   UNL     1       6.252   5.819  18.754  0.00  0.00    +0.000 A 
ATOM      7  C   UNL     1       6.536   5.888  17.389  0.00  0.00    +0.000 A 
ATOM      8  C   UNL     1       6.064   4.883  16.531  0.00  0.00    +0.000 A 
ATOM      9  C   UNL     1       5.311   3.807  17.026  0.00  0.00    +0.000 A 
BRANCH   8  10
ATOM     10  N   UNL     1       6.383   4.947  15.098  0.00  0.00    +0.000 N 
ATOM     11  O   UNL     1       5.532   4.533  14.299  0.00  0.00    +0.000 OA
ATOM     12  O   UNL     1       7.480   5.422  14.779  0.00  0.00    +0.000 OA
ENDBRANCH   8  10
ENDBRANCH   1   4
BRANCH   1  17
ATOM     13  C   UNL     1       1.840   3.866  19.361  0.00  0.00    +0.000 A 
ATOM     14  N   UNL     1       0.917   4.093  20.283  0.00  0.00    +0.000 NA
ATOM     15  C   UNL     1       1.321   3.429  21.413  0.00  0.00    +0.000 A 
ATOM     16  C   UNL     1       2.497   2.760  21.188  0.00  0.00    +0.000 A 
ATOM     17  N   UNL     1       2.814   3.044  19.882  0.00  0.00    +0.000 N 
BRANCH  13  19
ATOM     18  C   UNL     1       2.260   5.901  17.984  0.00  0.00    +0.000 C 
ATOM     19  C   UNL     1       1.790   4.455  17.990  0.00  0.00    +0.000 C 
ENDBRANCH  13  19
ENDBRANCH   1  17
TORSDOF 4
ENDMDL
MODEL 5
REMARK VINA RESULT:      -7.1      2.667      3.466
REMARK  Name = 
REMARK  5 active torsions:
REMARK  status: ('A' for Active; 'I' for Inactive)
REMARK    1  A    between atoms: C_1  and  C_2
REMARK    2  A    between atoms: C_2  and  C_3
REMARK    3  A    between atoms: N_7  and  S_8
REMARK    4  A    between atoms: S_8  and  C_11
REMARK    5  A    between atoms: C_15  and  N_16
REMARK                            x       y       z     vdW  Elec       q    Type
REMARK                         _______ _______ _______ _____ _____    ______ ____
ROOT
ATOM      1  S   UNL     1       2.442   5.197  18.575  0.00  0.00    +0.000 S 
ATOM      2  O   UNL     1       1.640   4.743  17.459  0.00  0.00    +0.000 OA
ATOM      3  O   UNL     1       2.282   6.509  19.169  0.00  0.00    +0.000 OA
ENDROOT
BRANCH   1   4
ATOM      4  C   UNL     1       4.141   5.047  18.068  0.00  0.00    +0.000 A 
ATOM      5  C   UNL     1       4.400   4.488  16.809  0.00  0.00    +0.000 A 
ATOM      6  C   UNL     1       5.713   4.374  16.352  0.00  0.00    +0.000 A 
ATOM      7  C   UNL     1       6.769   4.824  17.146  0.00  0.00    +0.000 A 
ATOM      8  C   UNL     1       6.502   5.372  18.409  0.00  0.00    +0.000 A 
ATOM      9  C   UNL     1       5.187   5.475  18.887  0.00  0.00    +0.000 A 
BRANCH   8  10
ATOM     10  N   UNL     1       7.615   5.864  19.234  0.00  0.00    +0.000 N 
ATOM     11  O   UNL     1       7.828   5.296  20.313  0.00  0.00    +0.000 OA
ATOM     12  O   UNL     1       8.278   6.811  18.790  0.00  0.00    +0.000 OA
ENDBRANCH   8  10
ENDBRANCH   1   4
BRANCH   1  17
ATOM     13  C   UNL     1       2.196   2.743  19.836  0.00  0.00    +0.000 A 
ATOM     14  N   UNL     1       2.082   2.287  21.074  0.00  0.00    +0.000 NA
ATOM     15  C   UNL     1       2.012   3.385  21.892  0.00  0.00    +0.000 A 
ATOM     16  C   UNL     1       2.107   4.540  21.160  0.00  0.00    +0.000 A 
ATOM     17  N   UNL     1       2.225   4.120  19.858  0.00  0.00    +0.000 N 
BRANCH  13  19
ATOM     18  C   UNL     1       3.669   1.347  18.390  0.00  0.00    +0.000 C 
ATOM     19  C   UNL     1       2.258   1.855  18.637  0.00  0.00    +0.000 C 
ENDBRANCH  13  19
ENDBRANCH   1  17
TORSDOF 4
ENDMDL
MODEL 6
REMARK VINA RESULT:      -7.1      1.916      2.836
REMARK  Name = 
REMARK  5 active torsions:
REMARK  status: ('A' for Active; 'I' for Inactive)
REMARK    1  A    between atoms: C_1  and  C_2
REMARK    2  A    between atoms: C_2  and  C_3
REMARK    3  A    between atoms: N_7  and  S_8
REMARK    4  A    between atoms: S_8  and  C_11
REMARK    5  A    between atoms: C_15  and  N_16
REMARK                            x       y       z     vdW  Elec       q    Type
REMARK                         _______ _______ _______ _____ _____    ______ ____
ROOT
ATOM      1  S   UNL     1       2.364   3.118  17.956  0.00  0.00    +0.000 S 
ATOM      2  O   UNL     1       2.855   1.881  17.386  0.00  0.00    +0.000 OA
ATOM      3  O   UNL     1       1.101   3.711  17.563  0.00  0.00    +0.000 OA
ENDROOT
BRANCH   1   4
ATOM      4  C   UNL     1       3.631   4.337  17.683  0.00  0.00    +0.000 A 
ATOM      5  C   UNL     1       3.260   5.688  17.736  0.00  0.00    +0.000 A 
ATOM      6  C   UNL     1       4.220   6.683  17.556  0.00  0.00    +0.000 A 
ATOM      7  C   UNL     1       5.553   6.334  17.331  0.00  0.00    +0.000 A 
ATOM      8  C   UNL     1       5.914   4.980  17.268  0.00  0.00    +0.000 A 
ATOM      9  C   UNL     1       4.954   3.970  17.429  0.00  0.00    +0.000 A 
BRANCH   8  10
ATOM     10  N   UNL     1       7.321   4.616  17.052  0.00  0.00    +0.000 N 
ATOM     11  O   UNL     1       7.738   4.590  15.886  0.00  0.00    +0.000 OA
ATOM     12  O   UNL     1       8.006   4.369  18.053  0.00  0.00    +0.000 OA
ENDBRANCH   8  10
ENDBRANCH   1   4
BRANCH   1  17
ATOM     13  C   UNL     1       3.217   2.574  20.534  0.00  0.00    +0.000 A 
ATOM     14  N   UNL     1       2.714   2.606  21.758  0.00  0.00    +0.000 NA
ATOM     15  C   UNL     1       1.393   2.950  21.630  0.00  0.00    +0.000 A 
ATOM     16  C   UNL     1       1.073   3.160  20.314  0.00  0.00    +0.000 A 
ATOM     17  N   UNL     1       2.239   2.919  19.629  0.00  0.00    +0.000 N 
BRANCH  13  19
ATOM     18  C   UNL     1       5.146   1.149  21.214  0.00  0.00    +0.000 C 
ATOM     19  C   UNL     1       4.631   2.195  20.238  0.00  0.00    +0.000 C 
ENDBRANCH  13  19
ENDBRANCH   1  17
TORSDOF 4
ENDMDL
MODEL 7
REMARK VINA RESULT:      -7.0      1.140      2.093
REMARK  Name = 
REMARK  5 active torsions:
REMARK  status: ('A' for Active; 'I' for Inactive)
REMARK    1  A    between atoms: C_1  and  C_2
REMARK    2  A    between atoms: C_2  and  C_3
REMARK    3  A    between atoms: N_7  and  S_8
REMARK    4  A    between atoms: S_8  and  C_11
REMARK    5  A    between atoms: C_15  and  N_16
REMARK                            x       y       z     vdW  Elec       q    Type
REMARK                         _______ _______ _______ _____ _____    ______ ____
ROOT
ATOM      1  S   UNL     1       4.116   3.428  18.910  0.00  0.00    +0.000 S 
ATOM      2  O   UNL     1       4.748   2.765  20.031  0.00  0.00    +0.000 OA
ATOM      3  O   UNL     1       3.371   2.707  17.897  0.00  0.00    +0.000 OA
ENDROOT
BRANCH   1   4
ATOM      4  C   UNL     1       5.395   4.343  18.079  0.00  0.00    +0.000 A 
ATOM      5  C   UNL     1       6.224   5.162  18.859  0.00  0.00    +0.000 A 
ATOM      6  C   UNL     1       7.259   5.879  18.261  0.00  0.00    +0.000 A 
ATOM      7  C   UNL     1       7.477   5.775  16.886  0.00  0.00    +0.000 A 
ATOM      8  C   UNL     1       6.636   4.963  16.111  0.00  0.00    +0.000 A 
ATOM      9  C   UNL     1       5.579   4.250  16.699  0.00  0.00    +0.000 A 
BRANCH   8  10
ATOM     10  N   UNL     1       6.880   4.839  14.667  0.00  0.00    +0.000 N 
ATOM     11  O   UNL     1       6.146   4.078  14.021  0.00  0.00    +0.000 OA
ATOM     12  O   UNL     1       7.798   5.514  14.184  0.00  0.00    +0.000 OA
ENDBRANCH   8  10
ENDBRANCH   1   4
BRANCH   1  17
ATOM     13  C   UNL     1       1.858   4.356  20.218  0.00  0.00    +0.000 A 
ATOM     14  N   UNL     1       1.342   5.523  20.570  0.00  0.00    +0.000 NA
ATOM     15  C   UNL     1       2.173   6.489  20.062  0.00  0.00    +0.000 A 
ATOM     16  C   UNL     1       3.233   5.918  19.406  0.00  0.00    +0.000 A 
ATOM     17  N   UNL     1       3.023   4.565  19.513  0.00  0.00    +0.000 N 
BRANCH  13  19
ATOM     18  C   UNL     1       1.709   2.502  21.877  0.00  0.00    +0.000 C 
ATOM     19  C   UNL     1       1.220   3.046  20.544  0.00  0.00    +0.000 C 
ENDBRANCH  13  19
ENDBRANCH   1  17
TORSDOF 4
ENDMDL
MODEL 8
REMARK VINA RESULT:      -7.0      2.088      3.039
REMARK  Name = 
REMARK  5 active torsions:
REMARK  status: ('A' for Active; 'I' for Inactive)
REMARK    1  A    between atoms: C_1  and  C_2
REMARK    2  A    between atoms: C_2  and  C_3
REMARK    3  A    between atoms: N_7  and  S_8
REMARK    4  A    between atoms: S_8  and  C_11
REMARK    5  A    between atoms: C_15  and  N_16
REMARK                            x       y       z     vdW  Elec       q    Type
REMARK                         _______ _______ _______ _____ _____    ______ ____
ROOT
ATOM      1  S   UNL     1       3.255   3.395  18.044  0.00  0.00    +0.000 S 
ATOM      2  O   UNL     1       3.571   2.237  18.853  0.00  0.00    +0.000 OA
ATOM      3  O   UNL     1       2.379   3.326  16.892  0.00  0.00    +0.000 OA
ENDROOT
BRANCH   1   4
ATOM      4  C   UNL     1       4.809   4.061  17.490  0.00  0.00    +0.000 A 
ATOM      5  C   UNL     1       5.088   4.013  16.117  0.00  0.00    +0.000 A 
ATOM      6  C   UNL     1       6.280   4.547  15.628  0.00  0.00    +0.000 A 
ATOM      7  C   UNL     1       7.192   5.137  16.504  0.00  0.00    +0.000 A 
ATOM      8  C   UNL     1       6.911   5.171  17.878  0.00  0.00    +0.000 A 
ATOM      9  C   UNL     1       5.723   4.621  18.384  0.00  0.00    +0.000 A 
BRANCH   8  10
ATOM     10  N   UNL     1       7.863   5.811  18.796  0.00  0.00    +0.000 N 
ATOM     11  O   UNL     1       8.318   5.129  19.723  0.00  0.00    +0.000 OA
ATOM     12  O   UNL     1       8.160   6.993  18.576  0.00  0.00    +0.000 OA
ENDBRANCH   8  10
ENDBRANCH   1   4
BRANCH   1  17
ATOM     13  C   UNL     1       1.668   4.398  20.079  0.00  0.00    +0.000 A 
ATOM     14  N   UNL     1       1.432   5.569  20.649  0.00  0.00    +0.000 NA
ATOM     15  C   UNL     1       2.159   6.498  19.951  0.00  0.00    +0.000 A 
ATOM     16  C   UNL     1       2.876   5.898  18.948  0.00  0.00    +0.000 A 
ATOM     17  N   UNL     1       2.556   4.566  19.041  0.00  0.00    +0.000 N 
BRANCH  13  19
ATOM     18  C   UNL     1       1.660   2.589  21.794  0.00  0.00    +0.000 C 
ATOM     19  C   UNL     1       1.023   3.126  20.523  0.00  0.00    +0.000 C 
ENDBRANCH  13  19
ENDBRANCH   1  17
TORSDOF 4
ENDMDL
MODEL 9
REMARK VINA RESULT:      -7.0      1.789      2.480
REMARK  Name = 
REMARK  5 active torsions:
REMARK  status: ('A' for Active; 'I' for Inactive)
REMARK    1  A    between atoms: C_1  and  C_2
REMARK    2  A    between atoms: C_2  and  C_3
REMARK    3  A    between atoms: N_7  and  S_8
REMARK    4  A    between atoms: S_8  and  C_11
REMARK    5  A    between atoms: C_15  and  N_16
REMARK                            x       y       z     vdW  Elec       q    Type
REMARK                         _______ _______ _______ _____ _____    ______ ____
ROOT
ATOM      1  S   UNL     1       2.993   5.467  18.720  0.00  0.00    +0.000 S 
ATOM      2  O   UNL     1       2.207   5.080  17.568  0.00  0.00    +0.000 OA
ATOM      3  O   UNL     1       2.827   6.744  19.385  0.00  0.00    +0.000 OA
ENDROOT
BRANCH   1   4
ATOM      4  C   UNL     1       4.699   5.341  18.231  0.00  0.00    +0.000 A 
ATOM      5  C   UNL     1       5.676   5.495  19.225  0.00  0.00    +0.000 A 
ATOM      6  C   UNL     1       7.027   5.377  18.899  0.00  0.00    +0.000 A 
ATOM      7  C   UNL     1       7.407   5.097  17.585  0.00  0.00    +0.000 A 
ATOM      8  C   UNL     1       6.423   4.955  16.595  0.00  0.00    +0.000 A 
ATOM      9  C   UNL     1       5.061   5.090  16.907  0.00  0.00    +0.000 A 
BRANCH   8  10
ATOM     10  N   UNL     1       6.824   4.640  15.217  0.00  0.00    +0.000 N 
ATOM     11  O   UNL     1       6.254   3.698  14.651  0.00  0.00    +0.000 OA
ATOM     12  O   UNL     1       7.702   5.346  14.703  0.00  0.00    +0.000 OA
ENDBRANCH   8  10
ENDBRANCH   1   4
BRANCH   1  17
ATOM     13  C   UNL     1       3.180   3.012  19.987  0.00  0.00    +0.000 A 
ATOM     14  N   UNL     1       2.847   2.486  21.156  0.00  0.00    +0.000 NA
ATOM     15  C   UNL     1       2.177   3.462  21.848  0.00  0.00    +0.000 A 
ATOM     16  C   UNL     1       2.112   4.619  21.114  0.00  0.00    +0.000 A 
ATOM     17  N   UNL     1       2.754   4.320  19.937  0.00  0.00    +0.000 N 
BRANCH  13  19
ATOM     18  C   UNL     1       2.936   1.792  17.827  0.00  0.00    +0.000 C 
ATOM     19  C   UNL     1       3.891   2.249  18.918  0.00  0.00    +0.000 C 
ENDBRANCH  13  19
ENDBRANCH   1  17
TORSDOF 4
ENDMDL
