MODEL 1
REMARK VINA RESULT:      -8.3      0.000      0.000
REMARK  Name = 
REMARK  8 active torsions:
REMARK  status: ('A' for Active; 'I' for Inactive)
REMARK    1  A    between atoms: C_1  and  O_2
REMARK    2  A    between atoms: O_2  and  C_3
REMARK    3  A    between atoms: C_3  and  C_5
REMARK    4  A    between atoms: C_6  and  C_7
REMARK    5  A    between atoms: C_11  and  O_12
REMARK    6  A    between atoms: O_12  and  C_13
REMARK    7  A    between atoms: C_13  and  C_14
REMARK    8  A    between atoms: N_26  and  C_27
REMARK                            x       y       z     vdW  Elec       q    Type
REMARK                         _______ _______ _______ _____ _____    ______ ____
ROOT
ATOM      1  C   UNL     1       5.099   5.022  18.147  0.00  0.00    +0.000 A 
ATOM      2  C   UNL     1       6.168   5.508  18.908  0.00  0.00    +0.000 A 
ATOM      3  C   UNL     1       7.233   6.157  18.288  0.00  0.00    +0.000 A 
ATOM      4  C   UNL     1       7.253   6.287  16.900  0.00  0.00    +0.000 A 
ATOM      5  C   UNL     1       6.221   5.748  16.127  0.00  0.00    +0.000 A 
ATOM      6  C   UNL     1       5.124   5.150  16.754  0.00  0.00    +0.000 A 
ENDROOT
BRANCH   1   8
ATOM      7  C   UNL     1       2.854   5.053  19.276  0.00  0.00    +0.000 C 
ATOM      8  C   UNL     1       3.961   4.400  18.839  0.00  0.00    +0.000 C 
ATOM      9  C   UNL     1       4.110   2.905  19.090  0.00  0.00    +0.000 C 
ATOM     10  C   UNL     1       2.854   2.261  19.736  0.00  0.00    +0.000 C 
ATOM     11  C   UNL     1       1.675   2.206  18.750  0.00  0.00    +0.000 C 
ATOM     12  C   UNL     1       0.914   3.516  18.978  0.00  0.00    +0.000 C 
ATOM     13  C   UNL     1       1.766   4.270  20.006  0.00  0.00    +0.000 C 
ATOM     14  N   UNL     1       2.405   3.183  20.798  0.00  0.00    +0.000 NA
ATOM     15  C   UNL     1       1.500   2.558  21.757  0.00  0.00    +0.000 C 
BRANCH   7  16
ATOM     16  C   UNL     1       2.550   6.501  19.110  0.00  0.00    +0.000 C 
ATOM     17  O   UNL     1       2.591   7.069  18.028  0.00  0.00    +0.000 OA
BRANCH  16  19
ATOM     18  C   UNL     1       1.576   8.358  20.175  0.00  0.00    +0.000 C 
ATOM     19  O   UNL     1       2.187   7.075  20.279  0.00  0.00    +0.000 OA
ENDBRANCH  16  19
ENDBRANCH   7  16
ENDBRANCH   1   8
BRANCH   5  20
ATOM     20  O   UNL     1       6.197   5.759  14.756  0.00  0.00    +0.000 OA
BRANCH  20  21
ATOM     21  C   UNL     1       7.180   4.925  14.138  0.00  0.00    +0.000 C 
BRANCH  21  22
ATOM     22  C   UNL     1       6.513   4.041  13.117  0.00  0.00    +0.000 A 
ATOM     23  C   UNL     1       7.272   3.236  12.257  0.00  0.00    +0.000 A 
ATOM     24  C   UNL     1       6.638   2.411  11.328  0.00  0.00    +0.000 A 
ATOM     25  C   UNL     1       5.246   2.386  11.246  0.00  0.00    +0.000 A 
ATOM     26  C   UNL     1       4.484   3.190  12.093  0.00  0.00    +0.000 A 
ATOM     27  C   UNL     1       5.113   4.017  13.020  0.00  0.00    +0.000 A 
ENDBRANCH  21  22
ENDBRANCH  20  21
ENDBRANCH   5  20
TORSDOF 6
ENDMDL
MODEL 2
REMARK VINA RESULT:      -8.2      0.457      1.229
REMARK  Name = 
REMARK  8 active torsions:
REMARK  status: ('A' for Active; 'I' for Inactive)
REMARK    1  A    between atoms: C_1  and  O_2
REMARK    2  A    between atoms: O_2  and  C_3
REMARK    3  A    between atoms: C_3  and  C_5
REMARK    4  A    between atoms: C_6  and  C_7
REMARK    5  A    between atoms: C_11  and  O_12
REMARK    6  A    between atoms: O_12  and  C_13
REMARK    7  A    between atoms: C_13  and  C_14
REMARK    8  A    between atoms: N_26  and  C_27
REMARK                            x       y       z     vdW  Elec       q    Type
REMARK                         _______ _______ _______ _____ _____    ______ ____
ROOT
ATOM      1  C   UNL     1       5.095   5.068  18.224  0.00  0.00    +0.000 A 
ATOM      2  C   UNL     1       6.148   5.577  18.992  0.00  0.00    +0.000 A 
ATOM      3  C   UNL     1       7.208   6.239  18.379  0.00  0.00    +0.000 A 
ATOM      4  C   UNL     1       7.240   6.361  16.991  0.00  0.00    +0.000 A 
ATOM      5  C   UNL     1       6.226   5.799  16.211  0.00  0.00    +0.000 A 
ATOM      6  C   UNL     1       5.133   5.187  16.830  0.00  0.00    +0.000 A 
ENDROOT
BRANCH   1   8
ATOM      7  C   UNL     1       2.856   5.076  19.365  0.00  0.00    +0.000 C 
ATOM      8  C   UNL     1       3.960   4.432  18.907  0.00  0.00    +0.000 C 
ATOM      9  C   UNL     1       4.110   2.931  19.126  0.00  0.00    +0.000 C 
ATOM     10  C   UNL     1       2.856   2.275  19.764  0.00  0.00    +0.000 C 
ATOM     11  C   UNL     1       1.672   2.241  18.784  0.00  0.00    +0.000 C 
ATOM     12  C   UNL     1       0.913   3.546  19.043  0.00  0.00    +0.000 C 
ATOM     13  C   UNL     1       1.771   4.278  20.083  0.00  0.00    +0.000 C 
ATOM     14  N   UNL     1       2.413   3.173  20.848  0.00  0.00    +0.000 NA
ATOM     15  C   UNL     1       1.513   2.529  21.798  0.00  0.00    +0.000 C 
BRANCH   7  16
ATOM     16  C   UNL     1       2.552   6.527  19.231  0.00  0.00    +0.000 C 
ATOM     17  O   UNL     1       2.452   7.277  20.193  0.00  0.00    +0.000 OA
BRANCH  16  19
ATOM     18  C   UNL     1       2.447   8.307  17.697  0.00  0.00    +0.000 C 
ATOM     19  O   UNL     1       2.452   6.902  17.937  0.00  0.00    +0.000 OA
ENDBRANCH  16  19
ENDBRANCH   7  16
ENDBRANCH   1   8
BRANCH   5  20
ATOM     20  O   UNL     1       6.216   5.800  14.840  0.00  0.00    +0.000 OA
BRANCH  20  21
ATOM     21  C   UNL     1       7.174   4.925  14.238  0.00  0.00    +0.000 C 
BRANCH  21  22
ATOM     22  C   UNL     1       6.487   4.063  13.211  0.00  0.00    +0.000 A 
ATOM     23  C   UNL     1       5.089   4.018  13.128  0.00  0.00    +0.000 A 
ATOM     24  C   UNL     1       4.470   3.228  12.160  0.00  0.00    +0.000 A 
ATOM     25  C   UNL     1       5.238   2.474  11.273  0.00  0.00    +0.000 A 
ATOM     26  C   UNL     1       6.629   2.507  11.354  0.00  0.00    +0.000 A 
ATOM     27  C   UNL     1       7.251   3.293  12.321  0.00  0.00    +0.000 A 
ENDBRANCH  21  22
ENDBRANCH  20  21
ENDBRANCH   5  20
TORSDOF 6
ENDMDL
MODEL 3
REMARK VINA RESULT:      -7.7      3.427      7.854
REMARK  Name = 
REMARK  8 active torsions:
REMARK  status: ('A' for Active; 'I' for Inactive)
REMARK    1  A    between atoms: C_1  and  O_2
REMARK    2  A    between atoms: O_2  and  C_3
REMARK    3  A    between atoms: C_3  and  C_5
REMARK    4  A    between atoms: C_6  and  C_7
REMARK    5  A    between atoms: C_11  and  O_12
REMARK    6  A    between atoms: O_12  and  C_13
REMARK    7  A    between atoms: C_13  and  C_14
REMARK    8  A    between atoms: N_26  and  C_27
REMARK                            x       y       z     vdW  Elec       q    Type
REMARK                         _______ _______ _______ _____ _____    ______ ____
ROOT
ATOM      1  C   UNL     1       2.826   7.285  18.621  0.00  0.00    +0.000 A 
ATOM      2  C   UNL     1       2.518   6.997  19.956  0.00  0.00    +0.000 A 
ATOM      3  C   UNL     1       1.532   7.721  20.621  0.00  0.00    +0.000 A 
ATOM      4  C   UNL     1       0.876   8.762  19.967  0.00  0.00    +0.000 A 
ATOM      5  C   UNL     1       1.222   9.100  18.656  0.00  0.00    +0.000 A 
ATOM      6  C   UNL     1       2.169   8.335  17.969  0.00  0.00    +0.000 A 
ENDROOT
BRANCH   1   8
ATOM      7  C   UNL     1       3.727   5.124  17.710  0.00  0.00    +0.000 C 
ATOM      8  C   UNL     1       3.826   6.460  17.929  0.00  0.00    +0.000 C 
ATOM      9  C   UNL     1       5.070   7.214  17.478  0.00  0.00    +0.000 C 
ATOM     10  C   UNL     1       6.062   6.336  16.669  0.00  0.00    +0.000 C 
ATOM     11  C   UNL     1       5.502   5.979  15.282  0.00  0.00    +0.000 C 
ATOM     12  C   UNL     1       4.762   4.654  15.490  0.00  0.00    +0.000 C 
ATOM     13  C   UNL     1       4.867   4.399  16.999  0.00  0.00    +0.000 C 
ATOM     14  N   UNL     1       6.156   5.044  17.375  0.00  0.00    +0.000 NA
ATOM     15  C   UNL     1       7.326   4.262  16.991  0.00  0.00    +0.000 C 
BRANCH   7  16
ATOM     16  C   UNL     1       2.586   4.242  18.080  0.00  0.00    +0.000 C 
ATOM     17  O   UNL     1       1.562   4.167  17.416  0.00  0.00    +0.000 OA
BRANCH  16  19
ATOM     18  C   UNL     1       2.790   2.104  19.040  0.00  0.00    +0.000 C 
ATOM     19  O   UNL     1       2.849   3.520  19.192  0.00  0.00    +0.000 OA
ENDBRANCH  16  19
ENDBRANCH   7  16
ENDBRANCH   1   8
BRANCH   5  20
ATOM     20  O   UNL     1       0.688  10.157  17.964  0.00  0.00    +0.000 OA
BRANCH  20  21
ATOM     21  C   UNL     1      -0.201  10.977  18.727  0.00  0.00    +0.000 C 
BRANCH  21  22
ATOM     22  C   UNL     1      -1.585  10.891  18.140  0.00  0.00    +0.000 A 
ATOM     23  C   UNL     1      -1.867  10.016  17.083  0.00  0.00    +0.000 A 
ATOM     24  C   UNL     1      -3.158   9.937  16.564  0.00  0.00    +0.000 A 
ATOM     25  C   UNL     1      -4.176  10.732  17.089  0.00  0.00    +0.000 A 
ATOM     26  C   UNL     1      -3.903  11.612  18.136  0.00  0.00    +0.000 A 
ATOM     27  C   UNL     1      -2.614  11.695  18.656  0.00  0.00    +0.000 A 
ENDBRANCH  21  22
ENDBRANCH  20  21
ENDBRANCH   5  20
TORSDOF 6
ENDMDL
MODEL 4
REMARK VINA RESULT:      -7.6      3.395      7.821
REMARK  Name = 
REMARK  8 active torsions:
REMARK  status: ('A' for Active; 'I' for Inactive)
REMARK    1  A    between atoms: C_1  and  O_2
REMARK    2  A    between atoms: O_2  and  C_3
REMARK    3  A    between atoms: C_3  and  C_5
REMARK    4  A    between atoms: C_6  and  C_7
REMARK    5  A    between atoms: C_11  and  O_12
REMARK    6  A    between atoms: O_12  and  C_13
REMARK    7  A    between atoms: C_13  and  C_14
REMARK    8  A    between atoms: N_26  and  C_27
REMARK                            x       y       z     vdW  Elec       q    Type
REMARK                         _______ _______ _______ _____ _____    ______ ____
ROOT
ATOM      1  C   UNL     1       2.812   7.225  18.830  0.00  0.00    +0.000 A 
ATOM      2  C   UNL     1       2.467   6.989  20.165  0.00  0.00    +0.000 A 
ATOM      3  C   UNL     1       1.456   7.731  20.771  0.00  0.00    +0.000 A 
ATOM      4  C   UNL     1       0.812   8.739  20.056  0.00  0.00    +0.000 A 
ATOM      5  C   UNL     1       1.194   9.025  18.742  0.00  0.00    +0.000 A 
ATOM      6  C   UNL     1       2.167   8.242  18.116  0.00  0.00    +0.000 A 
ENDROOT
BRANCH   1   8
ATOM      7  C   UNL     1       3.912   5.030  18.299  0.00  0.00    +0.000 C 
ATOM      8  C   UNL     1       3.839   6.382  18.202  0.00  0.00    +0.000 C 
ATOM      9  C   UNL     1       4.902   7.147  17.425  0.00  0.00    +0.000 C 
ATOM     10  C   UNL     1       5.916   6.224  16.697  0.00  0.00    +0.000 C 
ATOM     11  C   UNL     1       5.264   5.485  15.517  0.00  0.00    +0.000 C 
ATOM     12  C   UNL     1       4.752   4.170  16.113  0.00  0.00    +0.000 C 
ATOM     13  C   UNL     1       5.060   4.294  17.611  0.00  0.00    +0.000 C 
ATOM     14  N   UNL     1       6.274   5.155  17.649  0.00  0.00    +0.000 NA
ATOM     15  C   UNL     1       7.496   4.447  17.286  0.00  0.00    +0.000 C 
BRANCH   7  16
ATOM     16  C   UNL     1       2.960   4.134  19.011  0.00  0.00    +0.000 C 
ATOM     17  O   UNL     1       3.200   3.645  20.106  0.00  0.00    +0.000 OA
BRANCH  16  19
ATOM     18  C   UNL     1       1.080   2.783  18.593  0.00  0.00    +0.000 C 
ATOM     19  O   UNL     1       1.807   3.978  18.323  0.00  0.00    +0.000 OA
ENDBRANCH  16  19
ENDBRANCH   7  16
ENDBRANCH   1   8
BRANCH   5  20
ATOM     20  O   UNL     1       0.672  10.048  17.992  0.00  0.00    +0.000 OA
BRANCH  20  21
ATOM     21  C   UNL     1      -0.205  10.921  18.708  0.00  0.00    +0.000 C 
BRANCH  21  22
ATOM     22  C   UNL     1      -1.582  10.852  18.101  0.00  0.00    +0.000 A 
ATOM     23  C   UNL     1      -2.617  11.673  18.568  0.00  0.00    +0.000 A 
ATOM     24  C   UNL     1      -3.881  11.609  17.983  0.00  0.00    +0.000 A 
ATOM     25  C   UNL     1      -4.124  10.723  16.934  0.00  0.00    +0.000 A 
ATOM     26  C   UNL     1      -3.102   9.896  16.468  0.00  0.00    +0.000 A 
ATOM     27  C   UNL     1      -1.839   9.957  17.051  0.00  0.00    +0.000 A 
ENDBRANCH  21  22
ENDBRANCH  20  21
ENDBRANCH   5  20
TORSDOF 6
ENDMDL
MODEL 5
REMARK VINA RESULT:      -7.6      2.831      5.573
REMARK  Name = 
REMARK  8 active torsions:
REMARK  status: ('A' for Active; 'I' for Inactive)
REMARK    1  A    between atoms: C_1  and  O_2
REMARK    2  A    between atoms: O_2  and  C_3
REMARK    3  A    between atoms: C_3  and  C_5
REMARK    4  A    between atoms: C_6  and  C_7
REMARK    5  A    between atoms: C_11  and  O_12
REMARK    6  A    between atoms: O_12  and  C_13
REMARK    7  A    between atoms: C_13  and  C_14
REMARK    8  A    between atoms: N_26  and  C_27
REMARK                            x       y       z     vdW  Elec       q    Type
REMARK                         _______ _______ _______ _____ _____    ______ ____
ROOT
ATOM      1  C   UNL     1       5.342   5.264  17.883  0.00  0.00    +0.000 A 
ATOM      2  C   UNL     1       5.534   4.871  16.554  0.00  0.00    +0.000 A 
ATOM      3  C   UNL     1       6.608   5.372  15.823  0.00  0.00    +0.000 A 
ATOM      4  C   UNL     1       7.472   6.298  16.404  0.00  0.00    +0.000 A 
ATOM      5  C   UNL     1       7.251   6.744  17.710  0.00  0.00    +0.000 A 
ATOM      6  C   UNL     1       6.209   6.197  18.463  0.00  0.00    +0.000 A 
ENDROOT
BRANCH   1   8
ATOM      7  C   UNL     1       3.131   5.328  19.076  0.00  0.00    +0.000 C 
ATOM      8  C   UNL     1       4.237   4.667  18.647  0.00  0.00    +0.000 C 
ATOM      9  C   UNL     1       4.422   3.194  18.989  0.00  0.00    +0.000 C 
ATOM     10  C   UNL     1       3.197   2.572  19.712  0.00  0.00    +0.000 C 
ATOM     11  C   UNL     1       1.992   2.434  18.768  0.00  0.00    +0.000 C 
ATOM     12  C   UNL     1       1.213   3.742  18.935  0.00  0.00    +0.000 C 
ATOM     13  C   UNL     1       2.080   4.576  19.887  0.00  0.00    +0.000 C 
ATOM     14  N   UNL     1       2.763   3.552  20.727  0.00  0.00    +0.000 NA
ATOM     15  C   UNL     1       1.898   2.975  21.750  0.00  0.00    +0.000 C 
BRANCH   7  16
ATOM     16  C   UNL     1       2.795   6.758  18.827  0.00  0.00    +0.000 C 
ATOM     17  O   UNL     1       2.932   7.292  17.736  0.00  0.00    +0.000 OA
BRANCH  16  19
ATOM     18  C   UNL     1       1.626   8.596  19.714  0.00  0.00    +0.000 C 
ATOM     19  O   UNL     1       2.288   7.353  19.930  0.00  0.00    +0.000 OA
ENDBRANCH  16  19
ENDBRANCH   7  16
ENDBRANCH   1   8
BRANCH   5  20
ATOM     20  O   UNL     1       8.000   7.709  18.333  0.00  0.00    +0.000 OA
BRANCH  20  21
ATOM     21  C   UNL     1       7.943   8.997  17.714  0.00  0.00    +0.000 C 
BRANCH  21  22
ATOM     22  C   UNL     1       8.884   9.934  18.424  0.00  0.00    +0.000 A 
ATOM     23  C   UNL     1       8.936   9.979  19.823  0.00  0.00    +0.000 A 
ATOM     24  C   UNL     1       9.825  10.840  20.465  0.00  0.00    +0.000 A 
ATOM     25  C   UNL     1      10.664  11.666  19.718  0.00  0.00    +0.000 A 
ATOM     26  C   UNL     1      10.613  11.634  18.325  0.00  0.00    +0.000 A 
ATOM     27  C   UNL     1       9.725  10.777  17.681  0.00  0.00    +0.000 A 
ENDBRANCH  21  22
ENDBRANCH  20  21
ENDBRANCH   5  20
TORSDOF 6
ENDMDL
MODEL 6
REMARK VINA RESULT:      -7.5      2.925      8.615
REMARK  Name = 
REMARK  8 active torsions:
REMARK  status: ('A' for Active; 'I' for Inactive)
REMARK    1  A    between atoms: C_1  and  O_2
REMARK    2  A    between atoms: O_2  and  C_3
REMARK    3  A    between atoms: C_3  and  C_5
REMARK    4  A    between atoms: C_6  and  C_7
REMARK    5  A    between atoms: C_11  and  O_12
REMARK    6  A    between atoms: O_12  and  C_13
REMARK    7  A    between atoms: C_13  and  C_14
REMARK    8  A    between atoms: N_26  and  C_27
REMARK                            x       y       z     vdW  Elec       q    Type
REMARK                         _______ _______ _______ _____ _____    ______ ____
ROOT
ATOM      1  C   UNL     1       2.749   7.522  18.387  0.00  0.00    +0.000 A 
ATOM      2  C   UNL     1       2.251   8.444  17.460  0.00  0.00    +0.000 A 
ATOM      3  C   UNL     1       1.299   9.383  17.847  0.00  0.00    +0.000 A 
ATOM      4  C   UNL     1       0.811   9.380  19.152  0.00  0.00    +0.000 A 
ATOM      5  C   UNL     1       1.255   8.421  20.067  0.00  0.00    +0.000 A 
ATOM      6  C   UNL     1       2.253   7.517  19.696  0.00  0.00    +0.000 A 
ENDROOT
BRANCH   1   8
ATOM      7  C   UNL     1       3.821   5.254  18.230  0.00  0.00    +0.000 C 
ATOM      8  C   UNL     1       3.800   6.585  17.963  0.00  0.00    +0.000 C 
ATOM      9  C   UNL     1       4.951   7.226  17.197  0.00  0.00    +0.000 C 
ATOM     10  C   UNL     1       5.995   6.198  16.683  0.00  0.00    +0.000 C 
ATOM     11  C   UNL     1       5.425   5.332  15.547  0.00  0.00    +0.000 C 
ATOM     12  C   UNL     1       4.821   4.113  16.251  0.00  0.00    +0.000 C 
ATOM     13  C   UNL     1       5.000   4.415  17.744  0.00  0.00    +0.000 C 
ATOM     14  N   UNL     1       6.234   5.249  17.788  0.00  0.00    +0.000 NA
ATOM     15  C   UNL     1       7.460   4.475  17.626  0.00  0.00    +0.000 C 
BRANCH   7  16
ATOM     16  C   UNL     1       2.782   4.474  18.956  0.00  0.00    +0.000 C 
ATOM     17  O   UNL     1       1.734   4.117  18.436  0.00  0.00    +0.000 OA
BRANCH  16  19
ATOM     18  C   UNL     1       2.109   3.987  21.157  0.00  0.00    +0.000 C 
ATOM     19  O   UNL     1       3.164   4.183  20.219  0.00  0.00    +0.000 OA
ENDBRANCH  16  19
ENDBRANCH   7  16
ENDBRANCH   1   8
BRANCH   5  20
ATOM     20  O   UNL     1       0.773   8.292  21.345  0.00  0.00    +0.000 OA
BRANCH  20  21
ATOM     21  C   UNL     1       1.241   9.287  22.259  0.00  0.00    +0.000 C 
BRANCH  21  22
ATOM     22  C   UNL     1       0.228  10.399  22.348  0.00  0.00    +0.000 A 
ATOM     23  C   UNL     1      -0.914  10.270  23.148  0.00  0.00    +0.000 A 
ATOM     24  C   UNL     1      -1.833  11.316  23.232  0.00  0.00    +0.000 A 
ATOM     25  C   UNL     1      -1.622  12.494  22.515  0.00  0.00    +0.000 A 
ATOM     26  C   UNL     1      -0.492  12.627  21.710  0.00  0.00    +0.000 A 
ATOM     27  C   UNL     1       0.426  11.584  21.622  0.00  0.00    +0.000 A 
ENDBRANCH  21  22
ENDBRANCH  20  21
ENDBRANCH   5  20
TORSDOF 6
ENDMDL
MODEL 7
REMARK VINA RESULT:      -7.3      3.567      7.705
REMARK  Name = 
REMARK  8 active torsions:
REMARK  status: ('A' for Active; 'I' for Inactive)
REMARK    1  A    between atoms: C_1  and  O_2
REMARK    2  A    between atoms: O_2  and  C_3
REMARK    3  A    between atoms: C_3  and  C_5
REMARK    4  A    between atoms: C_6  and  C_7
REMARK    5  A    between atoms: C_11  and  O_12
REMARK    6  A    between atoms: O_12  and  C_13
REMARK    7  A    between atoms: C_13  and  C_14
REMARK    8  A    between atoms: N_26  and  C_27
REMARK                            x       y       z     vdW  Elec       q    Type
REMARK                         _______ _______ _______ _____ _____    ______ ____
ROOT
ATOM      1  C   UNL     1       2.406   7.538  19.189  0.00  0.00    +0.000 A 
ATOM      2  C   UNL     1       2.065   7.382  20.537  0.00  0.00    +0.000 A 
ATOM      3  C   UNL     1       1.073   8.177  21.106  0.00  0.00    +0.000 A 
ATOM      4  C   UNL     1       0.446   9.158  20.342  0.00  0.00    +0.000 A 
ATOM      5  C   UNL     1       0.825   9.365  19.012  0.00  0.00    +0.000 A 
ATOM      6  C   UNL     1       1.778   8.528  18.425  0.00  0.00    +0.000 A 
ENDROOT
BRANCH   1   8
ATOM      7  C   UNL     1       3.428   5.289  18.731  0.00  0.00    +0.000 C 
ATOM      8  C   UNL     1       3.411   6.640  18.602  0.00  0.00    +0.000 C 
ATOM      9  C   UNL     1       4.520   7.345  17.831  0.00  0.00    +0.000 C 
ATOM     10  C   UNL     1       5.510   6.365  17.145  0.00  0.00    +0.000 C 
ATOM     11  C   UNL     1       4.853   5.626  15.968  0.00  0.00    +0.000 C 
ATOM     12  C   UNL     1       4.277   4.347  16.584  0.00  0.00    +0.000 C 
ATOM     13  C   UNL     1       4.559   4.493  18.084  0.00  0.00    +0.000 C 
ATOM     14  N   UNL     1       5.806   5.306  18.129  0.00  0.00    +0.000 NA
ATOM     15  C   UNL     1       7.006   4.541  17.808  0.00  0.00    +0.000 C 
BRANCH   7  16
ATOM     16  C   UNL     1       2.426   4.449  19.442  0.00  0.00    +0.000 C 
ATOM     17  O   UNL     1       1.372   4.097  18.933  0.00  0.00    +0.000 OA
BRANCH  16  19
ATOM     18  C   UNL     1       2.183   2.988  21.270  0.00  0.00    +0.000 C 
ATOM     19  O   UNL     1       2.851   4.098  20.676  0.00  0.00    +0.000 OA
ENDBRANCH  16  19
ENDBRANCH   7  16
ENDBRANCH   1   8
BRANCH   5  20
ATOM     20  O   UNL     1       0.321  10.357  18.211  0.00  0.00    +0.000 OA
BRANCH  20  21
ATOM     21  C   UNL     1      -0.872  10.971  18.706  0.00  0.00    +0.000 C 
BRANCH  21  22
ATOM     22  C   UNL     1      -1.970  10.821  17.686  0.00  0.00    +0.000 A 
ATOM     23  C   UNL     1      -1.857   9.901  16.636  0.00  0.00    +0.000 A 
ATOM     24  C   UNL     1      -2.891   9.762  15.711  0.00  0.00    +0.000 A 
ATOM     25  C   UNL     1      -4.041  10.544  15.821  0.00  0.00    +0.000 A 
ATOM     26  C   UNL     1      -4.158  11.468  16.858  0.00  0.00    +0.000 A 
ATOM     27  C   UNL     1      -3.127  11.610  17.783  0.00  0.00    +0.000 A 
ENDBRANCH  21  22
ENDBRANCH  20  21
ENDBRANCH   5  20
TORSDOF 6
ENDMDL
MODEL 8
REMARK VINA RESULT:      -7.3      3.137      7.810
REMARK  Name = 
REMARK  8 active torsions:
REMARK  status: ('A' for Active; 'I' for Inactive)
REMARK    1  A    between atoms: C_1  and  O_2
REMARK    2  A    between atoms: O_2  and  C_3
REMARK    3  A    between atoms: C_3  and  C_5
REMARK    4  A    between atoms: C_6  and  C_7
REMARK    5  A    between atoms: C_11  and  O_12
REMARK    6  A    between atoms: O_12  and  C_13
REMARK    7  A    between atoms: C_13  and  C_14
REMARK    8  A    between atoms: N_26  and  C_27
REMARK                            x       y       z     vdW  Elec       q    Type
REMARK                         _______ _______ _______ _____ _____    ______ ____
ROOT
ATOM      1  C   UNL     1       2.934   6.500  19.007  0.00  0.00    +0.000 A 
ATOM      2  C   UNL     1       2.479   5.737  20.088  0.00  0.00    +0.000 A 
ATOM      3  C   UNL     1       1.493   6.237  20.935  0.00  0.00    +0.000 A 
ATOM      4  C   UNL     1       0.986   7.518  20.729  0.00  0.00    +0.000 A 
ATOM      5  C   UNL     1       1.480   8.313  19.691  0.00  0.00    +0.000 A 
ATOM      6  C   UNL     1       2.426   7.789  18.806  0.00  0.00    +0.000 A 
ENDROOT
BRANCH   1   8
ATOM      7  C   UNL     1       3.926   4.639  17.642  0.00  0.00    +0.000 C 
ATOM      8  C   UNL     1       3.929   5.918  18.095  0.00  0.00    +0.000 C 
ATOM      9  C   UNL     1       5.052   6.865  17.691  0.00  0.00    +0.000 C 
ATOM     10  C   UNL     1       6.031   6.250  16.655  0.00  0.00    +0.000 C 
ATOM     11  C   UNL     1       5.370   6.086  15.277  0.00  0.00    +0.000 C 
ATOM     12  C   UNL     1       4.772   4.676  15.297  0.00  0.00    +0.000 C 
ATOM     13  C   UNL     1       5.048   4.172  16.718  0.00  0.00    +0.000 C 
ATOM     14  N   UNL     1       6.307   4.871  17.100  0.00  0.00    +0.000 NA
ATOM     15  C   UNL     1       7.497   4.294  16.484  0.00  0.00    +0.000 C 
BRANCH   7  16
ATOM     16  C   UNL     1       2.908   3.592  17.935  0.00  0.00    +0.000 C 
ATOM     17  O   UNL     1       1.847   3.510  17.332  0.00  0.00    +0.000 OA
BRANCH  16  19
ATOM     18  C   UNL     1       3.556   1.398  18.480  0.00  0.00    +0.000 C 
ATOM     19  O   UNL     1       3.326   2.741  18.898  0.00  0.00    +0.000 OA
ENDBRANCH  16  19
ENDBRANCH   7  16
ENDBRANCH   1   8
BRANCH   5  20
ATOM     20  O   UNL     1       1.099   9.610  19.463  0.00  0.00    +0.000 OA
BRANCH  20  21
ATOM     21  C   UNL     1       0.654   9.873  18.129  0.00  0.00    +0.000 C 
BRANCH  21  22
ATOM     22  C   UNL     1      -0.765  10.376  18.166  0.00  0.00    +0.000 A 
ATOM     23  C   UNL     1      -1.162  11.345  19.098  0.00  0.00    +0.000 A 
ATOM     24  C   UNL     1      -2.475  11.812  19.107  0.00  0.00    +0.000 A 
ATOM     25  C   UNL     1      -3.404  11.314  18.193  0.00  0.00    +0.000 A 
ATOM     26  C   UNL     1      -3.019  10.344  17.268  0.00  0.00    +0.000 A 
ATOM     27  C   UNL     1      -1.709   9.874  17.257  0.00  0.00    +0.000 A 
ENDBRANCH  21  22
ENDBRANCH  20  21
ENDBRANCH   5  20
TORSDOF 6
ENDMDL
MODEL 9
REMARK VINA RESULT:      -7.2      2.682      5.386
REMARK  Name = 
REMARK  8 active torsions:
REMARK  status: ('A' for Active; 'I' for Inactive)
REMARK    1  A    between atoms: C_1  and  O_2
REMARK    2  A    between atoms: O_2  and  C_3
REMARK    3  A    between atoms: C_3  and  C_5
REMARK    4  A    between atoms: C_6  and  C_7
REMARK    5  A    between atoms: C_11  and  O_12
REMARK    6  A    between atoms: O_12  and  C_13
REMARK    7  A    between atoms: C_13  and  C_14
REMARK    8  A    between atoms: N_26  and  C_27
REMARK                            x       y       z     vdW  Elec       q    Type
REMARK                         _______ _______ _______ _____ _____    ______ ____
ROOT
ATOM      1  C   UNL     1       4.848   5.054  17.795  0.00  0.00    +0.000 A 
ATOM      2  C   UNL     1       5.272   4.407  16.629  0.00  0.00    +0.000 A 
ATOM      3  C   UNL     1       6.291   4.954  15.853  0.00  0.00    +0.000 A 
ATOM      4  C   UNL     1       6.863   6.172  16.218  0.00  0.00    +0.000 A 
ATOM      5  C   UNL     1       6.401   6.857  17.345  0.00  0.00    +0.000 A 
ATOM      6  C   UNL     1       5.421   6.279  18.156  0.00  0.00    +0.000 A 
ENDROOT
BRANCH   1   8
ATOM      7  C   UNL     1       2.786   5.062  19.230  0.00  0.00    +0.000 C 
ATOM      8  C   UNL     1       3.815   4.417  18.625  0.00  0.00    +0.000 C 
ATOM      9  C   UNL     1       3.990   2.916  18.816  0.00  0.00    +0.000 C 
ATOM     10  C   UNL     1       2.833   2.260  19.617  0.00  0.00    +0.000 C 
ATOM     11  C   UNL     1       1.527   2.232  18.807  0.00  0.00    +0.000 C 
ATOM     12  C   UNL     1       0.814   3.537  19.172  0.00  0.00    +0.000 C 
ATOM     13  C   UNL     1       1.807   4.264  20.087  0.00  0.00    +0.000 C 
ATOM     14  N   UNL     1       2.545   3.155  20.754  0.00  0.00    +0.000 NA
ATOM     15  C   UNL     1       1.781   2.509  21.816  0.00  0.00    +0.000 C 
BRANCH   7  16
ATOM     16  C   UNL     1       2.470   6.515  19.144  0.00  0.00    +0.000 C 
ATOM     17  O   UNL     1       2.501   7.260  20.113  0.00  0.00    +0.000 OA
BRANCH  16  19
ATOM     18  C   UNL     1       2.284   8.294  17.617  0.00  0.00    +0.000 C 
ATOM     19  O   UNL     1       2.199   6.895  17.876  0.00  0.00    +0.000 OA
ENDBRANCH  16  19
ENDBRANCH   7  16
ENDBRANCH   1   8
BRANCH   5  20
ATOM     20  O   UNL     1       6.848   8.094  17.733  0.00  0.00    +0.000 OA
BRANCH  20  21
ATOM     21  C   UNL     1       8.247   8.156  18.025  0.00  0.00    +0.000 C 
BRANCH  21  22
ATOM     22  C   UNL     1       8.624   9.574  18.363  0.00  0.00    +0.000 A 
ATOM     23  C   UNL     1       8.316  10.628  17.493  0.00  0.00    +0.000 A 
ATOM     24  C   UNL     1       8.657  11.937  17.829  0.00  0.00    +0.000 A 
ATOM     25  C   UNL     1       9.313  12.205  19.031  0.00  0.00    +0.000 A 
ATOM     26  C   UNL     1       9.631  11.161  19.899  0.00  0.00    +0.000 A 
ATOM     27  C   UNL     1       9.294   9.852  19.565  0.00  0.00    +0.000 A 
ENDBRANCH  21  22
ENDBRANCH  20  21
ENDBRANCH   5  20
TORSDOF 6
ENDMDL
