MODEL 1
REMARK VINA RESULT:      -6.4      0.000      0.000
REMARK  Name = 
REMARK  4 active torsions:
REMARK  status: ('A' for Active; 'I' for Inactive)
REMARK    1  A    between atoms: C_1  and  O_2
REMARK    2  A    between atoms: O_2  and  C_3
REMARK    3  A    between atoms: C_8  and  O_9
REMARK    4  A    between atoms: C_13  and  C_14
REMARK                            x       y       z     vdW  Elec       q    Type
REMARK                         _______ _______ _______ _____ _____    ______ ____
ROOT
ATOM      1  C   UNL     1       3.430   4.097  19.132  0.00  0.00    +0.000 A 
ATOM      2  C   UNL     1       4.803   4.349  19.166  0.00  0.00    +0.000 A 
ATOM      3  C   UNL     1       5.574   4.356  17.991  0.00  0.00    +0.000 A 
ATOM      4  C   UNL     1       4.948   4.093  16.759  0.00  0.00    +0.000 A 
ATOM      5  C   UNL     1       3.574   3.819  16.721  0.00  0.00    +0.000 A 
ATOM      6  C   UNL     1       2.827   3.823  17.898  0.00  0.00    +0.000 A 
ATOM      7  C   UNL     1       5.771   4.011  15.498  0.00  0.00    +0.000 C 
ATOM      8  C   UNL     1       7.147   4.665  15.645  0.00  0.00    +0.000 C 
ATOM      9  N   UNL     1       7.810   4.248  16.881  0.00  0.00    +0.000 NA
ATOM     10  C   UNL     1       7.058   4.670  18.074  0.00  0.00    +0.000 C 
ATOM     11  C   UNL     1       7.289   6.155  18.386  0.00  0.00    +0.000 C 
ATOM     12  H   UNL     1       8.749   4.639  16.918  0.00  0.00    +0.000 HD
ENDROOT
BRANCH   1  14
ATOM     13  C   UNL     1       2.748   2.874  21.036  0.00  0.00    +0.000 C 
ATOM     14  O   UNL     1       2.633   4.052  20.245  0.00  0.00    +0.000 OA
ENDBRANCH   1  14
BRANCH   6  15
ATOM     15  O   UNL     1       1.483   3.565  17.854  0.00  0.00    +0.000 OA
ATOM     16  H   UNL     1       1.131   3.569  18.759  0.00  0.00    +0.000 HD
ENDBRANCH   6  15
TORSDOF 2
ENDMDL
MODEL 2
REMARK VINA RESULT:      -6.2      3.351      4.816
REMARK  Name = 
REMARK  4 active torsions:
REMARK  status: ('A' for Active; 'I' for Inactive)
REMARK    1  A    between atoms: C_1  and  O_2
REMARK    2  A    between atoms: O_2  and  C_3
REMARK    3  A    between atoms: C_8  and  O_9
REMARK    4  A    between atoms: C_13  and  C_14
REMARK                            x       y       z     vdW  Elec       q    Type
REMARK                         _______ _______ _______ _____ _____    ______ ____
ROOT
ATOM      1  C   UNL     1       6.022   6.295  16.793  0.00  0.00    +0.000 A 
ATOM      2  C   UNL     1       4.761   6.525  17.348  0.00  0.00    +0.000 A 
ATOM      3  C   UNL     1       3.830   5.484  17.505  0.00  0.00    +0.000 A 
ATOM      4  C   UNL     1       4.176   4.187  17.084  0.00  0.00    +0.000 A 
ATOM      5  C   UNL     1       5.432   3.954  16.507  0.00  0.00    +0.000 A 
ATOM      6  C   UNL     1       6.342   5.001  16.366  0.00  0.00    +0.000 A 
ATOM      7  C   UNL     1       3.162   3.074  17.164  0.00  0.00    +0.000 C 
ATOM      8  C   UNL     1       2.004   3.393  18.113  0.00  0.00    +0.000 C 
ATOM      9  N   UNL     1       1.475   4.738  17.880  0.00  0.00    +0.000 NA
ATOM     10  C   UNL     1       2.485   5.776  18.146  0.00  0.00    +0.000 C 
ATOM     11  C   UNL     1       2.638   6.037  19.651  0.00  0.00    +0.000 C 
ATOM     12  H   UNL     1       0.664   4.896  18.473  0.00  0.00    +0.000 HD
ENDROOT
BRANCH   1  14
ATOM     13  C   UNL     1       7.698   7.664  17.745  0.00  0.00    +0.000 C 
ATOM     14  O   UNL     1       6.959   7.273  16.592  0.00  0.00    +0.000 OA
ENDBRANCH   1  14
BRANCH   6  15
ATOM     15  O   UNL     1       7.572   4.765  15.811  0.00  0.00    +0.000 OA
ATOM     16  H   UNL     1       7.450   4.372  14.931  0.00  0.00    +0.000 HD
ENDBRANCH   6  15
TORSDOF 2
ENDMDL
MODEL 3
REMARK VINA RESULT:      -6.1      1.112      1.310
REMARK  Name = 
REMARK  4 active torsions:
REMARK  status: ('A' for Active; 'I' for Inactive)
REMARK    1  A    between atoms: C_1  and  O_2
REMARK    2  A    between atoms: O_2  and  C_3
REMARK    3  A    between atoms: C_8  and  O_9
REMARK    4  A    between atoms: C_13  and  C_14
REMARK                            x       y       z     vdW  Elec       q    Type
REMARK                         _______ _______ _______ _____ _____    ______ ____
ROOT
ATOM      1  C   UNL     1       3.403   5.153  19.103  0.00  0.00    +0.000 A 
ATOM      2  C   UNL     1       4.786   5.345  19.094  0.00  0.00    +0.000 A 
ATOM      3  C   UNL     1       5.574   4.934  18.006  0.00  0.00    +0.000 A 
ATOM      4  C   UNL     1       4.955   4.307  16.909  0.00  0.00    +0.000 A 
ATOM      5  C   UNL     1       3.569   4.092  16.923  0.00  0.00    +0.000 A 
ATOM      6  C   UNL     1       2.806   4.513  18.010  0.00  0.00    +0.000 A 
ATOM      7  C   UNL     1       5.791   3.782  15.770  0.00  0.00    +0.000 C 
ATOM      8  C   UNL     1       7.195   4.391  15.737  0.00  0.00    +0.000 C 
ATOM      9  N   UNL     1       7.819   4.377  17.061  0.00  0.00    +0.000 NA
ATOM     10  C   UNL     1       7.069   5.198  18.026  0.00  0.00    +0.000 C 
ATOM     11  C   UNL     1       7.368   6.692  17.841  0.00  0.00    +0.000 C 
ATOM     12  H   UNL     1       8.774   4.720  16.995  0.00  0.00    +0.000 HD
ENDROOT
BRANCH   1  14
ATOM     13  C   UNL     1       2.164   6.867  20.159  0.00  0.00    +0.000 C 
ATOM     14  O   UNL     1       2.587   5.508  20.145  0.00  0.00    +0.000 OA
ENDBRANCH   1  14
BRANCH   6  15
ATOM     15  O   UNL     1       1.452   4.310  18.012  0.00  0.00    +0.000 OA
ATOM     16  H   UNL     1       1.223   3.717  18.747  0.00  0.00    +0.000 HD
ENDBRANCH   6  15
TORSDOF 2
ENDMDL
MODEL 4
REMARK VINA RESULT:      -6.1      2.058      2.429
REMARK  Name = 
REMARK  4 active torsions:
REMARK  status: ('A' for Active; 'I' for Inactive)
REMARK    1  A    between atoms: C_1  and  O_2
REMARK    2  A    between atoms: O_2  and  C_3
REMARK    3  A    between atoms: C_8  and  O_9
REMARK    4  A    between atoms: C_13  and  C_14
REMARK                            x       y       z     vdW  Elec       q    Type
REMARK                         _______ _______ _______ _____ _____    ______ ____
ROOT
ATOM      1  C   UNL     1       1.826   3.721  19.338  0.00  0.00    +0.000 A 
ATOM      2  C   UNL     1       2.470   4.957  19.263  0.00  0.00    +0.000 A 
ATOM      3  C   UNL     1       3.410   5.231  18.254  0.00  0.00    +0.000 A 
ATOM      4  C   UNL     1       3.713   4.234  17.310  0.00  0.00    +0.000 A 
ATOM      5  C   UNL     1       3.085   2.983  17.394  0.00  0.00    +0.000 A 
ATOM      6  C   UNL     1       2.152   2.734  18.399  0.00  0.00    +0.000 A 
ATOM      7  C   UNL     1       4.780   4.477  16.273  0.00  0.00    +0.000 C 
ATOM      8  C   UNL     1       5.105   5.961  16.094  0.00  0.00    +0.000 C 
ATOM      9  N   UNL     1       5.288   6.631  17.383  0.00  0.00    +0.000 NA
ATOM     10  C   UNL     1       4.058   6.603  18.192  0.00  0.00    +0.000 C 
ATOM     11  C   UNL     1       3.054   7.665  17.721  0.00  0.00    +0.000 C 
ATOM     12  H   UNL     1       5.572   7.596  17.233  0.00  0.00    +0.000 HD
ENDROOT
BRANCH   1  14
ATOM     13  C   UNL     1       1.481   2.980  21.556  0.00  0.00    +0.000 C 
ATOM     14  O   UNL     1       0.922   3.387  20.312  0.00  0.00    +0.000 OA
ENDBRANCH   1  14
BRANCH   6  15
ATOM     15  O   UNL     1       1.534   1.514  18.469  0.00  0.00    +0.000 OA
ATOM     16  H   UNL     1       1.900   0.936  17.781  0.00  0.00    +0.000 HD
ENDBRANCH   6  15
TORSDOF 2
ENDMDL
MODEL 5
REMARK VINA RESULT:      -6.0      3.351      4.755
REMARK  Name = 
REMARK  4 active torsions:
REMARK  status: ('A' for Active; 'I' for Inactive)
REMARK    1  A    between atoms: C_1  and  O_2
REMARK    2  A    between atoms: O_2  and  C_3
REMARK    3  A    between atoms: C_8  and  O_9
REMARK    4  A    between atoms: C_13  and  C_14
REMARK                            x       y       z     vdW  Elec       q    Type
REMARK                         _______ _______ _______ _____ _____    ______ ____
ROOT
ATOM      1  C   UNL     1       3.311   6.718  17.849  0.00  0.00    +0.000 A 
ATOM      2  C   UNL     1       2.277   5.889  18.288  0.00  0.00    +0.000 A 
ATOM      3  C   UNL     1       2.421   4.492  18.314  0.00  0.00    +0.000 A 
ATOM      4  C   UNL     1       3.630   3.920  17.878  0.00  0.00    +0.000 A 
ATOM      5  C   UNL     1       4.664   4.746  17.417  0.00  0.00    +0.000 A 
ATOM      6  C   UNL     1       4.502   6.130  17.405  0.00  0.00    +0.000 A 
ATOM      7  C   UNL     1       3.775   2.420  17.817  0.00  0.00    +0.000 C 
ATOM      8  C   UNL     1       2.729   1.689  18.661  0.00  0.00    +0.000 C 
ATOM      9  N   UNL     1       1.386   2.221  18.431  0.00  0.00    +0.000 NA
ATOM     10  C   UNL     1       1.281   3.634  18.833  0.00  0.00    +0.000 C 
ATOM     11  C   UNL     1       1.136   3.774  20.355  0.00  0.00    +0.000 C 
ATOM     12  H   UNL     1       0.704   1.671  18.949  0.00  0.00    +0.000 HD
ENDROOT
BRANCH   1  14
ATOM     13  C   UNL     1       1.902   8.617  17.857  0.00  0.00    +0.000 C 
ATOM     14  O   UNL     1       3.220   8.083  17.777  0.00  0.00    +0.000 OA
ENDBRANCH   1  14
BRANCH   6  15
ATOM     15  O   UNL     1       5.520   6.933  16.963  0.00  0.00    +0.000 OA
ATOM     16  H   UNL     1       6.253   6.373  16.661  0.00  0.00    +0.000 HD
ENDBRANCH   6  15
TORSDOF 2
ENDMDL
MODEL 6
REMARK VINA RESULT:      -6.0      2.883      4.593
REMARK  Name = 
REMARK  4 active torsions:
REMARK  status: ('A' for Active; 'I' for Inactive)
REMARK    1  A    between atoms: C_1  and  O_2
REMARK    2  A    between atoms: O_2  and  C_3
REMARK    3  A    between atoms: C_8  and  O_9
REMARK    4  A    between atoms: C_13  and  C_14
REMARK                            x       y       z     vdW  Elec       q    Type
REMARK                         _______ _______ _______ _____ _____    ______ ____
ROOT
ATOM      1  C   UNL     1       6.110   4.443  18.277  0.00  0.00    +0.000 A 
ATOM      2  C   UNL     1       5.173   4.390  19.312  0.00  0.00    +0.000 A 
ATOM      3  C   UNL     1       3.809   4.173  19.053  0.00  0.00    +0.000 A 
ATOM      4  C   UNL     1       3.381   4.017  17.722  0.00  0.00    +0.000 A 
ATOM      5  C   UNL     1       4.314   4.091  16.678  0.00  0.00    +0.000 A 
ATOM      6  C   UNL     1       5.663   4.302  16.958  0.00  0.00    +0.000 A 
ATOM      7  C   UNL     1       1.912   3.870  17.416  0.00  0.00    +0.000 C 
ATOM      8  C   UNL     1       1.089   3.463  18.641  0.00  0.00    +0.000 C 
ATOM      9  N   UNL     1       1.430   4.274  19.810  0.00  0.00    +0.000 NA
ATOM     10  C   UNL     1       2.834   4.088  20.214  0.00  0.00    +0.000 C 
ATOM     11  C   UNL     1       3.023   2.781  20.996  0.00  0.00    +0.000 C 
ATOM     12  H   UNL     1       0.820   4.031  20.588  0.00  0.00    +0.000 HD
ENDROOT
BRANCH   1  14
ATOM     13  C   UNL     1       7.775   5.936  19.044  0.00  0.00    +0.000 C 
ATOM     14  O   UNL     1       7.446   4.677  18.466  0.00  0.00    +0.000 OA
ENDBRANCH   1  14
BRANCH   6  15
ATOM     15  O   UNL     1       6.570   4.362  15.934  0.00  0.00    +0.000 OA
ATOM     16  H   UNL     1       6.189   3.935  15.150  0.00  0.00    +0.000 HD
ENDBRANCH   6  15
TORSDOF 2
ENDMDL
MODEL 7
REMARK VINA RESULT:      -6.0      3.989      5.016
REMARK  Name = 
REMARK  4 active torsions:
REMARK  status: ('A' for Active; 'I' for Inactive)
REMARK    1  A    between atoms: C_1  and  O_2
REMARK    2  A    between atoms: O_2  and  C_3
REMARK    3  A    between atoms: C_8  and  O_9
REMARK    4  A    between atoms: C_13  and  C_14
REMARK                            x       y       z     vdW  Elec       q    Type
REMARK                         _______ _______ _______ _____ _____    ______ ____
ROOT
ATOM      1  C   UNL     1       1.985   7.076  20.027  0.00  0.00    +0.000 A 
ATOM      2  C   UNL     1       1.599   5.847  20.564  0.00  0.00    +0.000 A 
ATOM      3  C   UNL     1       1.702   4.659  19.820  0.00  0.00    +0.000 A 
ATOM      4  C   UNL     1       2.194   4.716  18.503  0.00  0.00    +0.000 A 
ATOM      5  C   UNL     1       2.562   5.951  17.951  0.00  0.00    +0.000 A 
ATOM      6  C   UNL     1       2.457   7.116  18.709  0.00  0.00    +0.000 A 
ATOM      7  C   UNL     1       2.231   3.468  17.658  0.00  0.00    +0.000 C 
ATOM      8  C   UNL     1       2.138   2.186  18.490  0.00  0.00    +0.000 C 
ATOM      9  N   UNL     1       1.065   2.267  19.482  0.00  0.00    +0.000 NA
ATOM     10  C   UNL     1       1.304   3.341  20.460  0.00  0.00    +0.000 C 
ATOM     11  C   UNL     1       2.328   2.913  21.521  0.00  0.00    +0.000 C 
ATOM     12  H   UNL     1       0.979   1.378  19.969  0.00  0.00    +0.000 HD
ENDROOT
BRANCH   1  14
ATOM     13  C   UNL     1       0.634   8.512  21.331  0.00  0.00    +0.000 C 
ATOM     14  O   UNL     1       1.883   8.268  20.694  0.00  0.00    +0.000 OA
ENDBRANCH   1  14
BRANCH   6  15
ATOM     15  O   UNL     1       2.828   8.318  18.168  0.00  0.00    +0.000 OA
ATOM     16  H   UNL     1       3.298   8.155  17.333  0.00  0.00    +0.000 HD
ENDBRANCH   6  15
TORSDOF 2
ENDMDL
MODEL 8
REMARK VINA RESULT:      -6.0      1.109      1.133
REMARK  Name = 
REMARK  4 active torsions:
REMARK  status: ('A' for Active; 'I' for Inactive)
REMARK    1  A    between atoms: C_1  and  O_2
REMARK    2  A    between atoms: O_2  and  C_3
REMARK    3  A    between atoms: C_8  and  O_9
REMARK    4  A    between atoms: C_13  and  C_14
REMARK                            x       y       z     vdW  Elec       q    Type
REMARK                         _______ _______ _______ _____ _____    ______ ____
ROOT
ATOM      1  C   UNL     1       2.892   2.954  19.492  0.00  0.00    +0.000 A 
ATOM      2  C   UNL     1       4.230   3.350  19.518  0.00  0.00    +0.000 A 
ATOM      3  C   UNL     1       4.879   3.811  18.359  0.00  0.00    +0.000 A 
ATOM      4  C   UNL     1       4.165   3.863  17.149  0.00  0.00    +0.000 A 
ATOM      5  C   UNL     1       2.826   3.447  17.113  0.00  0.00    +0.000 A 
ATOM      6  C   UNL     1       2.201   2.998  18.275  0.00  0.00    +0.000 A 
ATOM      7  C   UNL     1       4.865   4.272  15.878  0.00  0.00    +0.000 C 
ATOM      8  C   UNL     1       6.179   5.013  16.137  0.00  0.00    +0.000 C 
ATOM      9  N   UNL     1       6.996   4.323  17.135  0.00  0.00    +0.000 NA
ATOM     10  C   UNL     1       6.326   4.264  18.445  0.00  0.00    +0.000 C 
ATOM     11  C   UNL     1       6.441   5.599  19.194  0.00  0.00    +0.000 C 
ATOM     12  H   UNL     1       7.891   4.796  17.235  0.00  0.00    +0.000 HD
ENDROOT
BRANCH   1  14
ATOM     13  C   UNL     1       1.993   3.410  21.630  0.00  0.00    +0.000 C 
ATOM     14  O   UNL     1       2.215   2.473  20.581  0.00  0.00    +0.000 OA
ENDBRANCH   1  14
BRANCH   6  15
ATOM     15  O   UNL     1       0.890   2.603  18.235  0.00  0.00    +0.000 OA
ATOM     16  H   UNL     1       0.327   3.390  18.154  0.00  0.00    +0.000 HD
ENDBRANCH   6  15
TORSDOF 2
ENDMDL
MODEL 9
REMARK VINA RESULT:      -5.9      3.404      5.126
REMARK  Name = 
REMARK  4 active torsions:
REMARK  status: ('A' for Active; 'I' for Inactive)
REMARK    1  A    between atoms: C_1  and  O_2
REMARK    2  A    between atoms: O_2  and  C_3
REMARK    3  A    between atoms: C_8  and  O_9
REMARK    4  A    between atoms: C_13  and  C_14
REMARK                            x       y       z     vdW  Elec       q    Type
REMARK                         _______ _______ _______ _____ _____    ______ ____
ROOT
ATOM      1  C   UNL     1       6.488   5.438  16.411  0.00  0.00    +0.000 A 
ATOM      2  C   UNL     1       5.199   5.972  16.467  0.00  0.00    +0.000 A 
ATOM      3  C   UNL     1       4.371   5.769  17.584  0.00  0.00    +0.000 A 
ATOM      4  C   UNL     1       4.850   5.003  18.662  0.00  0.00    +0.000 A 
ATOM      5  C   UNL     1       6.136   4.446  18.601  0.00  0.00    +0.000 A 
ATOM      6  C   UNL     1       6.942   4.665  17.486  0.00  0.00    +0.000 A 
ATOM      7  C   UNL     1       3.949   4.701  19.832  0.00  0.00    +0.000 C 
ATOM      8  C   UNL     1       2.745   5.643  19.911  0.00  0.00    +0.000 C 
ATOM      9  N   UNL     1       2.093   5.791  18.609  0.00  0.00    +0.000 NA
ATOM     10  C   UNL     1       2.990   6.400  17.614  0.00  0.00    +0.000 C 
ATOM     11  C   UNL     1       3.084   7.921  17.801  0.00  0.00    +0.000 C 
ATOM     12  H   UNL     1       1.257   6.363  18.706  0.00  0.00    +0.000 HD
ENDROOT
BRANCH   1  14
ATOM     13  C   UNL     1       6.978   4.835  14.178  0.00  0.00    +0.000 C 
ATOM     14  O   UNL     1       7.329   5.581  15.339  0.00  0.00    +0.000 OA
ENDBRANCH   1  14
BRANCH   6  15
ATOM     15  O   UNL     1       8.201   4.127  17.438  0.00  0.00    +0.000 OA
ATOM     16  H   UNL     1       8.244   3.491  16.706  0.00  0.00    +0.000 HD
ENDBRANCH   6  15
TORSDOF 2
ENDMDL
