MODEL 1
REMARK VINA RESULT:      -7.8      0.000      0.000
REMARK  Name = 
REMARK  2 active torsions:
REMARK  status: ('A' for Active; 'I' for Inactive)
REMARK    1  A    between atoms: C_1  and  N_2
REMARK    2  A    between atoms: C_18  and  C_19
REMARK                            x       y       z     vdW  Elec       q    Type
REMARK                         _______ _______ _______ _____ _____    ______ ____
ROOT
ATOM      1  C   UNL     1       2.576   6.673  19.067  0.00  0.00    +0.000 C 
ATOM      2  N   UNL     1       1.896   7.937  19.278  0.00  0.00    +0.000 N 
ATOM      3  C   UNL     1       1.458   8.254  20.623  0.00  0.00    +0.000 C 
ATOM      4  C   UNL     1       0.661   9.532  20.864  0.00  0.00    +0.000 C 
ATOM      5  O   UNL     1       0.223   9.762  21.987  0.00  0.00    +0.000 OA
ATOM      6  N   UNL     1       0.480  10.379  19.787  0.00  0.00    +0.000 N 
ATOM      7  C   UNL     1       1.247  10.220  18.525  0.00  0.00    +0.000 C 
ATOM      8  C   UNL     1       2.291  11.343  18.303  0.00  0.00    +0.000 C 
ATOM      9  C   UNL     1       1.719  12.665  18.686  0.00  0.00    +0.000 A 
ATOM     10  C   UNL     1       0.590  12.764  19.473  0.00  0.00    +0.000 A 
ATOM     11  N   UNL     1       0.332  14.095  19.680  0.00  0.00    +0.000 N 
ATOM     12  C   UNL     1       1.260  14.859  19.006  0.00  0.00    +0.000 A 
ATOM     13  C   UNL     1       1.387  16.250  18.919  0.00  0.00    +0.000 A 
ATOM     14  C   UNL     1       2.443  16.758  18.157  0.00  0.00    +0.000 A 
ATOM     15  C   UNL     1       3.333  15.907  17.506  0.00  0.00    +0.000 A 
ATOM     16  C   UNL     1       3.196  14.518  17.604  0.00  0.00    +0.000 A 
ATOM     17  C   UNL     1       2.143  13.982  18.369  0.00  0.00    +0.000 A 
ATOM     18  C   UNL     1      -0.265  11.641  20.000  0.00  0.00    +0.000 C 
ATOM     19  C   UNL     1       1.935   8.875  18.269  0.00  0.00    +0.000 C 
ATOM     20  O   UNL     1       2.495   8.652  17.194  0.00  0.00    +0.000 OA
ATOM     21  H   UNL     1      -0.435  14.469  20.221  0.00  0.00    +0.000 HD
ENDROOT
BRANCH  18  22
ATOM     22  C   UNL     1      -1.658  11.608  19.365  0.00  0.00    +0.000 A 
ATOM     23  C   UNL     1      -1.872  10.927  18.144  0.00  0.00    +0.000 A 
ATOM     24  C   UNL     1      -3.126  10.900  17.530  0.00  0.00    +0.000 A 
ATOM     25  C   UNL     1      -4.195  11.557  18.122  0.00  0.00    +0.000 A 
ATOM     26 CL   UNL     1      -5.729  11.561  17.347  0.00  0.00    +0.000 Cl
ATOM     27  C   UNL     1      -4.022  12.232  19.324  0.00  0.00    +0.000 A 
ATOM     28  C   UNL     1      -2.764  12.260  19.942  0.00  0.00    +0.000 A 
ATOM     29 CL   UNL     1      -2.658  13.182  21.396  0.00  0.00    +0.000 Cl
ENDBRANCH  18  22
TORSDOF 1
ENDMDL
MODEL 2
REMARK VINA RESULT:      -7.2      1.151      1.334
REMARK  Name = 
REMARK  2 active torsions:
REMARK  status: ('A' for Active; 'I' for Inactive)
REMARK    1  A    between atoms: C_1  and  N_2
REMARK    2  A    between atoms: C_18  and  C_19
REMARK                            x       y       z     vdW  Elec       q    Type
REMARK                         _______ _______ _______ _____ _____    ______ ____
ROOT
ATOM      1  C   UNL     1       1.873   7.514  20.348  0.00  0.00    +0.000 C 
ATOM      2  N   UNL     1       1.138   8.765  20.394  0.00  0.00    +0.000 N 
ATOM      3  C   UNL     1       0.597   9.187  21.670  0.00  0.00    +0.000 C 
ATOM      4  C   UNL     1      -0.257  10.449  21.735  0.00  0.00    +0.000 C 
ATOM      5  O   UNL     1      -0.780  10.764  22.800  0.00  0.00    +0.000 OA
ATOM      6  N   UNL     1      -0.390  11.185  20.573  0.00  0.00    +0.000 N 
ATOM      7  C   UNL     1       0.468  10.941  19.386  0.00  0.00    +0.000 C 
ATOM      8  C   UNL     1       1.487  12.079  19.129  0.00  0.00    +0.000 C 
ATOM      9  C   UNL     1       0.846  13.407  19.346  0.00  0.00    +0.000 A 
ATOM     10  C   UNL     1      -0.338  13.534  20.043  0.00  0.00    +0.000 A 
ATOM     11  N   UNL     1      -0.653  14.867  20.105  0.00  0.00    +0.000 N 
ATOM     12  C   UNL     1       0.295  15.602  19.426  0.00  0.00    +0.000 A 
ATOM     13  C   UNL     1       0.381  16.983  19.216  0.00  0.00    +0.000 A 
ATOM     14  C   UNL     1       1.470  17.459  18.481  0.00  0.00    +0.000 A 
ATOM     15  C   UNL     1       2.432  16.587  17.975  0.00  0.00    +0.000 A 
ATOM     16  C   UNL     1       2.334  15.209  18.194  0.00  0.00    +0.000 A 
ATOM     17  C   UNL     1       1.248  14.705  18.935  0.00  0.00    +0.000 A 
ATOM     18  C   UNL     1      -1.189  12.431  20.616  0.00  0.00    +0.000 C 
ATOM     19  C   UNL     1       1.216   9.607  19.304  0.00  0.00    +0.000 C 
ATOM     20  O   UNL     1       1.857   9.308  18.296  0.00  0.00    +0.000 OA
ATOM     21  H   UNL     1      -1.468  15.259  20.557  0.00  0.00    +0.000 HD
ENDROOT
BRANCH  18  22
ATOM     22  C   UNL     1      -2.533  12.285  19.895  0.00  0.00    +0.000 A 
ATOM     23  C   UNL     1      -2.599  11.677  18.621  0.00  0.00    +0.000 A 
ATOM     24  C   UNL     1      -3.806  11.552  17.930  0.00  0.00    +0.000 A 
ATOM     25  C   UNL     1      -4.976  12.034  18.498  0.00  0.00    +0.000 A 
ATOM     26 CL   UNL     1      -6.456  11.919  17.633  0.00  0.00    +0.000 Cl
ATOM     27  C   UNL     1      -4.949  12.632  19.752  0.00  0.00    +0.000 A 
ATOM     28  C   UNL     1      -3.738  12.759  20.447  0.00  0.00    +0.000 A 
ATOM     29 CL   UNL     1      -3.821  13.577  21.964  0.00  0.00    +0.000 Cl
ENDBRANCH  18  22
TORSDOF 1
ENDMDL
MODEL 3
REMARK VINA RESULT:      -7.0      3.039      6.589
REMARK  Name = 
REMARK  2 active torsions:
REMARK  status: ('A' for Active; 'I' for Inactive)
REMARK    1  A    between atoms: C_1  and  N_2
REMARK    2  A    between atoms: C_18  and  C_19
REMARK                            x       y       z     vdW  Elec       q    Type
REMARK                         _______ _______ _______ _____ _____    ______ ____
ROOT
ATOM      1  C   UNL     1      -3.350  13.605  24.251  0.00  0.00    +0.000 C 
ATOM      2  N   UNL     1      -2.653  13.076  23.093  0.00  0.00    +0.000 N 
ATOM      3  C   UNL     1      -1.806  11.915  23.284  0.00  0.00    +0.000 C 
ATOM      4  C   UNL     1      -0.989  11.389  22.108  0.00  0.00    +0.000 C 
ATOM      5  O   UNL     1      -0.213  10.455  22.288  0.00  0.00    +0.000 OA
ATOM      6  N   UNL     1      -1.178  11.999  20.882  0.00  0.00    +0.000 N 
ATOM      7  C   UNL     1      -2.311  12.925  20.631  0.00  0.00    +0.000 C 
ATOM      8  C   UNL     1      -3.383  12.331  19.684  0.00  0.00    +0.000 C 
ATOM      9  C   UNL     1      -2.734  11.600  18.560  0.00  0.00    +0.000 A 
ATOM     10  C   UNL     1      -1.412  11.209  18.618  0.00  0.00    +0.000 A 
ATOM     11  N   UNL     1      -1.118  10.534  17.462  0.00  0.00    +0.000 N 
ATOM     12  C   UNL     1      -2.223  10.514  16.640  0.00  0.00    +0.000 A 
ATOM     13  C   UNL     1      -2.388   9.954  15.368  0.00  0.00    +0.000 A 
ATOM     14  C   UNL     1      -3.640  10.083  14.761  0.00  0.00    +0.000 A 
ATOM     15  C   UNL     1      -4.683  10.749  15.400  0.00  0.00    +0.000 A 
ATOM     16  C   UNL     1      -4.505  11.302  16.672  0.00  0.00    +0.000 A 
ATOM     17  C   UNL     1      -3.254  11.182  17.307  0.00  0.00    +0.000 A 
ATOM     18  C   UNL     1      -0.419  11.488  19.717  0.00  0.00    +0.000 C 
ATOM     19  C   UNL     1      -3.029  13.525  21.845  0.00  0.00    +0.000 C 
ATOM     20  O   UNL     1      -3.905  14.379  21.696  0.00  0.00    +0.000 OA
ATOM     21  H   UNL     1      -0.221  10.131  17.228  0.00  0.00    +0.000 HD
ENDROOT
BRANCH  18  22
ATOM     22  C   UNL     1       0.692  12.447  19.282  0.00  0.00    +0.000 A 
ATOM     23  C   UNL     1       0.586  13.832  19.543  0.00  0.00    +0.000 A 
ATOM     24  C   UNL     1       1.572  14.733  19.136  0.00  0.00    +0.000 A 
ATOM     25  C   UNL     1       2.689  14.268  18.457  0.00  0.00    +0.000 A 
ATOM     26 CL   UNL     1       3.884  15.380  17.918  0.00  0.00    +0.000 Cl
ATOM     27  C   UNL     1       2.829  12.912  18.188  0.00  0.00    +0.000 A 
ATOM     28  C   UNL     1       1.840  12.007  18.595  0.00  0.00    +0.000 A 
ATOM     29 CL   UNL     1       2.094  10.360  18.147  0.00  0.00    +0.000 Cl
ENDBRANCH  18  22
TORSDOF 1
ENDMDL
MODEL 4
REMARK VINA RESULT:      -6.9      3.239      6.082
REMARK  Name = 
REMARK  2 active torsions:
REMARK  status: ('A' for Active; 'I' for Inactive)
REMARK    1  A    between atoms: C_1  and  N_2
REMARK    2  A    between atoms: C_18  and  C_19
REMARK                            x       y       z     vdW  Elec       q    Type
REMARK                         _______ _______ _______ _____ _____    ______ ____
ROOT
ATOM      1  C   UNL     1       2.032  17.435  17.826  0.00  0.00    +0.000 C 
ATOM      2  N   UNL     1       1.445  16.230  18.383  0.00  0.00    +0.000 N 
ATOM      3  C   UNL     1       2.342  15.181  18.825  0.00  0.00    +0.000 C 
ATOM      4  C   UNL     1       1.757  13.866  19.331  0.00  0.00    +0.000 C 
ATOM      5  O   UNL     1       2.515  12.949  19.631  0.00  0.00    +0.000 OA
ATOM      6  N   UNL     1       0.381  13.782  19.432  0.00  0.00    +0.000 N 
ATOM      7  C   UNL     1      -0.489  14.981  19.332  0.00  0.00    +0.000 C 
ATOM      8  C   UNL     1      -1.141  15.373  20.682  0.00  0.00    +0.000 C 
ATOM      9  C   UNL     1      -1.602  14.156  21.407  0.00  0.00    +0.000 A 
ATOM     10  C   UNL     1      -1.144  12.898  21.074  0.00  0.00    +0.000 A 
ATOM     11  N   UNL     1      -1.716  11.996  21.933  0.00  0.00    +0.000 N 
ATOM     12  C   UNL     1      -2.568  12.651  22.797  0.00  0.00    +0.000 A 
ATOM     13  C   UNL     1      -3.369  12.144  23.826  0.00  0.00    +0.000 A 
ATOM     14  C   UNL     1      -4.141  13.054  24.553  0.00  0.00    +0.000 A 
ATOM     15  C   UNL     1      -4.114  14.416  24.259  0.00  0.00    +0.000 A 
ATOM     16  C   UNL     1      -3.307  14.909  23.228  0.00  0.00    +0.000 A 
ATOM     17  C   UNL     1      -2.517  14.012  22.483  0.00  0.00    +0.000 A 
ATOM     18  C   UNL     1      -0.212  12.527  19.949  0.00  0.00    +0.000 C 
ATOM     19  C   UNL     1       0.105  16.248  18.707  0.00  0.00    +0.000 C 
ATOM     20  O   UNL     1      -0.601  17.237  18.503  0.00  0.00    +0.000 OA
ATOM     21  H   UNL     1      -1.563  10.997  21.927  0.00  0.00    +0.000 HD
ENDROOT
BRANCH  18  22
ATOM     22  C   UNL     1      -0.904  11.716  18.850  0.00  0.00    +0.000 A 
ATOM     23  C   UNL     1      -2.130  12.156  18.300  0.00  0.00    +0.000 A 
ATOM     24  C   UNL     1      -2.796  11.424  17.314  0.00  0.00    +0.000 A 
ATOM     25  C   UNL     1      -2.250  10.233  16.856  0.00  0.00    +0.000 A 
ATOM     26 CL   UNL     1      -3.087   9.310  15.673  0.00  0.00    +0.000 Cl
ATOM     27  C   UNL     1      -1.043   9.774  17.371  0.00  0.00    +0.000 A 
ATOM     28  C   UNL     1      -0.375  10.507  18.361  0.00  0.00    +0.000 A 
ATOM     29 CL   UNL     1       1.080   9.803  18.967  0.00  0.00    +0.000 Cl
ENDBRANCH  18  22
TORSDOF 1
ENDMDL
MODEL 5
REMARK VINA RESULT:      -6.8      7.856     10.530
REMARK  Name = 
REMARK  2 active torsions:
REMARK  status: ('A' for Active; 'I' for Inactive)
REMARK    1  A    between atoms: C_1  and  N_2
REMARK    2  A    between atoms: C_18  and  C_19
REMARK                            x       y       z     vdW  Elec       q    Type
REMARK                         _______ _______ _______ _____ _____    ______ ____
ROOT
ATOM      1  C   UNL     1       1.166   4.372  20.196  0.00  0.00    +0.000 C 
ATOM      2  N   UNL     1       2.449   4.462  19.524  0.00  0.00    +0.000 N 
ATOM      3  C   UNL     1       3.559   3.712  20.078  0.00  0.00    +0.000 C 
ATOM      4  C   UNL     1       4.942   3.856  19.450  0.00  0.00    +0.000 C 
ATOM      5  O   UNL     1       5.897   3.283  19.966  0.00  0.00    +0.000 OA
ATOM      6  N   UNL     1       5.043   4.631  18.310  0.00  0.00    +0.000 N 
ATOM      7  C   UNL     1       3.844   5.078  17.555  0.00  0.00    +0.000 C 
ATOM      8  C   UNL     1       3.693   4.373  16.184  0.00  0.00    +0.000 C 
ATOM      9  C   UNL     1       5.017   4.257  15.512  0.00  0.00    +0.000 A 
ATOM     10  C   UNL     1       6.198   4.408  16.209  0.00  0.00    +0.000 A 
ATOM     11  N   UNL     1       7.236   4.212  15.334  0.00  0.00    +0.000 N 
ATOM     12  C   UNL     1       6.741   3.972  14.070  0.00  0.00    +0.000 A 
ATOM     13  C   UNL     1       7.419   3.730  12.870  0.00  0.00    +0.000 A 
ATOM     14  C   UNL     1       6.648   3.513  11.724  0.00  0.00    +0.000 A 
ATOM     15  C   UNL     1       5.257   3.540  11.778  0.00  0.00    +0.000 A 
ATOM     16  C   UNL     1       4.592   3.781  12.986  0.00  0.00    +0.000 A 
ATOM     17  C   UNL     1       5.346   3.999  14.155  0.00  0.00    +0.000 A 
ATOM     18  C   UNL     1       6.368   4.764  17.663  0.00  0.00    +0.000 C 
ATOM     19  C   UNL     1       2.489   5.028  18.267  0.00  0.00    +0.000 C 
ATOM     20  O   UNL     1       1.480   5.484  17.727  0.00  0.00    +0.000 OA
ATOM     21  H   UNL     1       8.219   4.260  15.565  0.00  0.00    +0.000 HD
ENDROOT
BRANCH  18  22
ATOM     22  C   UNL     1       6.977   6.154  17.865  0.00  0.00    +0.000 A 
ATOM     23  C   UNL     1       6.579   7.236  17.046  0.00  0.00    +0.000 A 
ATOM     24  C   UNL     1       7.135   8.509  17.192  0.00  0.00    +0.000 A 
ATOM     25  C   UNL     1       8.104   8.729  18.161  0.00  0.00    +0.000 A 
ATOM     26 CL   UNL     1       8.820  10.284  18.314  0.00  0.00    +0.000 Cl
ATOM     27  C   UNL     1       8.515   7.689  18.987  0.00  0.00    +0.000 A 
ATOM     28  C   UNL     1       7.958   6.411  18.842  0.00  0.00    +0.000 A 
ATOM     29 CL   UNL     1       8.594   5.189  19.881  0.00  0.00    +0.000 Cl
ENDBRANCH  18  22
TORSDOF 1
ENDMDL
MODEL 6
REMARK VINA RESULT:      -6.7      2.169      2.887
REMARK  Name = 
REMARK  2 active torsions:
REMARK  status: ('A' for Active; 'I' for Inactive)
REMARK    1  A    between atoms: C_1  and  N_2
REMARK    2  A    between atoms: C_18  and  C_19
REMARK                            x       y       z     vdW  Elec       q    Type
REMARK                         _______ _______ _______ _____ _____    ______ ____
ROOT
ATOM      1  C   UNL     1       1.417   8.530  20.079  0.00  0.00    +0.000 C 
ATOM      2  N   UNL     1       0.600   9.689  20.384  0.00  0.00    +0.000 N 
ATOM      3  C   UNL     1       0.417  10.042  21.778  0.00  0.00    +0.000 C 
ATOM      4  C   UNL     1      -0.510  11.199  22.137  0.00  0.00    +0.000 C 
ATOM      5  O   UNL     1      -0.727  11.448  23.319  0.00  0.00    +0.000 OA
ATOM      6  N   UNL     1      -1.057  11.921  21.093  0.00  0.00    +0.000 N 
ATOM      7  C   UNL     1      -0.565  11.781  19.699  0.00  0.00    +0.000 C 
ATOM      8  C   UNL     1       0.205  13.028  19.198  0.00  0.00    +0.000 C 
ATOM      9  C   UNL     1      -0.481  14.274  19.642  0.00  0.00    +0.000 A 
ATOM     10  C   UNL     1      -1.413  14.263  20.659  0.00  0.00    +0.000 A 
ATOM     11  N   UNL     1      -1.836  15.551  20.861  0.00  0.00    +0.000 N 
ATOM     12  C   UNL     1      -1.215  16.392  19.962  0.00  0.00    +0.000 A 
ATOM     13  C   UNL     1      -1.342  17.775  19.788  0.00  0.00    +0.000 A 
ATOM     14  C   UNL     1      -0.574  18.374  18.786  0.00  0.00    +0.000 A 
ATOM     15  C   UNL     1       0.282  17.619  17.989  0.00  0.00    +0.000 A 
ATOM     16  C   UNL     1       0.401  16.238  18.175  0.00  0.00    +0.000 A 
ATOM     17  C   UNL     1      -0.359  15.611  19.181  0.00  0.00    +0.000 A 
ATOM     18  C   UNL     1      -1.936  13.068  21.414  0.00  0.00    +0.000 C 
ATOM     19  C   UNL     1       0.264  10.540  19.352  0.00  0.00    +0.000 C 
ATOM     20  O   UNL     1       0.607  10.320  18.189  0.00  0.00    +0.000 OA
ATOM     21  H   UNL     1      -2.519  15.847  21.545  0.00  0.00    +0.000 HD
ENDROOT
BRANCH  18  22
ATOM     22  C   UNL     1      -3.408  12.775  21.112  0.00  0.00    +0.000 A 
ATOM     23  C   UNL     1      -3.833  12.538  19.784  0.00  0.00    +0.000 A 
ATOM     24  C   UNL     1      -5.173  12.291  19.476  0.00  0.00    +0.000 A 
ATOM     25  C   UNL     1      -6.120  12.278  20.491  0.00  0.00    +0.000 A 
ATOM     26 CL   UNL     1      -7.775  12.016  20.110  0.00  0.00    +0.000 Cl
ATOM     27  C   UNL     1      -5.736  12.501  21.808  0.00  0.00    +0.000 A 
ATOM     28  C   UNL     1      -4.393  12.749  22.118  0.00  0.00    +0.000 A 
ATOM     29 CL   UNL     1      -4.050  13.075  23.778  0.00  0.00    +0.000 Cl
ENDBRANCH  18  22
TORSDOF 1
ENDMDL
MODEL 7
REMARK VINA RESULT:      -6.7      3.564      7.000
REMARK  Name = 
REMARK  2 active torsions:
REMARK  status: ('A' for Active; 'I' for Inactive)
REMARK    1  A    between atoms: C_1  and  N_2
REMARK    2  A    between atoms: C_18  and  C_19
REMARK                            x       y       z     vdW  Elec       q    Type
REMARK                         _______ _______ _______ _____ _____    ______ ____
ROOT
ATOM      1  C   UNL     1      -5.660  14.707  23.823  0.00  0.00    +0.000 C 
ATOM      2  N   UNL     1      -4.643  14.022  23.047  0.00  0.00    +0.000 N 
ATOM      3  C   UNL     1      -3.951  12.911  23.668  0.00  0.00    +0.000 C 
ATOM      4  C   UNL     1      -2.814  12.228  22.914  0.00  0.00    +0.000 C 
ATOM      5  O   UNL     1      -2.176  11.338  23.469  0.00  0.00    +0.000 OA
ATOM      6  N   UNL     1      -2.567  12.650  21.621  0.00  0.00    +0.000 N 
ATOM      7  C   UNL     1      -3.519  13.519  20.883  0.00  0.00    +0.000 C 
ATOM      8  C   UNL     1      -4.244  12.782  19.729  0.00  0.00    +0.000 C 
ATOM      9  C   UNL     1      -3.290  11.902  18.996  0.00  0.00    +0.000 A 
ATOM     10  C   UNL     1      -2.077  11.538  19.542  0.00  0.00    +0.000 A 
ATOM     11  N   UNL     1      -1.445  10.705  18.655  0.00  0.00    +0.000 N 
ATOM     12  C   UNL     1      -2.220  10.553  17.525  0.00  0.00    +0.000 A 
ATOM     13  C   UNL     1      -1.980   9.812  16.362  0.00  0.00    +0.000 A 
ATOM     14  C   UNL     1      -2.958   9.839  15.365  0.00  0.00    +0.000 A 
ATOM     15  C   UNL     1      -4.127  10.580  15.523  0.00  0.00    +0.000 A 
ATOM     16  C   UNL     1      -4.355  11.315  16.692  0.00  0.00    +0.000 A 
ATOM     17  C   UNL     1      -3.386  11.301  17.714  0.00  0.00    +0.000 A 
ATOM     18  C   UNL     1      -1.489  11.983  20.856  0.00  0.00    +0.000 C 
ATOM     19  C   UNL     1      -4.571  14.281  21.694  0.00  0.00    +0.000 C 
ATOM     20  O   UNL     1      -5.316  15.095  21.147  0.00  0.00    +0.000 OA
ATOM     21  H   UNL     1      -0.537  10.280  18.788  0.00  0.00    +0.000 HD
ENDROOT
BRANCH  18  22
ATOM     22  C   UNL     1      -0.260  12.880  20.681  0.00  0.00    +0.000 A 
ATOM     23  C   UNL     1      -0.412  14.267  20.454  0.00  0.00    +0.000 A 
ATOM     24  C   UNL     1       0.689  15.105  20.267  0.00  0.00    +0.000 A 
ATOM     25  C   UNL     1       1.970  14.573  20.302  0.00  0.00    +0.000 A 
ATOM     26 CL   UNL     1       3.326  15.595  20.031  0.00  0.00    +0.000 Cl
ATOM     27  C   UNL     1       2.157  13.215  20.528  0.00  0.00    +0.000 A 
ATOM     28  C   UNL     1       1.053  12.373  20.715  0.00  0.00    +0.000 A 
ATOM     29 CL   UNL     1       1.409  10.697  20.923  0.00  0.00    +0.000 Cl
ENDBRANCH  18  22
TORSDOF 1
ENDMDL
MODEL 8
REMARK VINA RESULT:      -6.6      3.192      5.966
REMARK  Name = 
REMARK  2 active torsions:
REMARK  status: ('A' for Active; 'I' for Inactive)
REMARK    1  A    between atoms: C_1  and  N_2
REMARK    2  A    between atoms: C_18  and  C_19
REMARK                            x       y       z     vdW  Elec       q    Type
REMARK                         _______ _______ _______ _____ _____    ______ ____
ROOT
ATOM      1  C   UNL     1       2.996  16.216  19.499  0.00  0.00    +0.000 C 
ATOM      2  N   UNL     1       1.947  15.257  19.792  0.00  0.00    +0.000 N 
ATOM      3  C   UNL     1       2.315  14.040  20.488  0.00  0.00    +0.000 C 
ATOM      4  C   UNL     1       1.254  12.972  20.731  0.00  0.00    +0.000 C 
ATOM      5  O   UNL     1       1.582  11.909  21.250  0.00  0.00    +0.000 OA
ATOM      6  N   UNL     1      -0.042  13.268  20.353  0.00  0.00    +0.000 N 
ATOM      7  C   UNL     1      -0.459  14.647  19.991  0.00  0.00    +0.000 C 
ATOM      8  C   UNL     1      -1.390  15.296  21.045  0.00  0.00    +0.000 C 
ATOM      9  C   UNL     1      -2.386  14.304  21.538  0.00  0.00    +0.000 A 
ATOM     10  C   UNL     1      -2.210  12.948  21.352  0.00  0.00    +0.000 A 
ATOM     11  N   UNL     1      -3.264  12.298  21.941  0.00  0.00    +0.000 N 
ATOM     12  C   UNL     1      -4.139  13.219  22.476  0.00  0.00    +0.000 A 
ATOM     13  C   UNL     1      -5.346  13.022  23.157  0.00  0.00    +0.000 A 
ATOM     14  C   UNL     1      -6.032  14.157  23.598  0.00  0.00    +0.000 A 
ATOM     15  C   UNL     1      -5.532  15.436  23.363  0.00  0.00    +0.000 A 
ATOM     16  C   UNL     1      -4.323  15.618  22.683  0.00  0.00    +0.000 A 
ATOM     17  C   UNL     1      -3.611  14.490  22.233  0.00  0.00    +0.000 A 
ATOM     18  C   UNL     1      -1.097  12.260  20.605  0.00  0.00    +0.000 C 
ATOM     19  C   UNL     1       0.636  15.658  19.638  0.00  0.00    +0.000 C 
ATOM     20  O   UNL     1       0.344  16.782  19.229  0.00  0.00    +0.000 OA
ATOM     21  H   UNL     1      -3.401  11.297  21.963  0.00  0.00    +0.000 HD
ENDROOT
BRANCH  18  22
ATOM     22  C   UNL     1      -1.577  11.587  19.316  0.00  0.00    +0.000 A 
ATOM     23  C   UNL     1      -2.713  12.076  18.633  0.00  0.00    +0.000 A 
ATOM     24  C   UNL     1      -3.188  11.468  17.469  0.00  0.00    +0.000 A 
ATOM     25  C   UNL     1      -2.535  10.353  16.961  0.00  0.00    +0.000 A 
ATOM     26 CL   UNL     1      -3.141   9.577  15.552  0.00  0.00    +0.000 Cl
ATOM     27  C   UNL     1      -1.411   9.848  17.604  0.00  0.00    +0.000 A 
ATOM     28  C   UNL     1      -0.935  10.457  18.773  0.00  0.00    +0.000 A 
ATOM     29 CL   UNL     1       0.428   9.702  19.515  0.00  0.00    +0.000 Cl
ENDBRANCH  18  22
TORSDOF 1
ENDMDL
MODEL 9
REMARK VINA RESULT:      -6.6      7.779     10.554
REMARK  Name = 
REMARK  2 active torsions:
REMARK  status: ('A' for Active; 'I' for Inactive)
REMARK    1  A    between atoms: C_1  and  N_2
REMARK    2  A    between atoms: C_18  and  C_19
REMARK                            x       y       z     vdW  Elec       q    Type
REMARK                         _______ _______ _______ _____ _____    ______ ____
ROOT
ATOM      1  C   UNL     1       3.408  17.142  19.983  0.00  0.00    +0.000 C 
ATOM      2  N   UNL     1       4.498  16.328  20.491  0.00  0.00    +0.000 N 
ATOM      3  C   UNL     1       4.163  15.179  21.307  0.00  0.00    +0.000 C 
ATOM      4  C   UNL     1       5.286  14.357  21.931  0.00  0.00    +0.000 C 
ATOM      5  O   UNL     1       5.003  13.430  22.685  0.00  0.00    +0.000 OA
ATOM      6  N   UNL     1       6.583  14.701  21.599  0.00  0.00    +0.000 N 
ATOM      7  C   UNL     1       6.888  15.630  20.482  0.00  0.00    +0.000 C 
ATOM      8  C   UNL     1       7.537  14.924  19.264  0.00  0.00    +0.000 C 
ATOM      9  C   UNL     1       8.543  13.925  19.721  0.00  0.00    +0.000 A 
ATOM     10  C   UNL     1       8.567  13.463  21.020  0.00  0.00    +0.000 A 
ATOM     11  N   UNL     1       9.572  12.537  21.124  0.00  0.00    +0.000 N 
ATOM     12  C   UNL     1      10.223  12.419  19.915  0.00  0.00    +0.000 A 
ATOM     13  C   UNL     1      11.308  11.612  19.553  0.00  0.00    +0.000 A 
ATOM     14  C   UNL     1      11.766  11.697  18.235  0.00  0.00    +0.000 A 
ATOM     15  C   UNL     1      11.164  12.556  17.319  0.00  0.00    +0.000 A 
ATOM     16  C   UNL     1      10.079  13.356  17.694  0.00  0.00    +0.000 A 
ATOM     17  C   UNL     1       9.597  13.285  19.015  0.00  0.00    +0.000 A 
ATOM     18  C   UNL     1       7.692  13.900  22.167  0.00  0.00    +0.000 C 
ATOM     19  C   UNL     1       5.758  16.525  19.964  0.00  0.00    +0.000 C 
ATOM     20  O   UNL     1       5.980  17.387  19.113  0.00  0.00    +0.000 OA
ATOM     21  H   UNL     1       9.823  12.030  21.962  0.00  0.00    +0.000 HD
ENDROOT
BRANCH  18  22
ATOM     22  C   UNL     1       8.466  14.662  23.246  0.00  0.00    +0.000 A 
ATOM     23  C   UNL     1       9.415  15.646  22.886  0.00  0.00    +0.000 A 
ATOM     24  C   UNL     1      10.153  16.340  23.847  0.00  0.00    +0.000 A 
ATOM     25  C   UNL     1       9.959  16.064  25.193  0.00  0.00    +0.000 A 
ATOM     26 CL   UNL     1      10.895  16.886  26.377  0.00  0.00    +0.000 Cl
ATOM     27  C   UNL     1       9.030  15.107  25.583  0.00  0.00    +0.000 A 
ATOM     28  C   UNL     1       8.289  14.409  24.620  0.00  0.00    +0.000 A 
ATOM     29 CL   UNL     1       7.215  13.201  25.223  0.00  0.00    +0.000 Cl
ENDBRANCH  18  22
TORSDOF 1
ENDMDL
