MODEL 1
REMARK VINA RESULT:      -6.9      0.000      0.000
REMARK  Name = 
REMARK  5 active torsions:
REMARK  status: ('A' for Active; 'I' for Inactive)
REMARK    1  A    between atoms: C_2  and  C_4
REMARK    2  A    between atoms: C_8  and  N_9
REMARK    3  A    between atoms: N_14  and  C_15
REMARK    4  A    between atoms: N_18  and  C_19
REMARK    5  A    between atoms: C_19  and  C_20
REMARK                            x       y       z     vdW  Elec       q    Type
REMARK                         _______ _______ _______ _____ _____    ______ ____
ROOT
ATOM      1  N   UNL     1      -1.235  10.951  19.148  0.00  0.00    +0.000 N 
ATOM      2  C   UNL     1      -0.806   9.699  19.791  0.00  0.00    +0.000 C 
ATOM      3  C   UNL     1      -0.347   9.790  21.249  0.00  0.00    +0.000 C 
ATOM      4  C   UNL     1       0.989  10.516  21.371  0.00  0.00    +0.000 C 
ATOM      5  C   UNL     1       0.844  12.036  21.331  0.00  0.00    +0.000 C 
ATOM      6  N   UNL     1      -0.350  12.489  20.625  0.00  0.00    +0.000 N 
ATOM      7  C   UNL     1      -0.394  12.078  19.282  0.00  0.00    +0.000 C 
ATOM      8  O   UNL     1       0.102  12.740  18.377  0.00  0.00    +0.000 OA
ENDROOT
BRANCH   1  13
ATOM      9  C   UNL     1      -4.447  11.655  17.313  0.00  0.00    +0.000 A 
ATOM     10  C   UNL     1      -4.247  10.991  16.105  0.00  0.00    +0.000 A 
ATOM     11  C   UNL     1      -3.058  10.305  15.901  0.00  0.00    +0.000 A 
ATOM     12  C   UNL     1      -2.092  10.261  16.912  0.00  0.00    +0.000 A 
ATOM     13  C   UNL     1      -2.273  10.911  18.146  0.00  0.00    +0.000 A 
ATOM     14  C   UNL     1      -3.460  11.639  18.307  0.00  0.00    +0.000 A 
BRANCH   9  16
ATOM     15  N   UNL     1      -6.765  12.104  16.854  0.00  0.00    +0.000 NA
ATOM     16  C   UNL     1      -5.723  12.372  17.571  0.00  0.00    +0.000 C 
ATOM     17  N   UNL     1      -5.768  13.337  18.535  0.00  0.00    +0.000 N 
ATOM     18  H   UNL     1      -7.558  12.662  17.176  0.00  0.00    +0.000 HD
ATOM     19  H   UNL     1      -6.501  14.026  18.425  0.00  0.00    +0.000 HD
ATOM     20  H   UNL     1      -4.875  13.776  18.738  0.00  0.00    +0.000 HD
ENDBRANCH   9  16
ENDBRANCH   1  13
BRANCH   6  21
ATOM     21  C   UNL     1      -0.809  13.862  20.957  0.00  0.00    +0.000 C 
ATOM     22  C   UNL     1      -0.622  14.128  22.460  0.00  0.00    +0.000 C 
ATOM     23  C   UNL     1      -1.613  13.311  23.291  0.00  0.00    +0.000 C 
ATOM     24  N   UNL     1      -3.014  13.638  22.985  0.00  0.00    +0.000 NA
ATOM     25  C   UNL     1      -3.288  13.494  21.547  0.00  0.00    +0.000 C 
ATOM     26  C   UNL     1      -2.282  14.205  20.640  0.00  0.00    +0.000 C 
BRANCH  24  27
ATOM     27  C   UNL     1      -3.936  12.738  23.728  0.00  0.00    +0.000 C 
BRANCH  27  28
ATOM     28  C   UNL     1      -5.350  13.257  23.768  0.00  0.00    +0.000 A 
ATOM     29  C   UNL     1      -5.621  14.627  23.731  0.00  0.00    +0.000 A 
ATOM     30  C   UNL     1      -6.923  15.073  23.924  0.00  0.00    +0.000 A 
ATOM     31  C   UNL     1      -7.916  14.130  24.135  0.00  0.00    +0.000 A 
ATOM     32  N   UNL     1      -7.702  12.796  24.133  0.00  0.00    +0.000 NA
ATOM     33  C   UNL     1      -6.425  12.391  23.947  0.00  0.00    +0.000 A 
ENDBRANCH  27  28
ENDBRANCH  24  27
ENDBRANCH   6  21
TORSDOF 5
ENDMDL
MODEL 2
REMARK VINA RESULT:      -6.8      0.634      1.047
REMARK  Name = 
REMARK  5 active torsions:
REMARK  status: ('A' for Active; 'I' for Inactive)
REMARK    1  A    between atoms: C_2  and  C_4
REMARK    2  A    between atoms: C_8  and  N_9
REMARK    3  A    between atoms: N_14  and  C_15
REMARK    4  A    between atoms: N_18  and  C_19
REMARK    5  A    between atoms: C_19  and  C_20
REMARK                            x       y       z     vdW  Elec       q    Type
REMARK                         _______ _______ _______ _____ _____    ______ ____
ROOT
ATOM      1  N   UNL     1      -1.159  10.930  19.051  0.00  0.00    +0.000 N 
ATOM      2  C   UNL     1      -0.714   9.688  19.702  0.00  0.00    +0.000 C 
ATOM      3  C   UNL     1      -0.250   9.796  21.158  0.00  0.00    +0.000 C 
ATOM      4  C   UNL     1       1.077  10.537  21.269  0.00  0.00    +0.000 C 
ATOM      5  C   UNL     1       0.915  12.055  21.218  0.00  0.00    +0.000 C 
ATOM      6  N   UNL     1      -0.287  12.489  20.513  0.00  0.00    +0.000 N 
ATOM      7  C   UNL     1      -0.331  12.067  19.174  0.00  0.00    +0.000 C 
ATOM      8  O   UNL     1       0.155  12.728  18.262  0.00  0.00    +0.000 OA
ENDROOT
BRANCH   1  13
ATOM      9  C   UNL     1      -4.437  11.486  17.282  0.00  0.00    +0.000 A 
ATOM     10  C   UNL     1      -4.194  10.923  16.031  0.00  0.00    +0.000 A 
ATOM     11  C   UNL     1      -2.955  10.352  15.776  0.00  0.00    +0.000 A 
ATOM     12  C   UNL     1      -1.978  10.322  16.778  0.00  0.00    +0.000 A 
ATOM     13  C   UNL     1      -2.200  10.871  18.054  0.00  0.00    +0.000 A 
ATOM     14  C   UNL     1      -3.442  11.486  18.269  0.00  0.00    +0.000 A 
BRANCH   9  16
ATOM     15  N   UNL     1      -5.898  13.360  17.647  0.00  0.00    +0.000 NA
ATOM     16  C   UNL     1      -5.765  12.075  17.593  0.00  0.00    +0.000 C 
ATOM     17  N   UNL     1      -6.819  11.251  17.859  0.00  0.00    +0.000 N 
ATOM     18  H   UNL     1      -6.873  13.597  17.845  0.00  0.00    +0.000 HD
ATOM     19  H   UNL     1      -7.563  11.662  18.409  0.00  0.00    +0.000 HD
ATOM     20  H   UNL     1      -6.563  10.333  18.210  0.00  0.00    +0.000 HD
ENDBRANCH   9  16
ENDBRANCH   1  13
BRANCH   6  21
ATOM     21  C   UNL     1      -0.760  13.859  20.837  0.00  0.00    +0.000 C 
ATOM     22  C   UNL     1      -0.570  14.139  22.337  0.00  0.00    +0.000 C 
ATOM     23  C   UNL     1      -1.549  13.317  23.178  0.00  0.00    +0.000 C 
ATOM     24  N   UNL     1      -2.954  13.626  22.875  0.00  0.00    +0.000 NA
ATOM     25  C   UNL     1      -3.232  13.468  21.439  0.00  0.00    +0.000 C 
ATOM     26  C   UNL     1      -2.238  14.183  20.523  0.00  0.00    +0.000 C 
BRANCH  24  27
ATOM     27  C   UNL     1      -3.863  12.721  23.629  0.00  0.00    +0.000 C 
BRANCH  27  28
ATOM     28  C   UNL     1      -5.224  13.324  23.861  0.00  0.00    +0.000 A 
ATOM     29  C   UNL     1      -6.363  12.524  23.973  0.00  0.00    +0.000 A 
ATOM     30  C   UNL     1      -7.617  13.120  24.032  0.00  0.00    +0.000 A 
ATOM     31  C   UNL     1      -7.689  14.503  23.992  0.00  0.00    +0.000 A 
ATOM     32  N   UNL     1      -6.609  15.313  23.930  0.00  0.00    +0.000 NA
ATOM     33  C   UNL     1      -5.403  14.705  23.869  0.00  0.00    +0.000 A 
ENDBRANCH  27  28
ENDBRANCH  24  27
ENDBRANCH   6  21
TORSDOF 5
ENDMDL
MODEL 3
REMARK VINA RESULT:      -6.8      3.100      6.025
REMARK  Name = 
REMARK  5 active torsions:
REMARK  status: ('A' for Active; 'I' for Inactive)
REMARK    1  A    between atoms: C_2  and  C_4
REMARK    2  A    between atoms: C_8  and  N_9
REMARK    3  A    between atoms: N_14  and  C_15
REMARK    4  A    between atoms: N_18  and  C_19
REMARK    5  A    between atoms: C_19  and  C_20
REMARK                            x       y       z     vdW  Elec       q    Type
REMARK                         _______ _______ _______ _____ _____    ______ ____
ROOT
ATOM      1  N   UNL     1       0.671   9.731  20.949  0.00  0.00    +0.000 N 
ATOM      2  C   UNL     1      -0.055   9.082  22.051  0.00  0.00    +0.000 C 
ATOM      3  C   UNL     1      -1.329   9.774  22.545  0.00  0.00    +0.000 C 
ATOM      4  C   UNL     1      -1.012  11.069  23.284  0.00  0.00    +0.000 C 
ATOM      5  C   UNL     1      -0.752  12.242  22.340  0.00  0.00    +0.000 C 
ATOM      6  N   UNL     1      -0.278  11.834  21.021  0.00  0.00    +0.000 N 
ATOM      7  C   UNL     1       0.928  11.115  21.059  0.00  0.00    +0.000 C 
ATOM      8  O   UNL     1       2.022  11.667  21.019  0.00  0.00    +0.000 OA
ENDROOT
BRANCH   1  13
ATOM      9  C   UNL     1       2.514   6.828  19.414  0.00  0.00    +0.000 A 
ATOM     10  C   UNL     1       2.617   7.218  18.080  0.00  0.00    +0.000 A 
ATOM     11  C   UNL     1       2.087   8.440  17.691  0.00  0.00    +0.000 A 
ATOM     12  C   UNL     1       1.486   9.277  18.639  0.00  0.00    +0.000 A 
ATOM     13  C   UNL     1       1.381   8.915  19.994  0.00  0.00    +0.000 A 
ATOM     14  C   UNL     1       1.878   7.654  20.351  0.00  0.00    +0.000 A 
BRANCH   9  16
ATOM     15  N   UNL     1       4.120   5.047  19.243  0.00  0.00    +0.000 NA
ATOM     16  C   UNL     1       3.100   5.539  19.865  0.00  0.00    +0.000 C 
ATOM     17  N   UNL     1       2.525   4.868  20.905  0.00  0.00    +0.000 N 
ATOM     18  H   UNL     1       4.411   4.176  19.693  0.00  0.00    +0.000 HD
ATOM     19  H   UNL     1       2.705   3.873  20.931  0.00  0.00    +0.000 HD
ATOM     20  H   UNL     1       1.540   5.070  21.048  0.00  0.00    +0.000 HD
ENDBRANCH   9  16
ENDBRANCH   1  13
BRANCH   6  21
ATOM     21  C   UNL     1      -0.473  12.828  19.935  0.00  0.00    +0.000 C 
ATOM     22  C   UNL     1      -1.851  13.495  20.076  0.00  0.00    +0.000 C 
ATOM     23  C   UNL     1      -2.974  12.513  19.737  0.00  0.00    +0.000 C 
ATOM     24  N   UNL     1      -2.895  12.016  18.355  0.00  0.00    +0.000 NA
ATOM     25  C   UNL     1      -1.577  11.421  18.083  0.00  0.00    +0.000 C 
ATOM     26  C   UNL     1      -0.394  12.305  18.484  0.00  0.00    +0.000 C 
BRANCH  24  27
ATOM     27  C   UNL     1      -3.933  10.978  18.113  0.00  0.00    +0.000 C 
BRANCH  27  28
ATOM     28  C   UNL     1      -5.330  11.544  18.099  0.00  0.00    +0.000 A 
ATOM     29  C   UNL     1      -5.719  12.493  17.151  0.00  0.00    +0.000 A 
ATOM     30  C   UNL     1      -6.962  13.104  17.263  0.00  0.00    +0.000 A 
ATOM     31  C   UNL     1      -7.783  12.734  18.317  0.00  0.00    +0.000 A 
ATOM     32  N   UNL     1      -7.461  11.790  19.228  0.00  0.00    +0.000 NA
ATOM     33  C   UNL     1      -6.244  11.215  19.096  0.00  0.00    +0.000 A 
ENDBRANCH  27  28
ENDBRANCH  24  27
ENDBRANCH   6  21
TORSDOF 5
ENDMDL
MODEL 4
REMARK VINA RESULT:      -6.7      1.311      1.925
REMARK  Name = 
REMARK  5 active torsions:
REMARK  status: ('A' for Active; 'I' for Inactive)
REMARK    1  A    between atoms: C_2  and  C_4
REMARK    2  A    between atoms: C_8  and  N_9
REMARK    3  A    between atoms: N_14  and  C_15
REMARK    4  A    between atoms: N_18  and  C_19
REMARK    5  A    between atoms: C_19  and  C_20
REMARK                            x       y       z     vdW  Elec       q    Type
REMARK                         _______ _______ _______ _____ _____    ______ ____
ROOT
ATOM      1  N   UNL     1      -1.447  11.373  18.993  0.00  0.00    +0.000 N 
ATOM      2  C   UNL     1      -0.916  10.094  19.490  0.00  0.00    +0.000 C 
ATOM      3  C   UNL     1      -0.279  10.102  20.883  0.00  0.00    +0.000 C 
ATOM      4  C   UNL     1       1.047  10.855  20.888  0.00  0.00    +0.000 C 
ATOM      5  C   UNL     1       0.868  12.370  20.971  0.00  0.00    +0.000 C 
ATOM      6  N   UNL     1      -0.414  12.835  20.451  0.00  0.00    +0.000 N 
ATOM      7  C   UNL     1      -0.618  12.511  19.100  0.00  0.00    +0.000 C 
ATOM      8  O   UNL     1      -0.252  13.245  18.188  0.00  0.00    +0.000 OA
ENDROOT
BRANCH   1  13
ATOM      9  C   UNL     1      -3.683  10.713  16.037  0.00  0.00    +0.000 A 
ATOM     10  C   UNL     1      -4.913  11.189  16.486  0.00  0.00    +0.000 A 
ATOM     11  C   UNL     1      -5.000  11.736  17.759  0.00  0.00    +0.000 A 
ATOM     12  C   UNL     1      -3.858  11.830  18.561  0.00  0.00    +0.000 A 
ATOM     13  C   UNL     1      -2.601  11.369  18.128  0.00  0.00    +0.000 A 
ATOM     14  C   UNL     1      -2.551  10.775  16.859  0.00  0.00    +0.000 A 
BRANCH   9  16
ATOM     15  N   UNL     1      -2.381   9.887  14.191  0.00  0.00    +0.000 NA
ATOM     16  C   UNL     1      -3.554  10.150  14.667  0.00  0.00    +0.000 C 
ATOM     17  N   UNL     1      -4.674   9.959  13.912  0.00  0.00    +0.000 N 
ATOM     18  H   UNL     1      -2.471   9.486  13.256  0.00  0.00    +0.000 HD
ATOM     19  H   UNL     1      -4.524   9.940  12.911  0.00  0.00    +0.000 HD
ATOM     20  H   UNL     1      -5.459  10.556  14.156  0.00  0.00    +0.000 HD
ENDBRANCH   9  16
ENDBRANCH   1  13
BRANCH   6  21
ATOM     21  C   UNL     1      -0.854  14.169  20.932  0.00  0.00    +0.000 C 
ATOM     22  C   UNL     1      -0.645  14.274  22.451  0.00  0.00    +0.000 C 
ATOM     23  C   UNL     1      -1.635  13.384  23.205  0.00  0.00    +0.000 C 
ATOM     24  N   UNL     1      -3.036  13.755  22.954  0.00  0.00    +0.000 NA
ATOM     25  C   UNL     1      -3.330  13.764  21.512  0.00  0.00    +0.000 C 
ATOM     26  C   UNL     1      -2.327  14.557  20.672  0.00  0.00    +0.000 C 
BRANCH  24  27
ATOM     27  C   UNL     1      -3.959  12.790  23.611  0.00  0.00    +0.000 C 
BRANCH  27  28
ATOM     28  C   UNL     1      -5.368  13.311  23.715  0.00  0.00    +0.000 A 
ATOM     29  C   UNL     1      -5.637  14.682  23.715  0.00  0.00    +0.000 A 
ATOM     30  C   UNL     1      -6.929  15.127  23.967  0.00  0.00    +0.000 A 
ATOM     31  C   UNL     1      -7.916  14.182  24.197  0.00  0.00    +0.000 A 
ATOM     32  N   UNL     1      -7.706  12.848  24.161  0.00  0.00    +0.000 NA
ATOM     33  C   UNL     1      -6.439  12.444  23.918  0.00  0.00    +0.000 A 
ENDBRANCH  27  28
ENDBRANCH  24  27
ENDBRANCH   6  21
TORSDOF 5
ENDMDL
MODEL 5
REMARK VINA RESULT:      -6.4      2.238      6.859
REMARK  Name = 
REMARK  5 active torsions:
REMARK  status: ('A' for Active; 'I' for Inactive)
REMARK    1  A    between atoms: C_2  and  C_4
REMARK    2  A    between atoms: C_8  and  N_9
REMARK    3  A    between atoms: N_14  and  C_15
REMARK    4  A    between atoms: N_18  and  C_19
REMARK    5  A    between atoms: C_19  and  C_20
REMARK                            x       y       z     vdW  Elec       q    Type
REMARK                         _______ _______ _______ _____ _____    ______ ____
ROOT
ATOM      1  N   UNL     1      -0.831  15.660  21.822  0.00  0.00    +0.000 N 
ATOM      2  C   UNL     1      -1.248  16.792  20.980  0.00  0.00    +0.000 C 
ATOM      3  C   UNL     1      -0.920  16.703  19.486  0.00  0.00    +0.000 C 
ATOM      4  C   UNL     1       0.577  16.839  19.233  0.00  0.00    +0.000 C 
ATOM      5  C   UNL     1       1.340  15.537  19.469  0.00  0.00    +0.000 C 
ATOM      6  N   UNL     1       0.678  14.636  20.406  0.00  0.00    +0.000 N 
ATOM      7  C   UNL     1       0.495  15.194  21.682  0.00  0.00    +0.000 C 
ATOM      8  O   UNL     1       1.342  15.105  22.564  0.00  0.00    +0.000 OA
ENDROOT
BRANCH   1  13
ATOM      9  C   UNL     1      -3.282  13.843  24.029  0.00  0.00    +0.000 A 
ATOM     10  C   UNL     1      -3.079  14.458  25.262  0.00  0.00    +0.000 A 
ATOM     11  C   UNL     1      -2.141  15.477  25.362  0.00  0.00    +0.000 A 
ATOM     12  C   UNL     1      -1.436  15.894  24.228  0.00  0.00    +0.000 A 
ATOM     13  C   UNL     1      -1.631  15.300  22.968  0.00  0.00    +0.000 A 
ATOM     14  C   UNL     1      -2.545  14.239  22.904  0.00  0.00    +0.000 A 
BRANCH   9  16
ATOM     15  N   UNL     1      -4.713  12.432  22.708  0.00  0.00    +0.000 NA
ATOM     16  C   UNL     1      -4.301  12.771  23.885  0.00  0.00    +0.000 C 
ATOM     17  N   UNL     1      -4.821  12.186  25.003  0.00  0.00    +0.000 N 
ATOM     18  H   UNL     1      -5.388  11.668  22.786  0.00  0.00    +0.000 HD
ATOM     19  H   UNL     1      -5.732  11.761  24.886  0.00  0.00    +0.000 HD
ATOM     20  H   UNL     1      -4.787  12.761  25.839  0.00  0.00    +0.000 HD
ENDBRANCH   9  16
ENDBRANCH   1  13
BRANCH   6  21
ATOM     21  C   UNL     1       1.074  13.207  20.311  0.00  0.00    +0.000 C 
ATOM     22  C   UNL     1       0.943  12.723  18.858  0.00  0.00    +0.000 C 
ATOM     23  C   UNL     1      -0.527  12.615  18.445  0.00  0.00    +0.000 C 
ATOM     24  N   UNL     1      -1.279  11.657  19.270  0.00  0.00    +0.000 NA
ATOM     25  C   UNL     1      -1.156  11.982  20.700  0.00  0.00    +0.000 C 
ATOM     26  C   UNL     1       0.282  12.201  21.174  0.00  0.00    +0.000 C 
BRANCH  24  27
ATOM     27  C   UNL     1      -2.722  11.677  18.909  0.00  0.00    +0.000 C 
BRANCH  27  28
ATOM     28  C   UNL     1      -2.999  11.020  17.582  0.00  0.00    +0.000 A 
ATOM     29  C   UNL     1      -2.213   9.963  17.117  0.00  0.00    +0.000 A 
ATOM     30  C   UNL     1      -2.400   9.486  15.825  0.00  0.00    +0.000 A 
ATOM     31  C   UNL     1      -3.381  10.075  15.043  0.00  0.00    +0.000 A 
ATOM     32  N   UNL     1      -4.190  11.068  15.471  0.00  0.00    +0.000 NA
ATOM     33  C   UNL     1      -3.983  11.516  16.730  0.00  0.00    +0.000 A 
ENDBRANCH  27  28
ENDBRANCH  24  27
ENDBRANCH   6  21
TORSDOF 5
ENDMDL
MODEL 6
REMARK VINA RESULT:      -6.3      7.093     11.388
REMARK  Name = 
REMARK  5 active torsions:
REMARK  status: ('A' for Active; 'I' for Inactive)
REMARK    1  A    between atoms: C_2  and  C_4
REMARK    2  A    between atoms: C_8  and  N_9
REMARK    3  A    between atoms: N_14  and  C_15
REMARK    4  A    between atoms: N_18  and  C_19
REMARK    5  A    between atoms: C_19  and  C_20
REMARK                            x       y       z     vdW  Elec       q    Type
REMARK                         _______ _______ _______ _____ _____    ______ ____
ROOT
ATOM      1  N   UNL     1       2.699   5.169  19.391  0.00  0.00    +0.000 N 
ATOM      2  C   UNL     1       2.985   4.189  20.450  0.00  0.00    +0.000 C 
ATOM      3  C   UNL     1       4.140   3.214  20.200  0.00  0.00    +0.000 C 
ATOM      4  C   UNL     1       3.792   2.202  19.114  0.00  0.00    +0.000 C 
ATOM      5  C   UNL     1       3.969   2.760  17.704  0.00  0.00    +0.000 C 
ATOM      6  N   UNL     1       3.849   4.212  17.632  0.00  0.00    +0.000 N 
ATOM      7  C   UNL     1       2.602   4.691  18.066  0.00  0.00    +0.000 C 
ATOM      8  O   UNL     1       1.647   4.813  17.306  0.00  0.00    +0.000 OA
ENDROOT
BRANCH   1  13
ATOM      9  C   UNL     1       1.541   8.742  19.124  0.00  0.00    +0.000 A 
ATOM     10  C   UNL     1       1.040   8.985  20.401  0.00  0.00    +0.000 A 
ATOM     11  C   UNL     1       1.093   7.973  21.351  0.00  0.00    +0.000 A 
ATOM     12  C   UNL     1       1.671   6.740  21.029  0.00  0.00    +0.000 A 
ATOM     13  C   UNL     1       2.197   6.473  19.752  0.00  0.00    +0.000 A 
ATOM     14  C   UNL     1       2.085   7.493  18.797  0.00  0.00    +0.000 A 
BRANCH   9  16
ATOM     15  N   UNL     1       2.531   9.953  17.298  0.00  0.00    +0.000 NA
ATOM     16  C   UNL     1       1.525   9.817  18.097  0.00  0.00    +0.000 C 
ATOM     17  N   UNL     1       0.465  10.673  18.039  0.00  0.00    +0.000 N 
ATOM     18  H   UNL     1       2.349  10.716  16.642  0.00  0.00    +0.000 HD
ATOM     19  H   UNL     1       0.655  11.570  17.610  0.00  0.00    +0.000 HD
ATOM     20  H   UNL     1      -0.043  10.782  18.912  0.00  0.00    +0.000 HD
ENDBRANCH   9  16
ENDBRANCH   1  13
BRANCH   6  21
ATOM     21  C   UNL     1       4.476   4.850  16.446  0.00  0.00    +0.000 C 
ATOM     22  C   UNL     1       5.898   4.300  16.246  0.00  0.00    +0.000 C 
ATOM     23  C   UNL     1       6.841   4.799  17.342  0.00  0.00    +0.000 C 
ATOM     24  N   UNL     1       6.964   6.265  17.359  0.00  0.00    +0.000 NA
ATOM     25  C   UNL     1       5.644   6.904  17.469  0.00  0.00    +0.000 C 
ATOM     26  C   UNL     1       4.610   6.389  16.466  0.00  0.00    +0.000 C 
BRANCH  24  27
ATOM     27  C   UNL     1       7.794   6.707  18.512  0.00  0.00    +0.000 C 
BRANCH  27  28
ATOM     28  C   UNL     1       8.228   8.145  18.399  0.00  0.00    +0.000 A 
ATOM     29  C   UNL     1       9.038   8.737  19.372  0.00  0.00    +0.000 A 
ATOM     30  C   UNL     1       9.292  10.102  19.315  0.00  0.00    +0.000 A 
ATOM     31  C   UNL     1       8.736  10.830  18.275  0.00  0.00    +0.000 A 
ATOM     32  N   UNL     1       7.985  10.288  17.292  0.00  0.00    +0.000 NA
ATOM     33  C   UNL     1       7.751   8.958  17.375  0.00  0.00    +0.000 A 
ENDBRANCH  27  28
ENDBRANCH  24  27
ENDBRANCH   6  21
TORSDOF 5
ENDMDL
MODEL 7
REMARK VINA RESULT:      -6.3      7.559     10.617
REMARK  Name = 
REMARK  5 active torsions:
REMARK  status: ('A' for Active; 'I' for Inactive)
REMARK    1  A    between atoms: C_2  and  C_4
REMARK    2  A    between atoms: C_8  and  N_9
REMARK    3  A    between atoms: N_14  and  C_15
REMARK    4  A    between atoms: N_18  and  C_19
REMARK    5  A    between atoms: C_19  and  C_20
REMARK                            x       y       z     vdW  Elec       q    Type
REMARK                         _______ _______ _______ _____ _____    ______ ____
ROOT
ATOM      1  N   UNL     1       7.156  14.480  18.100  0.00  0.00    +0.000 N 
ATOM      2  C   UNL     1       7.450  13.300  17.272  0.00  0.00    +0.000 C 
ATOM      3  C   UNL     1       8.620  12.417  17.715  0.00  0.00    +0.000 C 
ATOM      4  C   UNL     1       9.959  13.115  17.506  0.00  0.00    +0.000 C 
ATOM      5  C   UNL     1      10.294  14.103  18.623  0.00  0.00    +0.000 C 
ATOM      6  N   UNL     1       9.117  14.628  19.308  0.00  0.00    +0.000 N 
ATOM      7  C   UNL     1       8.237  15.316  18.457  0.00  0.00    +0.000 C 
ATOM      8  O   UNL     1       8.347  16.516  18.231  0.00  0.00    +0.000 OA
ENDROOT
BRANCH   1  13
ATOM      9  C   UNL     1       3.395  14.453  18.299  0.00  0.00    +0.000 A 
ATOM     10  C   UNL     1       3.110  15.770  18.650  0.00  0.00    +0.000 A 
ATOM     11  C   UNL     1       4.157  16.668  18.811  0.00  0.00    +0.000 A 
ATOM     12  C   UNL     1       5.475  16.253  18.592  0.00  0.00    +0.000 A 
ATOM     13  C   UNL     1       5.791  14.932  18.224  0.00  0.00    +0.000 A 
ATOM     14  C   UNL     1       4.720  14.034  18.119  0.00  0.00    +0.000 A 
BRANCH   9  16
ATOM     15  N   UNL     1       1.109  13.746  18.533  0.00  0.00    +0.000 NA
ATOM     16  C   UNL     1       2.293  13.478  18.090  0.00  0.00    +0.000 C 
ATOM     17  N   UNL     1       2.555  12.291  17.470  0.00  0.00    +0.000 N 
ATOM     18  H   UNL     1       0.468  12.989  18.285  0.00  0.00    +0.000 HD
ATOM     19  H   UNL     1       1.908  11.541  17.678  0.00  0.00    +0.000 HD
ATOM     20  H   UNL     1       3.519  11.978  17.541  0.00  0.00    +0.000 HD
ENDBRANCH   9  16
ENDBRANCH   1  13
BRANCH   6  21
ATOM     21  C   UNL     1       9.359  15.177  20.667  0.00  0.00    +0.000 C 
ATOM     22  C   UNL     1      10.282  14.235  21.456  0.00  0.00    +0.000 C 
ATOM     23  C   UNL     1       9.560  12.937  21.823  0.00  0.00    +0.000 C 
ATOM     24  N   UNL     1       8.380  13.165  22.670  0.00  0.00    +0.000 NA
ATOM     25  C   UNL     1       7.455  14.122  22.042  0.00  0.00    +0.000 C 
ATOM     26  C   UNL     1       8.119  15.413  21.558  0.00  0.00    +0.000 C 
BRANCH  24  27
ATOM     27  C   UNL     1       7.647  11.891  22.899  0.00  0.00    +0.000 C 
BRANCH  27  28
ATOM     28  C   UNL     1       7.032  11.812  24.273  0.00  0.00    +0.000 A 
ATOM     29  C   UNL     1       7.731  12.233  25.406  0.00  0.00    +0.000 A 
ATOM     30  C   UNL     1       7.195  12.004  26.667  0.00  0.00    +0.000 A 
ATOM     31  C   UNL     1       5.965  11.371  26.752  0.00  0.00    +0.000 A 
ATOM     32  N   UNL     1       5.237  10.990  25.680  0.00  0.00    +0.000 NA
ATOM     33  C   UNL     1       5.786  11.221  24.466  0.00  0.00    +0.000 A 
ENDBRANCH  27  28
ENDBRANCH  24  27
ENDBRANCH   6  21
TORSDOF 5
ENDMDL
MODEL 8
REMARK VINA RESULT:      -6.3      3.096      4.595
REMARK  Name = 
REMARK  5 active torsions:
REMARK  status: ('A' for Active; 'I' for Inactive)
REMARK    1  A    between atoms: C_2  and  C_4
REMARK    2  A    between atoms: C_8  and  N_9
REMARK    3  A    between atoms: N_14  and  C_15
REMARK    4  A    between atoms: N_18  and  C_19
REMARK    5  A    between atoms: C_19  and  C_20
REMARK                            x       y       z     vdW  Elec       q    Type
REMARK                         _______ _______ _______ _____ _____    ______ ____
ROOT
ATOM      1  N   UNL     1       0.431  13.354  19.559  0.00  0.00    +0.000 N 
ATOM      2  C   UNL     1       0.175  12.206  18.675  0.00  0.00    +0.000 C 
ATOM      3  C   UNL     1      -0.871  11.190  19.144  0.00  0.00    +0.000 C 
ATOM      4  C   UNL     1      -0.373  10.384  20.338  0.00  0.00    +0.000 C 
ATOM      5  C   UNL     1      -0.520  11.132  21.661  0.00  0.00    +0.000 C 
ATOM      6  N   UNL     1      -0.527  12.583  21.513  0.00  0.00    +0.000 N 
ATOM      7  C   UNL     1       0.646  13.090  20.929  0.00  0.00    +0.000 C 
ATOM      8  O   UNL     1       1.628  13.402  21.595  0.00  0.00    +0.000 OA
ENDROOT
BRANCH   1  13
ATOM      9  C   UNL     1       0.177  16.872  18.240  0.00  0.00    +0.000 A 
ATOM     10  C   UNL     1       1.512  17.196  18.009  0.00  0.00    +0.000 A 
ATOM     11  C   UNL     1       2.493  16.252  18.279  0.00  0.00    +0.000 A 
ATOM     12  C   UNL     1       2.133  14.983  18.749  0.00  0.00    +0.000 A 
ATOM     13  C   UNL     1       0.793  14.625  18.978  0.00  0.00    +0.000 A 
ATOM     14  C   UNL     1      -0.174  15.613  18.746  0.00  0.00    +0.000 A 
BRANCH   9  16
ATOM     15  N   UNL     1      -1.933  17.930  18.697  0.00  0.00    +0.000 NA
ATOM     16  C   UNL     1      -0.896  17.853  17.930  0.00  0.00    +0.000 C 
ATOM     17  N   UNL     1      -0.792  18.631  16.814  0.00  0.00    +0.000 N 
ATOM     18  H   UNL     1      -2.557  18.666  18.360  0.00  0.00    +0.000 HD
ATOM     19  H   UNL     1      -1.667  18.988  16.452  0.00  0.00    +0.000 HD
ATOM     20  H   UNL     1      -0.218  18.239  16.074  0.00  0.00    +0.000 HD
ENDBRANCH   9  16
ENDBRANCH   1  13
BRANCH   6  21
ATOM     21  C   UNL     1      -1.141  13.340  22.634  0.00  0.00    +0.000 C 
ATOM     22  C   UNL     1      -2.343  12.562  23.195  0.00  0.00    +0.000 C 
ATOM     23  C   UNL     1      -3.510  12.566  22.206  0.00  0.00    +0.000 C 
ATOM     24  N   UNL     1      -3.997  13.921  21.909  0.00  0.00    +0.000 NA
ATOM     25  C   UNL     1      -2.903  14.783  21.435  0.00  0.00    +0.000 C 
ATOM     26  C   UNL     1      -1.656  14.762  22.321  0.00  0.00    +0.000 C 
BRANCH  24  27
ATOM     27  C   UNL     1      -5.048  13.880  20.856  0.00  0.00    +0.000 C 
BRANCH  27  28
ATOM     28  C   UNL     1      -5.981  12.707  21.011  0.00  0.00    +0.000 A 
ATOM     29  C   UNL     1      -6.139  11.767  19.990  0.00  0.00    +0.000 A 
ATOM     30  C   UNL     1      -7.118  10.788  20.106  0.00  0.00    +0.000 A 
ATOM     31  C   UNL     1      -7.901  10.774  21.249  0.00  0.00    +0.000 A 
ATOM     32  N   UNL     1      -7.750  11.638  22.277  0.00  0.00    +0.000 NA
ATOM     33  C   UNL     1      -6.792  12.582  22.135  0.00  0.00    +0.000 A 
ENDBRANCH  27  28
ENDBRANCH  24  27
ENDBRANCH   6  21
TORSDOF 5
ENDMDL
MODEL 9
REMARK VINA RESULT:      -6.3      7.471     12.042
REMARK  Name = 
REMARK  5 active torsions:
REMARK  status: ('A' for Active; 'I' for Inactive)
REMARK    1  A    between atoms: C_2  and  C_4
REMARK    2  A    between atoms: C_8  and  N_9
REMARK    3  A    between atoms: N_14  and  C_15
REMARK    4  A    between atoms: N_18  and  C_19
REMARK    5  A    between atoms: C_19  and  C_20
REMARK                            x       y       z     vdW  Elec       q    Type
REMARK                         _______ _______ _______ _____ _____    ______ ____
ROOT
ATOM      1  N   UNL     1       1.910   6.630  20.013  0.00  0.00    +0.000 N 
ATOM      2  C   UNL     1       1.332   5.545  20.821  0.00  0.00    +0.000 C 
ATOM      3  C   UNL     1       2.276   4.415  21.241  0.00  0.00    +0.000 C 
ATOM      4  C   UNL     1       2.679   3.551  20.051  0.00  0.00    +0.000 C 
ATOM      5  C   UNL     1       3.803   4.170  19.223  0.00  0.00    +0.000 C 
ATOM      6  N   UNL     1       3.871   5.624  19.326  0.00  0.00    +0.000 N 
ATOM      7  C   UNL     1       2.698   6.268  18.899  0.00  0.00    +0.000 C 
ATOM      8  O   UNL     1       2.519   6.597  17.731  0.00  0.00    +0.000 OA
ENDROOT
BRANCH   1  13
ATOM      9  C   UNL     1       0.412   9.727  21.545  0.00  0.00    +0.000 A 
ATOM     10  C   UNL     1       0.544  10.657  20.516  0.00  0.00    +0.000 A 
ATOM     11  C   UNL     1       1.117  10.259  19.316  0.00  0.00    +0.000 A 
ATOM     12  C   UNL     1       1.527   8.932  19.141  0.00  0.00    +0.000 A 
ATOM     13  C   UNL     1       1.394   7.970  20.158  0.00  0.00    +0.000 A 
ATOM     14  C   UNL     1       0.859   8.410  21.377  0.00  0.00    +0.000 A 
BRANCH   9  16
ATOM     15  N   UNL     1      -0.013   9.411  23.891  0.00  0.00    +0.000 NA
ATOM     16  C   UNL     1      -0.226  10.117  22.830  0.00  0.00    +0.000 C 
ATOM     17  N   UNL     1      -1.064  11.193  22.863  0.00  0.00    +0.000 N 
ATOM     18  H   UNL     1      -0.501   9.827  24.686  0.00  0.00    +0.000 HD
ATOM     19  H   UNL     1      -1.737  11.195  23.618  0.00  0.00    +0.000 HD
ATOM     20  H   UNL     1      -1.504  11.417  21.975  0.00  0.00    +0.000 HD
ENDBRANCH   9  16
ENDBRANCH   1  13
BRANCH   6  21
ATOM     21  C   UNL     1       5.179   6.232  18.972  0.00  0.00    +0.000 C 
ATOM     22  C   UNL     1       5.109   6.840  17.561  0.00  0.00    +0.000 C 
ATOM     23  C   UNL     1       5.031   5.745  16.494  0.00  0.00    +0.000 C 
ATOM     24  N   UNL     1       6.204   4.859  16.505  0.00  0.00    +0.000 NA
ATOM     25  C   UNL     1       6.415   4.278  17.840  0.00  0.00    +0.000 C 
ATOM     26  C   UNL     1       6.410   5.300  18.979  0.00  0.00    +0.000 C 
BRANCH  24  27
ATOM     27  C   UNL     1       6.027   3.745  15.535  0.00  0.00    +0.000 C 
BRANCH  27  28
ATOM     28  C   UNL     1       6.467   4.112  14.141  0.00  0.00    +0.000 A 
ATOM     29  C   UNL     1       6.058   3.368  13.031  0.00  0.00    +0.000 A 
ATOM     30  C   UNL     1       6.605   3.641  11.784  0.00  0.00    +0.000 A 
ATOM     31  C   UNL     1       7.537   4.662  11.684  0.00  0.00    +0.000 A 
ATOM     32  N   UNL     1       7.925   5.433  12.724  0.00  0.00    +0.000 NA
ATOM     33  C   UNL     1       7.380   5.142  13.927  0.00  0.00    +0.000 A 
ENDBRANCH  27  28
ENDBRANCH  24  27
ENDBRANCH   6  21
TORSDOF 5
ENDMDL
