MODEL 1
REMARK VINA RESULT:      -6.8      0.000      0.000
REMARK  Name = 
REMARK  20 active torsions:
REMARK  status: ('A' for Active; 'I' for Inactive)
REMARK    1  A    between atoms: C_1  and  O_2
REMARK    2  A    between atoms: O_2  and  C_3
REMARK    3  A    between atoms: C_3  and  C_5
REMARK    4  A    between atoms: C_5  and  C_6
REMARK    5  A    between atoms: C_5  and  C_7
REMARK    6  A    between atoms: C_5  and  C_8
REMARK    7  A    between atoms: C_8  and  C_9
REMARK    8  A    between atoms: C_9  and  C_10
REMARK    9  A    between atoms: C_10  and  O_11
REMARK   10  A    between atoms: O_11  and  C_12
REMARK   11  A    between atoms: C_16  and  O_17
REMARK   12  A    between atoms: O_17  and  C_18
REMARK   13  A    between atoms: C_18  and  C_19
REMARK   14  A    between atoms: C_19  and  C_20
REMARK   15  A    between atoms: C_20  and  C_21
REMARK   16  A    between atoms: C_21  and  C_22
REMARK   17  A    between atoms: C_21  and  C_23
REMARK   18  A    between atoms: C_21  and  C_24
REMARK   19  A    between atoms: C_24  and  O_26
REMARK   20  A    between atoms: O_26  and  C_27
REMARK                            x       y       z     vdW  Elec       q    Type
REMARK                         _______ _______ _______ _____ _____    ______ ____
ROOT
ATOM      1  C   UNL     1       7.074   5.410  16.693  0.00  0.00    +0.000 A 
ATOM      2  C   UNL     1       7.482   4.773  17.867  0.00  0.00    +0.000 A 
ATOM      3  C   UNL     1       7.996   5.517  18.931  0.00  0.00    +0.000 A 
ATOM      4  C   UNL     1       8.098   6.903  18.825  0.00  0.00    +0.000 A 
ATOM      5  C   UNL     1       7.659   7.546  17.670  0.00  0.00    +0.000 A 
ATOM      6  C   UNL     1       7.161   6.798  16.606  0.00  0.00    +0.000 A 
ENDROOT
BRANCH   1   7
ATOM      7  O   UNL     1       6.623   4.584  15.700  0.00  0.00    +0.000 OA
BRANCH   7   8
ATOM      8  C   UNL     1       5.213   4.364  15.633  0.00  0.00    +0.000 C 
BRANCH   8   9
ATOM      9  C   UNL     1       4.801   3.571  16.862  0.00  0.00    +0.000 C 
BRANCH   9  10
ATOM     10  C   UNL     1       3.283   3.619  17.058  0.00  0.00    +0.000 C 
BRANCH  10  11
ATOM     11  C   UNL     1       2.844   4.176  18.434  0.00  0.00    +0.000 C 
ATOM     12  C   UNL     1       2.146   5.538  18.272  0.00  0.00    +0.000 C 
ATOM     13  C   UNL     1       4.081   4.370  19.328  0.00  0.00    +0.000 C 
BRANCH  11  14
ATOM     14  C   UNL     1       1.898   3.190  19.120  0.00  0.00    +0.000 C 
ATOM     15  O   UNL     1       0.851   2.773  18.635  0.00  0.00    +0.000 OA
BRANCH  14  17
ATOM     16  C   UNL     1       1.398   2.744  21.364  0.00  0.00    +0.000 C 
ATOM     17  O   UNL     1       2.386   2.814  20.336  0.00  0.00    +0.000 OA
ENDBRANCH  14  17
ENDBRANCH  11  14
ENDBRANCH  10  11
ENDBRANCH   9  10
ENDBRANCH   8   9
ENDBRANCH   7   8
ENDBRANCH   1   7
BRANCH   5  18
ATOM     18  O   UNL     1       7.770   8.909  17.658  0.00  0.00    +0.000 OA
BRANCH  18  19
ATOM     19  C   UNL     1       8.735   9.448  18.566  0.00  0.00    +0.000 C 
BRANCH  19  20
ATOM     20  C   UNL     1       9.016  10.875  18.124  0.00  0.00    +0.000 C 
BRANCH  20  21
ATOM     21  C   UNL     1      10.499  11.222  18.259  0.00  0.00    +0.000 C 
BRANCH  21  22
ATOM     22  C   UNL     1      10.826  12.306  19.322  0.00  0.00    +0.000 C 
ATOM     23  C   UNL     1      10.384  11.840  20.719  0.00  0.00    +0.000 C 
ATOM     24  C   UNL     1      12.328  12.628  19.313  0.00  0.00    +0.000 C 
BRANCH  22  25
ATOM     25  C   UNL     1      10.054  13.584  18.966  0.00  0.00    +0.000 C 
ATOM     26  O   UNL     1      10.216  14.238  17.940  0.00  0.00    +0.000 OA
BRANCH  25  27
ATOM     27  O   UNL     1       9.154  13.902  19.939  0.00  0.00    +0.000 OA
ATOM     28  C   UNL     1       7.968  14.534  19.464  0.00  0.00    +0.000 C 
ENDBRANCH  25  27
ENDBRANCH  22  25
ENDBRANCH  21  22
ENDBRANCH  20  21
ENDBRANCH  19  20
ENDBRANCH  18  19
ENDBRANCH   5  18
TORSDOF 14
ENDMDL
MODEL 2
REMARK VINA RESULT:      -6.7      1.580     10.218
REMARK  Name = 
REMARK  20 active torsions:
REMARK  status: ('A' for Active; 'I' for Inactive)
REMARK    1  A    between atoms: C_1  and  O_2
REMARK    2  A    between atoms: O_2  and  C_3
REMARK    3  A    between atoms: C_3  and  C_5
REMARK    4  A    between atoms: C_5  and  C_6
REMARK    5  A    between atoms: C_5  and  C_7
REMARK    6  A    between atoms: C_5  and  C_8
REMARK    7  A    between atoms: C_8  and  C_9
REMARK    8  A    between atoms: C_9  and  C_10
REMARK    9  A    between atoms: C_10  and  O_11
REMARK   10  A    between atoms: O_11  and  C_12
REMARK   11  A    between atoms: C_16  and  O_17
REMARK   12  A    between atoms: O_17  and  C_18
REMARK   13  A    between atoms: C_18  and  C_19
REMARK   14  A    between atoms: C_19  and  C_20
REMARK   15  A    between atoms: C_20  and  C_21
REMARK   16  A    between atoms: C_21  and  C_22
REMARK   17  A    between atoms: C_21  and  C_23
REMARK   18  A    between atoms: C_21  and  C_24
REMARK   19  A    between atoms: C_24  and  O_26
REMARK   20  A    between atoms: O_26  and  C_27
REMARK                            x       y       z     vdW  Elec       q    Type
REMARK                         _______ _______ _______ _____ _____    ______ ____
ROOT
ATOM      1  C   UNL     1       7.399   7.371  17.731  0.00  0.00    +0.000 A 
ATOM      2  C   UNL     1       7.971   6.567  18.720  0.00  0.00    +0.000 A 
ATOM      3  C   UNL     1       7.255   5.498  19.262  0.00  0.00    +0.000 A 
ATOM      4  C   UNL     1       5.964   5.226  18.811  0.00  0.00    +0.000 A 
ATOM      5  C   UNL     1       5.403   6.002  17.800  0.00  0.00    +0.000 A 
ATOM      6  C   UNL     1       6.116   7.076  17.273  0.00  0.00    +0.000 A 
ENDROOT
BRANCH   1   7
ATOM      7  O   UNL     1       8.172   8.413  17.298  0.00  0.00    +0.000 OA
BRANCH   7   8
ATOM      8  C   UNL     1       8.016   9.659  17.978  0.00  0.00    +0.000 C 
BRANCH   8   9
ATOM      9  C   UNL     1       9.385  10.105  18.464  0.00  0.00    +0.000 C 
BRANCH   9  10
ATOM     10  C   UNL     1       9.272  10.873  19.784  0.00  0.00    +0.000 C 
BRANCH  10  11
ATOM     11  C   UNL     1      10.212  12.100  19.880  0.00  0.00    +0.000 C 
ATOM     12  C   UNL     1      11.655  11.710  19.516  0.00  0.00    +0.000 C 
ATOM     13  C   UNL     1      10.205  12.640  21.320  0.00  0.00    +0.000 C 
BRANCH  11  14
ATOM     14  C   UNL     1       9.724  13.206  18.943  0.00  0.00    +0.000 C 
ATOM     15  O   UNL     1       8.571  13.327  18.544  0.00  0.00    +0.000 OA
BRANCH  14  17
ATOM     16  C   UNL     1      10.310  15.368  18.263  0.00  0.00    +0.000 C 
ATOM     17  O   UNL     1      10.741  14.058  18.627  0.00  0.00    +0.000 OA
ENDBRANCH  14  17
ENDBRANCH  11  14
ENDBRANCH  10  11
ENDBRANCH   9  10
ENDBRANCH   8   9
ENDBRANCH   7   8
ENDBRANCH   1   7
BRANCH   5  18
ATOM     18  O   UNL     1       4.144   5.652  17.398  0.00  0.00    +0.000 OA
BRANCH  18  19
ATOM     19  C   UNL     1       3.109   6.562  17.780  0.00  0.00    +0.000 C 
BRANCH  19  20
ATOM     20  C   UNL     1       2.101   5.773  18.599  0.00  0.00    +0.000 C 
BRANCH  20  21
ATOM     21  C   UNL     1       1.941   4.347  18.068  0.00  0.00    +0.000 C 
BRANCH  21  22
ATOM     22  C   UNL     1       1.653   3.272  19.151  0.00  0.00    +0.000 C 
ATOM     23  C   UNL     1       1.516   3.926  20.535  0.00  0.00    +0.000 C 
ATOM     24  C   UNL     1       0.380   2.487  18.800  0.00  0.00    +0.000 C 
BRANCH  22  25
ATOM     25  C   UNL     1       2.833   2.290  19.189  0.00  0.00    +0.000 C 
ATOM     26  O   UNL     1       3.219   1.622  18.235  0.00  0.00    +0.000 OA
BRANCH  25  27
ATOM     27  O   UNL     1       3.405   2.258  20.425  0.00  0.00    +0.000 OA
ATOM     28  C   UNL     1       4.820   2.077  20.417  0.00  0.00    +0.000 C 
ENDBRANCH  25  27
ENDBRANCH  22  25
ENDBRANCH  21  22
ENDBRANCH  20  21
ENDBRANCH  19  20
ENDBRANCH  18  19
ENDBRANCH   5  18
TORSDOF 14
ENDMDL
MODEL 3
REMARK VINA RESULT:      -6.7      4.443      7.825
REMARK  Name = 
REMARK  20 active torsions:
REMARK  status: ('A' for Active; 'I' for Inactive)
REMARK    1  A    between atoms: C_1  and  O_2
REMARK    2  A    between atoms: O_2  and  C_3
REMARK    3  A    between atoms: C_3  and  C_5
REMARK    4  A    between atoms: C_5  and  C_6
REMARK    5  A    between atoms: C_5  and  C_7
REMARK    6  A    between atoms: C_5  and  C_8
REMARK    7  A    between atoms: C_8  and  C_9
REMARK    8  A    between atoms: C_9  and  C_10
REMARK    9  A    between atoms: C_10  and  O_11
REMARK   10  A    between atoms: O_11  and  C_12
REMARK   11  A    between atoms: C_16  and  O_17
REMARK   12  A    between atoms: O_17  and  C_18
REMARK   13  A    between atoms: C_18  and  C_19
REMARK   14  A    between atoms: C_19  and  C_20
REMARK   15  A    between atoms: C_20  and  C_21
REMARK   16  A    between atoms: C_21  and  C_22
REMARK   17  A    between atoms: C_21  and  C_23
REMARK   18  A    between atoms: C_21  and  C_24
REMARK   19  A    between atoms: C_24  and  O_26
REMARK   20  A    between atoms: O_26  and  C_27
REMARK                            x       y       z     vdW  Elec       q    Type
REMARK                         _______ _______ _______ _____ _____    ______ ____
ROOT
ATOM      1  C   UNL     1       2.048   7.005  19.379  0.00  0.00    +0.000 A 
ATOM      2  C   UNL     1       1.788   6.428  20.624  0.00  0.00    +0.000 A 
ATOM      3  C   UNL     1       1.727   5.039  20.759  0.00  0.00    +0.000 A 
ATOM      4  C   UNL     1       1.932   4.223  19.648  0.00  0.00    +0.000 A 
ATOM      5  C   UNL     1       2.226   4.793  18.412  0.00  0.00    +0.000 A 
ATOM      6  C   UNL     1       2.272   6.179  18.280  0.00  0.00    +0.000 A 
ENDROOT
BRANCH   1   7
ATOM      7  O   UNL     1       2.047   8.372  19.351  0.00  0.00    +0.000 OA
BRANCH   7   8
ATOM      8  C   UNL     1       2.236   8.992  18.078  0.00  0.00    +0.000 C 
BRANCH   8   9
ATOM      9  C   UNL     1       1.421  10.274  18.052  0.00  0.00    +0.000 C 
BRANCH   9  10
ATOM     10  C   UNL     1       0.139  10.122  18.878  0.00  0.00    +0.000 C 
BRANCH  10  11
ATOM     11  C   UNL     1      -0.380  11.450  19.482  0.00  0.00    +0.000 C 
ATOM     12  C   UNL     1      -1.903  11.570  19.302  0.00  0.00    +0.000 C 
ATOM     13  C   UNL     1       0.286  12.636  18.763  0.00  0.00    +0.000 C 
BRANCH  11  14
ATOM     14  C   UNL     1      -0.028  11.521  20.968  0.00  0.00    +0.000 C 
ATOM     15  O   UNL     1       1.110  11.626  21.413  0.00  0.00    +0.000 OA
BRANCH  14  17
ATOM     16  C   UNL     1      -0.984  10.794  22.978  0.00  0.00    +0.000 C 
ATOM     17  O   UNL     1      -1.154  11.476  21.737  0.00  0.00    +0.000 OA
ENDBRANCH  14  17
ENDBRANCH  11  14
ENDBRANCH  10  11
ENDBRANCH   9  10
ENDBRANCH   8   9
ENDBRANCH   7   8
ENDBRANCH   1   7
BRANCH   5  18
ATOM     18  O   UNL     1       2.440   3.921  17.380  0.00  0.00    +0.000 OA
BRANCH  18  19
ATOM     19  C   UNL     1       3.542   3.027  17.558  0.00  0.00    +0.000 C 
BRANCH  19  20
ATOM     20  C   UNL     1       4.660   3.510  16.649  0.00  0.00    +0.000 C 
BRANCH  20  21
ATOM     21  C   UNL     1       5.625   4.437  17.391  0.00  0.00    +0.000 C 
BRANCH  21  22
ATOM     22  C   UNL     1       6.228   5.581  16.532  0.00  0.00    +0.000 C 
ATOM     23  C   UNL     1       6.955   5.006  15.305  0.00  0.00    +0.000 C 
ATOM     24  C   UNL     1       5.128   6.559  16.094  0.00  0.00    +0.000 C 
BRANCH  22  25
ATOM     25  C   UNL     1       7.246   6.348  17.387  0.00  0.00    +0.000 C 
ATOM     26  O   UNL     1       7.706   5.951  18.453  0.00  0.00    +0.000 OA
BRANCH  25  27
ATOM     27  O   UNL     1       7.581   7.535  16.806  0.00  0.00    +0.000 OA
ATOM     28  C   UNL     1       7.843   8.591  17.727  0.00  0.00    +0.000 C 
ENDBRANCH  25  27
ENDBRANCH  22  25
ENDBRANCH  21  22
ENDBRANCH  20  21
ENDBRANCH  19  20
ENDBRANCH  18  19
ENDBRANCH   5  18
TORSDOF 14
ENDMDL
MODEL 4
REMARK VINA RESULT:      -6.7      1.023     10.066
REMARK  Name = 
REMARK  20 active torsions:
REMARK  status: ('A' for Active; 'I' for Inactive)
REMARK    1  A    between atoms: C_1  and  O_2
REMARK    2  A    between atoms: O_2  and  C_3
REMARK    3  A    between atoms: C_3  and  C_5
REMARK    4  A    between atoms: C_5  and  C_6
REMARK    5  A    between atoms: C_5  and  C_7
REMARK    6  A    between atoms: C_5  and  C_8
REMARK    7  A    between atoms: C_8  and  C_9
REMARK    8  A    between atoms: C_9  and  C_10
REMARK    9  A    between atoms: C_10  and  O_11
REMARK   10  A    between atoms: O_11  and  C_12
REMARK   11  A    between atoms: C_16  and  O_17
REMARK   12  A    between atoms: O_17  and  C_18
REMARK   13  A    between atoms: C_18  and  C_19
REMARK   14  A    between atoms: C_19  and  C_20
REMARK   15  A    between atoms: C_20  and  C_21
REMARK   16  A    between atoms: C_21  and  C_22
REMARK   17  A    between atoms: C_21  and  C_23
REMARK   18  A    between atoms: C_21  and  C_24
REMARK   19  A    between atoms: C_24  and  O_26
REMARK   20  A    between atoms: O_26  and  C_27
REMARK                            x       y       z     vdW  Elec       q    Type
REMARK                         _______ _______ _______ _____ _____    ______ ____
ROOT
ATOM      1  C   UNL     1       7.706   7.498  17.794  0.00  0.00    +0.000 A 
ATOM      2  C   UNL     1       8.256   6.924  18.942  0.00  0.00    +0.000 A 
ATOM      3  C   UNL     1       8.165   5.547  19.156  0.00  0.00    +0.000 A 
ATOM      4  C   UNL     1       7.526   4.739  18.216  0.00  0.00    +0.000 A 
ATOM      5  C   UNL     1       7.006   5.302  17.054  0.00  0.00    +0.000 A 
ATOM      6  C   UNL     1       7.087   6.678  16.853  0.00  0.00    +0.000 A 
ENDROOT
BRANCH   1   7
ATOM      7  O   UNL     1       7.817   8.859  17.704  0.00  0.00    +0.000 OA
BRANCH   7   8
ATOM      8  C   UNL     1       8.741   9.492  18.590  0.00  0.00    +0.000 C 
BRANCH   8   9
ATOM      9  C   UNL     1       8.950  10.919  18.112  0.00  0.00    +0.000 C 
BRANCH   9  10
ATOM     10  C   UNL     1       9.577  11.778  19.214  0.00  0.00    +0.000 C 
BRANCH  10  11
ATOM     11  C   UNL     1      10.874  12.506  18.784  0.00  0.00    +0.000 C 
ATOM     12  C   UNL     1      11.495  11.827  17.551  0.00  0.00    +0.000 C 
ATOM     13  C   UNL     1      11.897  12.455  19.931  0.00  0.00    +0.000 C 
BRANCH  11  14
ATOM     14  C   UNL     1      10.570  13.971  18.467  0.00  0.00    +0.000 C 
ATOM     15  O   UNL     1      10.671  14.483  17.357  0.00  0.00    +0.000 OA
BRANCH  14  17
ATOM     16  C   UNL     1       9.023  15.484  19.363  0.00  0.00    +0.000 C 
ATOM     17  O   UNL     1      10.146  14.631  19.583  0.00  0.00    +0.000 OA
ENDBRANCH  14  17
ENDBRANCH  11  14
ENDBRANCH  10  11
ENDBRANCH   9  10
ENDBRANCH   8   9
ENDBRANCH   7   8
ENDBRANCH   1   7
BRANCH   5  18
ATOM     18  O   UNL     1       6.419   4.437  16.173  0.00  0.00    +0.000 OA
BRANCH  18  19
ATOM     19  C   UNL     1       5.067   4.748  15.825  0.00  0.00    +0.000 C 
BRANCH  19  20
ATOM     20  C   UNL     1       4.172   4.024  16.818  0.00  0.00    +0.000 C 
BRANCH  20  21
ATOM     21  C   UNL     1       3.984   4.838  18.099  0.00  0.00    +0.000 C 
BRANCH  21  22
ATOM     22  C   UNL     1       2.657   4.570  18.859  0.00  0.00    +0.000 C 
ATOM     23  C   UNL     1       2.136   5.864  19.506  0.00  0.00    +0.000 C 
ATOM     24  C   UNL     1       1.604   3.985  17.906  0.00  0.00    +0.000 C 
BRANCH  22  25
ATOM     25  C   UNL     1       2.930   3.544  19.968  0.00  0.00    +0.000 C 
ATOM     26  O   UNL     1       3.715   2.606  19.877  0.00  0.00    +0.000 OA
BRANCH  25  27
ATOM     27  O   UNL     1       2.187   3.812  21.079  0.00  0.00    +0.000 OA
ATOM     28  C   UNL     1       1.488   2.688  21.609  0.00  0.00    +0.000 C 
ENDBRANCH  25  27
ENDBRANCH  22  25
ENDBRANCH  21  22
ENDBRANCH  20  21
ENDBRANCH  19  20
ENDBRANCH  18  19
ENDBRANCH   5  18
TORSDOF 14
ENDMDL
MODEL 5
REMARK VINA RESULT:      -6.6      4.581      7.332
REMARK  Name = 
REMARK  20 active torsions:
REMARK  status: ('A' for Active; 'I' for Inactive)
REMARK    1  A    between atoms: C_1  and  O_2
REMARK    2  A    between atoms: O_2  and  C_3
REMARK    3  A    between atoms: C_3  and  C_5
REMARK    4  A    between atoms: C_5  and  C_6
REMARK    5  A    between atoms: C_5  and  C_7
REMARK    6  A    between atoms: C_5  and  C_8
REMARK    7  A    between atoms: C_8  and  C_9
REMARK    8  A    between atoms: C_9  and  C_10
REMARK    9  A    between atoms: C_10  and  O_11
REMARK   10  A    between atoms: O_11  and  C_12
REMARK   11  A    between atoms: C_16  and  O_17
REMARK   12  A    between atoms: O_17  and  C_18
REMARK   13  A    between atoms: C_18  and  C_19
REMARK   14  A    between atoms: C_19  and  C_20
REMARK   15  A    between atoms: C_20  and  C_21
REMARK   16  A    between atoms: C_21  and  C_22
REMARK   17  A    between atoms: C_21  and  C_23
REMARK   18  A    between atoms: C_21  and  C_24
REMARK   19  A    between atoms: C_24  and  O_26
REMARK   20  A    between atoms: O_26  and  C_27
REMARK                            x       y       z     vdW  Elec       q    Type
REMARK                         _______ _______ _______ _____ _____    ______ ____
ROOT
ATOM      1  C   UNL     1       4.832   4.530  19.251  0.00  0.00    +0.000 A 
ATOM      2  C   UNL     1       4.078   3.361  19.123  0.00  0.00    +0.000 A 
ATOM      3  C   UNL     1       2.684   3.412  19.173  0.00  0.00    +0.000 A 
ATOM      4  C   UNL     1       2.038   4.636  19.345  0.00  0.00    +0.000 A 
ATOM      5  C   UNL     1       2.784   5.808  19.437  0.00  0.00    +0.000 A 
ATOM      6  C   UNL     1       4.175   5.750  19.402  0.00  0.00    +0.000 A 
ENDROOT
BRANCH   1   7
ATOM      7  O   UNL     1       6.189   4.362  19.228  0.00  0.00    +0.000 OA
BRANCH   7   8
ATOM      8  C   UNL     1       6.987   5.546  19.283  0.00  0.00    +0.000 C 
BRANCH   8   9
ATOM      9  C   UNL     1       7.248   6.005  17.859  0.00  0.00    +0.000 C 
BRANCH   9  10
ATOM     10  C   UNL     1       7.277   4.813  16.897  0.00  0.00    +0.000 C 
BRANCH  10  11
ATOM     11  C   UNL     1       6.170   4.852  15.815  0.00  0.00    +0.000 C 
ATOM     12  C   UNL     1       5.285   6.098  15.987  0.00  0.00    +0.000 C 
ATOM     13  C   UNL     1       5.279   3.605  15.948  0.00  0.00    +0.000 C 
BRANCH  11  14
ATOM     14  C   UNL     1       6.801   4.854  14.422  0.00  0.00    +0.000 C 
ATOM     15  O   UNL     1       7.891   5.346  14.148  0.00  0.00    +0.000 OA
BRANCH  14  17
ATOM     16  C   UNL     1       6.698   3.664  12.408  0.00  0.00    +0.000 C 
ATOM     17  O   UNL     1       5.999   4.212  13.525  0.00  0.00    +0.000 OA
ENDBRANCH  14  17
ENDBRANCH  11  14
ENDBRANCH  10  11
ENDBRANCH   9  10
ENDBRANCH   8   9
ENDBRANCH   7   8
ENDBRANCH   1   7
BRANCH   5  18
ATOM     18  O   UNL     1       2.073   6.967  19.578  0.00  0.00    +0.000 OA
BRANCH  18  19
ATOM     19  C   UNL     1       1.569   7.215  20.894  0.00  0.00    +0.000 C 
BRANCH  19  20
ATOM     20  C   UNL     1       0.985   8.618  20.891  0.00  0.00    +0.000 C 
BRANCH  20  21
ATOM     21  C   UNL     1       1.200   9.312  19.545  0.00  0.00    +0.000 C 
BRANCH  21  22
ATOM     22  C   UNL     1       0.287  10.540  19.286  0.00  0.00    +0.000 C 
ATOM     23  C   UNL     1      -0.679  10.256  18.124  0.00  0.00    +0.000 C 
ATOM     24  C   UNL     1      -0.496  10.903  20.557  0.00  0.00    +0.000 C 
BRANCH  22  25
ATOM     25  C   UNL     1       1.173  11.735  18.904  0.00  0.00    +0.000 C 
ATOM     26  O   UNL     1       2.164  11.670  18.185  0.00  0.00    +0.000 OA
BRANCH  25  27
ATOM     27  O   UNL     1       0.711  12.888  19.466  0.00  0.00    +0.000 OA
ATOM     28  C   UNL     1       1.716  13.871  19.709  0.00  0.00    +0.000 C 
ENDBRANCH  25  27
ENDBRANCH  22  25
ENDBRANCH  21  22
ENDBRANCH  20  21
ENDBRANCH  19  20
ENDBRANCH  18  19
ENDBRANCH   5  18
TORSDOF 14
ENDMDL
MODEL 6
REMARK VINA RESULT:      -6.6      1.701      9.766
REMARK  Name = 
REMARK  20 active torsions:
REMARK  status: ('A' for Active; 'I' for Inactive)
REMARK    1  A    between atoms: C_1  and  O_2
REMARK    2  A    between atoms: O_2  and  C_3
REMARK    3  A    between atoms: C_3  and  C_5
REMARK    4  A    between atoms: C_5  and  C_6
REMARK    5  A    between atoms: C_5  and  C_7
REMARK    6  A    between atoms: C_5  and  C_8
REMARK    7  A    between atoms: C_8  and  C_9
REMARK    8  A    between atoms: C_9  and  C_10
REMARK    9  A    between atoms: C_10  and  O_11
REMARK   10  A    between atoms: O_11  and  C_12
REMARK   11  A    between atoms: C_16  and  O_17
REMARK   12  A    between atoms: O_17  and  C_18
REMARK   13  A    between atoms: C_18  and  C_19
REMARK   14  A    between atoms: C_19  and  C_20
REMARK   15  A    between atoms: C_20  and  C_21
REMARK   16  A    between atoms: C_21  and  C_22
REMARK   17  A    between atoms: C_21  and  C_23
REMARK   18  A    between atoms: C_21  and  C_24
REMARK   19  A    between atoms: C_24  and  O_26
REMARK   20  A    between atoms: O_26  and  C_27
REMARK                            x       y       z     vdW  Elec       q    Type
REMARK                         _______ _______ _______ _____ _____    ______ ____
ROOT
ATOM      1  C   UNL     1       6.866   6.462  17.086  0.00  0.00    +0.000 A 
ATOM      2  C   UNL     1       6.750   5.703  15.919  0.00  0.00    +0.000 A 
ATOM      3  C   UNL     1       6.065   4.486  15.934  0.00  0.00    +0.000 A 
ATOM      4  C   UNL     1       5.489   4.027  17.117  0.00  0.00    +0.000 A 
ATOM      5  C   UNL     1       5.571   4.797  18.275  0.00  0.00    +0.000 A 
ATOM      6  C   UNL     1       6.268   6.003  18.258  0.00  0.00    +0.000 A 
ENDROOT
BRANCH   1   7
ATOM      7  O   UNL     1       7.589   7.617  16.969  0.00  0.00    +0.000 OA
BRANCH   7   8
ATOM      8  C   UNL     1       8.193   8.124  18.160  0.00  0.00    +0.000 C 
BRANCH   8   9
ATOM      9  C   UNL     1       8.420   9.615  17.976  0.00  0.00    +0.000 C 
BRANCH   9  10
ATOM     10  C   UNL     1       9.294  10.177  19.101  0.00  0.00    +0.000 C 
BRANCH  10  11
ATOM     11  C   UNL     1       9.857  11.591  18.813  0.00  0.00    +0.000 C 
ATOM     12  C   UNL     1       8.747  12.523  18.299  0.00  0.00    +0.000 C 
ATOM     13  C   UNL     1      10.949  11.499  17.734  0.00  0.00    +0.000 C 
BRANCH  11  14
ATOM     14  C   UNL     1      10.475  12.175  20.084  0.00  0.00    +0.000 C 
ATOM     15  O   UNL     1      11.623  11.969  20.462  0.00  0.00    +0.000 OA
BRANCH  14  17
ATOM     16  C   UNL     1       9.277  12.558  22.059  0.00  0.00    +0.000 C 
ATOM     17  O   UNL     1       9.584  12.980  20.731  0.00  0.00    +0.000 OA
ENDBRANCH  14  17
ENDBRANCH  11  14
ENDBRANCH  10  11
ENDBRANCH   9  10
ENDBRANCH   8   9
ENDBRANCH   7   8
ENDBRANCH   1   7
BRANCH   5  18
ATOM     18  O   UNL     1       4.957   4.287  19.385  0.00  0.00    +0.000 OA
BRANCH  18  19
ATOM     19  C   UNL     1       5.225   2.907  19.648  0.00  0.00    +0.000 C 
BRANCH  19  20
ATOM     20  C   UNL     1       3.970   2.319  20.273  0.00  0.00    +0.000 C 
BRANCH  20  21
ATOM     21  C   UNL     1       2.787   2.364  19.304  0.00  0.00    +0.000 C 
BRANCH  21  22
ATOM     22  C   UNL     1       1.505   3.037  19.864  0.00  0.00    +0.000 C 
ATOM     23  C   UNL     1       0.268   2.577  19.074  0.00  0.00    +0.000 C 
ATOM     24  C   UNL     1       1.339   2.714  21.356  0.00  0.00    +0.000 C 
BRANCH  22  25
ATOM     25  C   UNL     1       1.645   4.558  19.710  0.00  0.00    +0.000 C 
ATOM     26  O   UNL     1       1.567   5.365  20.631  0.00  0.00    +0.000 OA
BRANCH  25  27
ATOM     27  O   UNL     1       1.876   4.901  18.411  0.00  0.00    +0.000 OA
ATOM     28  C   UNL     1       2.324   6.242  18.225  0.00  0.00    +0.000 C 
ENDBRANCH  25  27
ENDBRANCH  22  25
ENDBRANCH  21  22
ENDBRANCH  20  21
ENDBRANCH  19  20
ENDBRANCH  18  19
ENDBRANCH   5  18
TORSDOF 14
ENDMDL
MODEL 7
REMARK VINA RESULT:      -6.5      4.760      8.445
REMARK  Name = 
REMARK  20 active torsions:
REMARK  status: ('A' for Active; 'I' for Inactive)
REMARK    1  A    between atoms: C_1  and  O_2
REMARK    2  A    between atoms: O_2  and  C_3
REMARK    3  A    between atoms: C_3  and  C_5
REMARK    4  A    between atoms: C_5  and  C_6
REMARK    5  A    between atoms: C_5  and  C_7
REMARK    6  A    between atoms: C_5  and  C_8
REMARK    7  A    between atoms: C_8  and  C_9
REMARK    8  A    between atoms: C_9  and  C_10
REMARK    9  A    between atoms: C_10  and  O_11
REMARK   10  A    between atoms: O_11  and  C_12
REMARK   11  A    between atoms: C_16  and  O_17
REMARK   12  A    between atoms: O_17  and  C_18
REMARK   13  A    between atoms: C_18  and  C_19
REMARK   14  A    between atoms: C_19  and  C_20
REMARK   15  A    between atoms: C_20  and  C_21
REMARK   16  A    between atoms: C_21  and  C_22
REMARK   17  A    between atoms: C_21  and  C_23
REMARK   18  A    between atoms: C_21  and  C_24
REMARK   19  A    between atoms: C_24  and  O_26
REMARK   20  A    between atoms: O_26  and  C_27
REMARK                            x       y       z     vdW  Elec       q    Type
REMARK                         _______ _______ _______ _____ _____    ______ ____
ROOT
ATOM      1  C   UNL     1       1.882   4.883  18.234  0.00  0.00    +0.000 A 
ATOM      2  C   UNL     1       1.787   4.449  19.558  0.00  0.00    +0.000 A 
ATOM      3  C   UNL     1       1.813   5.371  20.606  0.00  0.00    +0.000 A 
ATOM      4  C   UNL     1       1.928   6.733  20.331  0.00  0.00    +0.000 A 
ATOM      5  C   UNL     1       1.988   7.173  19.011  0.00  0.00    +0.000 A 
ATOM      6  C   UNL     1       1.976   6.248  17.970  0.00  0.00    +0.000 A 
ENDROOT
BRANCH   1   7
ATOM      7  O   UNL     1       1.886   3.895  17.288  0.00  0.00    +0.000 OA
BRANCH   7   8
ATOM      8  C   UNL     1       3.100   3.158  17.129  0.00  0.00    +0.000 C 
BRANCH   8   9
ATOM      9  C   UNL     1       4.257   4.142  17.163  0.00  0.00    +0.000 C 
BRANCH   9  10
ATOM     10  C   UNL     1       5.322   3.768  16.128  0.00  0.00    +0.000 C 
BRANCH  10  11
ATOM     11  C   UNL     1       6.156   4.970  15.621  0.00  0.00    +0.000 C 
ATOM     12  C   UNL     1       5.289   6.239  15.542  0.00  0.00    +0.000 C 
ATOM     13  C   UNL     1       6.695   4.664  14.214  0.00  0.00    +0.000 C 
BRANCH  11  14
ATOM     14  C   UNL     1       7.342   5.214  16.555  0.00  0.00    +0.000 C 
ATOM     15  O   UNL     1       7.972   4.332  17.131  0.00  0.00    +0.000 OA
BRANCH  14  17
ATOM     16  C   UNL     1       7.729   7.029  17.982  0.00  0.00    +0.000 C 
ATOM     17  O   UNL     1       7.625   6.545  16.644  0.00  0.00    +0.000 OA
ENDBRANCH  14  17
ENDBRANCH  11  14
ENDBRANCH  10  11
ENDBRANCH   9  10
ENDBRANCH   8   9
ENDBRANCH   7   8
ENDBRANCH   1   7
BRANCH   5  18
ATOM     18  O   UNL     1       2.073   8.525  18.828  0.00  0.00    +0.000 OA
BRANCH  18  19
ATOM     19  C   UNL     1       1.218   9.307  19.668  0.00  0.00    +0.000 C 
BRANCH  19  20
ATOM     20  C   UNL     1       0.140   9.902  18.776  0.00  0.00    +0.000 C 
BRANCH  20  21
ATOM     21  C   UNL     1      -1.024  10.456  19.599  0.00  0.00    +0.000 C 
BRANCH  21  22
ATOM     22  C   UNL     1      -1.639  11.777  19.062  0.00  0.00    +0.000 C 
ATOM     23  C   UNL     1      -2.316  12.557  20.200  0.00  0.00    +0.000 C 
ATOM     24  C   UNL     1      -0.556  12.636  18.391  0.00  0.00    +0.000 C 
BRANCH  22  25
ATOM     25  C   UNL     1      -2.700  11.427  18.009  0.00  0.00    +0.000 C 
ATOM     26  O   UNL     1      -3.846  11.068  18.263  0.00  0.00    +0.000 OA
BRANCH  25  27
ATOM     27  O   UNL     1      -2.207  11.573  16.747  0.00  0.00    +0.000 OA
ATOM     28  C   UNL     1      -2.810  10.721  15.775  0.00  0.00    +0.000 C 
ENDBRANCH  25  27
ENDBRANCH  22  25
ENDBRANCH  21  22
ENDBRANCH  20  21
ENDBRANCH  19  20
ENDBRANCH  18  19
ENDBRANCH   5  18
TORSDOF 14
ENDMDL
MODEL 8
REMARK VINA RESULT:      -6.5      1.357      2.083
REMARK  Name = 
REMARK  20 active torsions:
REMARK  status: ('A' for Active; 'I' for Inactive)
REMARK    1  A    between atoms: C_1  and  O_2
REMARK    2  A    between atoms: O_2  and  C_3
REMARK    3  A    between atoms: C_3  and  C_5
REMARK    4  A    between atoms: C_5  and  C_6
REMARK    5  A    between atoms: C_5  and  C_7
REMARK    6  A    between atoms: C_5  and  C_8
REMARK    7  A    between atoms: C_8  and  C_9
REMARK    8  A    between atoms: C_9  and  C_10
REMARK    9  A    between atoms: C_10  and  O_11
REMARK   10  A    between atoms: O_11  and  C_12
REMARK   11  A    between atoms: C_16  and  O_17
REMARK   12  A    between atoms: O_17  and  C_18
REMARK   13  A    between atoms: C_18  and  C_19
REMARK   14  A    between atoms: C_19  and  C_20
REMARK   15  A    between atoms: C_20  and  C_21
REMARK   16  A    between atoms: C_21  and  C_22
REMARK   17  A    between atoms: C_21  and  C_23
REMARK   18  A    between atoms: C_21  and  C_24
REMARK   19  A    between atoms: C_24  and  O_26
REMARK   20  A    between atoms: O_26  and  C_27
REMARK                            x       y       z     vdW  Elec       q    Type
REMARK                         _______ _______ _______ _____ _____    ______ ____
ROOT
ATOM      1  C   UNL     1       7.157   5.334  16.638  0.00  0.00    +0.000 A 
ATOM      2  C   UNL     1       7.504   4.651  17.806  0.00  0.00    +0.000 A 
ATOM      3  C   UNL     1       7.956   5.352  18.926  0.00  0.00    +0.000 A 
ATOM      4  C   UNL     1       8.056   6.742  18.882  0.00  0.00    +0.000 A 
ATOM      5  C   UNL     1       7.677   7.430  17.731  0.00  0.00    +0.000 A 
ATOM      6  C   UNL     1       7.241   6.724  16.613  0.00  0.00    +0.000 A 
ENDROOT
BRANCH   1   7
ATOM      7  O   UNL     1       6.765   4.548  15.590  0.00  0.00    +0.000 OA
BRANCH   7   8
ATOM      8  C   UNL     1       5.710   3.617  15.838  0.00  0.00    +0.000 C 
BRANCH   8   9
ATOM      9  C   UNL     1       4.586   4.356  16.543  0.00  0.00    +0.000 C 
BRANCH   9  10
ATOM     10  C   UNL     1       3.594   3.371  17.170  0.00  0.00    +0.000 C 
BRANCH  10  11
ATOM     11  C   UNL     1       2.898   3.906  18.446  0.00  0.00    +0.000 C 
ATOM     12  C   UNL     1       3.160   2.973  19.640  0.00  0.00    +0.000 C 
ATOM     13  C   UNL     1       1.379   3.976  18.211  0.00  0.00    +0.000 C 
BRANCH  11  14
ATOM     14  C   UNL     1       3.406   5.312  18.768  0.00  0.00    +0.000 C 
ATOM     15  O   UNL     1       4.406   5.559  19.435  0.00  0.00    +0.000 OA
BRANCH  14  17
ATOM     16  C   UNL     1       2.450   7.439  18.979  0.00  0.00    +0.000 C 
ATOM     17  O   UNL     1       2.612   6.259  18.193  0.00  0.00    +0.000 OA
ENDBRANCH  14  17
ENDBRANCH  11  14
ENDBRANCH  10  11
ENDBRANCH   9  10
ENDBRANCH   8   9
ENDBRANCH   7   8
ENDBRANCH   1   7
BRANCH   5  18
ATOM     18  O   UNL     1       7.781   8.792  17.780  0.00  0.00    +0.000 OA
BRANCH  18  19
ATOM     19  C   UNL     1       8.735   9.296  18.720  0.00  0.00    +0.000 C 
BRANCH  19  20
ATOM     20  C   UNL     1       9.144  10.680  18.244  0.00  0.00    +0.000 C 
BRANCH  20  21
ATOM     21  C   UNL     1      10.232  11.281  19.136  0.00  0.00    +0.000 C 
BRANCH  21  22
ATOM     22  C   UNL     1      10.664  12.724  18.762  0.00  0.00    +0.000 C 
ATOM     23  C   UNL     1      11.781  13.211  19.700  0.00  0.00    +0.000 C 
ATOM     24  C   UNL     1      11.128  12.783  17.299  0.00  0.00    +0.000 C 
BRANCH  22  25
ATOM     25  C   UNL     1       9.452  13.653  18.924  0.00  0.00    +0.000 C 
ATOM     26  O   UNL     1       8.794  13.773  19.953  0.00  0.00    +0.000 OA
BRANCH  25  27
ATOM     27  O   UNL     1       9.201  14.337  17.772  0.00  0.00    +0.000 OA
ATOM     28  C   UNL     1       8.906  15.720  17.959  0.00  0.00    +0.000 C 
ENDBRANCH  25  27
ENDBRANCH  22  25
ENDBRANCH  21  22
ENDBRANCH  20  21
ENDBRANCH  19  20
ENDBRANCH  18  19
ENDBRANCH   5  18
TORSDOF 14
ENDMDL
MODEL 9
REMARK VINA RESULT:      -6.5      1.614      2.741
REMARK  Name = 
REMARK  20 active torsions:
REMARK  status: ('A' for Active; 'I' for Inactive)
REMARK    1  A    between atoms: C_1  and  O_2
REMARK    2  A    between atoms: O_2  and  C_3
REMARK    3  A    between atoms: C_3  and  C_5
REMARK    4  A    between atoms: C_5  and  C_6
REMARK    5  A    between atoms: C_5  and  C_7
REMARK    6  A    between atoms: C_5  and  C_8
REMARK    7  A    between atoms: C_8  and  C_9
REMARK    8  A    between atoms: C_9  and  C_10
REMARK    9  A    between atoms: C_10  and  O_11
REMARK   10  A    between atoms: O_11  and  C_12
REMARK   11  A    between atoms: C_16  and  O_17
REMARK   12  A    between atoms: O_17  and  C_18
REMARK   13  A    between atoms: C_18  and  C_19
REMARK   14  A    between atoms: C_19  and  C_20
REMARK   15  A    between atoms: C_20  and  C_21
REMARK   16  A    between atoms: C_21  and  C_22
REMARK   17  A    between atoms: C_21  and  C_23
REMARK   18  A    between atoms: C_21  and  C_24
REMARK   19  A    between atoms: C_24  and  O_26
REMARK   20  A    between atoms: O_26  and  C_27
REMARK                            x       y       z     vdW  Elec       q    Type
REMARK                         _______ _______ _______ _____ _____    ______ ____
ROOT
ATOM      1  C   UNL     1       4.698   5.825  17.785  0.00  0.00    +0.000 A 
ATOM      2  C   UNL     1       5.338   4.748  18.401  0.00  0.00    +0.000 A 
ATOM      3  C   UNL     1       6.728   4.737  18.539  0.00  0.00    +0.000 A 
ATOM      4  C   UNL     1       7.481   5.810  18.064  0.00  0.00    +0.000 A 
ATOM      5  C   UNL     1       6.845   6.902  17.480  0.00  0.00    +0.000 A 
ATOM      6  C   UNL     1       5.460   6.900  17.332  0.00  0.00    +0.000 A 
ENDROOT
BRANCH   1   7
ATOM      7  O   UNL     1       3.340   5.715  17.667  0.00  0.00    +0.000 OA
BRANCH   7   8
ATOM      8  C   UNL     1       2.552   6.286  18.713  0.00  0.00    +0.000 C 
BRANCH   8   9
ATOM      9  C   UNL     1       1.716   5.179  19.332  0.00  0.00    +0.000 C 
BRANCH   9  10
ATOM     10  C   UNL     1       2.420   4.581  20.553  0.00  0.00    +0.000 C 
BRANCH  10  11
ATOM     11  C   UNL     1       2.356   3.035  20.622  0.00  0.00    +0.000 C 
ATOM     12  C   UNL     1       1.434   2.579  21.766  0.00  0.00    +0.000 C 
ATOM     13  C   UNL     1       3.764   2.474  20.881  0.00  0.00    +0.000 C 
BRANCH  11  14
ATOM     14  C   UNL     1       1.845   2.475  19.294  0.00  0.00    +0.000 C 
ATOM     15  O   UNL     1       0.662   2.379  18.983  0.00  0.00    +0.000 OA
BRANCH  14  17
ATOM     16  C   UNL     1       2.682   2.419  17.108  0.00  0.00    +0.000 C 
ATOM     17  O   UNL     1       2.884   2.115  18.487  0.00  0.00    +0.000 OA
ENDBRANCH  14  17
ENDBRANCH  11  14
ENDBRANCH  10  11
ENDBRANCH   9  10
ENDBRANCH   8   9
ENDBRANCH   7   8
ENDBRANCH   1   7
BRANCH   5  18
ATOM     18  O   UNL     1       7.654   7.922  17.065  0.00  0.00    +0.000 OA
BRANCH  18  19
ATOM     19  C   UNL     1       8.372   8.591  18.107  0.00  0.00    +0.000 C 
BRANCH  19  20
ATOM     20  C   UNL     1       8.249  10.083  17.847  0.00  0.00    +0.000 C 
BRANCH  20  21
ATOM     21  C   UNL     1       9.469  10.845  18.369  0.00  0.00    +0.000 C 
BRANCH  21  22
ATOM     22  C   UNL     1       9.422  12.382  18.159  0.00  0.00    +0.000 C 
ATOM     23  C   UNL     1      10.654  12.855  17.369  0.00  0.00    +0.000 C 
ATOM     24  C   UNL     1       8.131  12.784  17.431  0.00  0.00    +0.000 C 
BRANCH  22  25
ATOM     25  C   UNL     1       9.435  13.062  19.535  0.00  0.00    +0.000 C 
ATOM     26  O   UNL     1       9.163  14.242  19.736  0.00  0.00    +0.000 OA
BRANCH  25  27
ATOM     27  O   UNL     1       9.782  12.182  20.515  0.00  0.00    +0.000 OA
ATOM     28  C   UNL     1       9.481  12.620  21.838  0.00  0.00    +0.000 C 
ENDBRANCH  25  27
ENDBRANCH  22  25
ENDBRANCH  21  22
ENDBRANCH  20  21
ENDBRANCH  19  20
ENDBRANCH  18  19
ENDBRANCH   5  18
TORSDOF 14
ENDMDL
