MODEL 1
REMARK VINA RESULT:      -7.0      0.000      0.000
REMARK  Name = 
REMARK  12 active torsions:
REMARK  status: ('A' for Active; 'I' for Inactive)
REMARK    1  A    between atoms: C_1  and  C_2
REMARK    2  A    between atoms: C_2  and  C_3
REMARK    3  A    between atoms: C_2  and  C_4
REMARK    4  A    between atoms: C_4  and  C_5
REMARK    5  A    between atoms: C_5  and  C_6
REMARK    6  A    between atoms: C_6  and  C_7
REMARK    7  A    between atoms: C_7  and  C_8
REMARK    8  A    between atoms: C_7  and  C_9
REMARK    9  A    between atoms: C_9  and  C_10
REMARK   10  A    between atoms: C_10  and  C_11
REMARK   11  A    between atoms: C_13  and  O_14
REMARK   12  A    between atoms: C_17  and  O_18
REMARK                            x       y       z     vdW  Elec       q    Type
REMARK                         _______ _______ _______ _____ _____    ______ ____
ROOT
ATOM      1  C   UNL     1       4.008   5.314  17.446  0.00  0.00    +0.000 C 
ENDROOT
BRANCH   1   2
ATOM      2  C   UNL     1       5.400   5.757  17.812  0.00  0.00    +0.000 A 
ATOM      3  C   UNL     1       5.973   5.313  19.011  0.00  0.00    +0.000 A 
ATOM      4  C   UNL     1       7.244   5.743  19.372  0.00  0.00    +0.000 A 
ATOM      5  C   UNL     1       7.963   6.617  18.562  0.00  0.00    +0.000 A 
ATOM      6  C   UNL     1       7.411   7.054  17.361  0.00  0.00    +0.000 A 
ATOM      7  C   UNL     1       6.140   6.620  16.989  0.00  0.00    +0.000 A 
BRANCH   4   8
ATOM      8  O   UNL     1       7.832   5.323  20.531  0.00  0.00    +0.000 OA
ATOM      9  H   UNL     1       7.683   6.000  21.210  0.00  0.00    +0.000 HD
ENDBRANCH   4   8
BRANCH   7  10
ATOM     10  O   UNL     1       5.589   7.044  15.814  0.00  0.00    +0.000 OA
ATOM     11  H   UNL     1       5.359   6.267  15.278  0.00  0.00    +0.000 HD
ENDBRANCH   7  10
ENDBRANCH   1   2
BRANCH   1  12
ATOM     12  C   UNL     1       3.940   3.830  17.071  0.00  0.00    +0.000 C 
BRANCH  12  13
ATOM     13  C   UNL     1       2.524   3.231  17.223  0.00  0.00    +0.000 C 
ATOM     14  C   UNL     1       1.530   4.357  17.548  0.00  0.00    +0.000 C 
BRANCH  13  15
ATOM     15  C   UNL     1       2.508   2.124  18.298  0.00  0.00    +0.000 C 
BRANCH  15  16
ATOM     16  C   UNL     1       3.792   2.067  19.116  0.00  0.00    +0.000 C 
BRANCH  16  17
ATOM     17  C   UNL     1       3.573   2.561  20.547  0.00  0.00    +0.000 C 
BRANCH  17  19
ATOM     18  C   UNL     1       1.425   2.531  21.845  0.00  0.00    +0.000 C 
ATOM     19  C   UNL     1       2.198   3.226  20.725  0.00  0.00    +0.000 C 
ATOM     20  C   UNL     1       2.306   4.723  21.024  0.00  0.00    +0.000 C 
ENDBRANCH  17  19
ENDBRANCH  16  17
ENDBRANCH  15  16
ENDBRANCH  13  15
ENDBRANCH  12  13
ENDBRANCH   1  12
TORSDOF 9
ENDMDL
MODEL 2
REMARK VINA RESULT:      -6.4      3.781      6.604
REMARK  Name = 
REMARK  12 active torsions:
REMARK  status: ('A' for Active; 'I' for Inactive)
REMARK    1  A    between atoms: C_1  and  C_2
REMARK    2  A    between atoms: C_2  and  C_3
REMARK    3  A    between atoms: C_2  and  C_4
REMARK    4  A    between atoms: C_4  and  C_5
REMARK    5  A    between atoms: C_5  and  C_6
REMARK    6  A    between atoms: C_6  and  C_7
REMARK    7  A    between atoms: C_7  and  C_8
REMARK    8  A    between atoms: C_7  and  C_9
REMARK    9  A    between atoms: C_9  and  C_10
REMARK   10  A    between atoms: C_10  and  C_11
REMARK   11  A    between atoms: C_13  and  O_14
REMARK   12  A    between atoms: C_17  and  O_18
REMARK                            x       y       z     vdW  Elec       q    Type
REMARK                         _______ _______ _______ _____ _____    ______ ____
ROOT
ATOM      1  C   UNL     1       3.531   3.994  16.809  0.00  0.00    +0.000 C 
ENDROOT
BRANCH   1   2
ATOM      2  C   UNL     1       2.751   4.026  18.096  0.00  0.00    +0.000 A 
ATOM      3  C   UNL     1       2.697   5.211  18.842  0.00  0.00    +0.000 A 
ATOM      4  C   UNL     1       2.005   5.240  20.047  0.00  0.00    +0.000 A 
ATOM      5  C   UNL     1       1.364   4.105  20.534  0.00  0.00    +0.000 A 
ATOM      6  C   UNL     1       1.398   2.925  19.796  0.00  0.00    +0.000 A 
ATOM      7  C   UNL     1       2.083   2.891  18.583  0.00  0.00    +0.000 A 
BRANCH   4   8
ATOM      8  O   UNL     1       1.929   6.381  20.793  0.00  0.00    +0.000 OA
ATOM      9  H   UNL     1       1.362   7.013  20.326  0.00  0.00    +0.000 HD
ENDBRANCH   4   8
BRANCH   7  10
ATOM     10  O   UNL     1       2.123   1.739  17.852  0.00  0.00    +0.000 OA
ATOM     11  H   UNL     1       3.032   1.598  17.539  0.00  0.00    +0.000 HD
ENDBRANCH   7  10
ENDBRANCH   1   2
BRANCH   1  12
ATOM     12  C   UNL     1       5.046   3.957  17.037  0.00  0.00    +0.000 C 
BRANCH  12  13
ATOM     13  C   UNL     1       5.841   4.700  15.940  0.00  0.00    +0.000 C 
ATOM     14  C   UNL     1       5.252   6.105  15.749  0.00  0.00    +0.000 C 
BRANCH  13  15
ATOM     15  C   UNL     1       5.844   3.895  14.624  0.00  0.00    +0.000 C 
BRANCH  15  16
ATOM     16  C   UNL     1       6.927   4.344  13.651  0.00  0.00    +0.000 C 
BRANCH  16  17
ATOM     17  C   UNL     1       6.576   3.982  12.207  0.00  0.00    +0.000 C 
BRANCH  17  19
ATOM     18  C   UNL     1       4.262   3.412  11.418  0.00  0.00    +0.000 C 
ATOM     19  C   UNL     1       5.506   2.881  12.131  0.00  0.00    +0.000 C 
ATOM     20  C   UNL     1       6.011   1.623  11.421  0.00  0.00    +0.000 C 
ENDBRANCH  17  19
ENDBRANCH  16  17
ENDBRANCH  15  16
ENDBRANCH  13  15
ENDBRANCH  12  13
ENDBRANCH   1  12
TORSDOF 9
ENDMDL
MODEL 3
REMARK VINA RESULT:      -6.3      1.795      3.010
REMARK  Name = 
REMARK  12 active torsions:
REMARK  status: ('A' for Active; 'I' for Inactive)
REMARK    1  A    between atoms: C_1  and  C_2
REMARK    2  A    between atoms: C_2  and  C_3
REMARK    3  A    between atoms: C_2  and  C_4
REMARK    4  A    between atoms: C_4  and  C_5
REMARK    5  A    between atoms: C_5  and  C_6
REMARK    6  A    between atoms: C_6  and  C_7
REMARK    7  A    between atoms: C_7  and  C_8
REMARK    8  A    between atoms: C_7  and  C_9
REMARK    9  A    between atoms: C_9  and  C_10
REMARK   10  A    between atoms: C_10  and  C_11
REMARK   11  A    between atoms: C_13  and  O_14
REMARK   12  A    between atoms: C_17  and  O_18
REMARK                            x       y       z     vdW  Elec       q    Type
REMARK                         _______ _______ _______ _____ _____    ______ ____
ROOT
ATOM      1  C   UNL     1       5.164   3.894  16.786  0.00  0.00    +0.000 C 
ENDROOT
BRANCH   1   2
ATOM      2  C   UNL     1       6.132   4.891  17.363  0.00  0.00    +0.000 A 
ATOM      3  C   UNL     1       6.602   4.720  18.672  0.00  0.00    +0.000 A 
ATOM      4  C   UNL     1       7.471   5.652  19.224  0.00  0.00    +0.000 A 
ATOM      5  C   UNL     1       7.883   6.767  18.498  0.00  0.00    +0.000 A 
ATOM      6  C   UNL     1       7.436   6.941  17.192  0.00  0.00    +0.000 A 
ATOM      7  C   UNL     1       6.570   6.005  16.630  0.00  0.00    +0.000 A 
BRANCH   4   8
ATOM      8  O   UNL     1       7.951   5.510  20.494  0.00  0.00    +0.000 OA
ATOM      9  H   UNL     1       7.202   5.547  21.109  0.00  0.00    +0.000 HD
ENDBRANCH   4   8
BRANCH   7  10
ATOM     10  O   UNL     1       6.124   6.168  15.349  0.00  0.00    +0.000 OA
ATOM     11  H   UNL     1       6.711   5.679  14.749  0.00  0.00    +0.000 HD
ENDBRANCH   7  10
ENDBRANCH   1   2
BRANCH   1  12
ATOM     12  C   UNL     1       3.704   4.239  17.095  0.00  0.00    +0.000 C 
BRANCH  12  13
ATOM     13  C   UNL     1       3.163   3.517  18.349  0.00  0.00    +0.000 C 
ATOM     14  C   UNL     1       2.271   2.344  17.913  0.00  0.00    +0.000 C 
BRANCH  13  15
ATOM     15  C   UNL     1       2.409   4.500  19.268  0.00  0.00    +0.000 C 
BRANCH  15  16
ATOM     16  C   UNL     1       3.207   5.762  19.576  0.00  0.00    +0.000 C 
BRANCH  16  17
ATOM     17  C   UNL     1       2.326   7.011  19.542  0.00  0.00    +0.000 C 
BRANCH  17  19
ATOM     18  C   UNL     1       1.604   9.013  18.211  0.00  0.00    +0.000 C 
ATOM     19  C   UNL     1       2.261   7.635  18.139  0.00  0.00    +0.000 C 
ATOM     20  C   UNL     1       3.641   7.755  17.488  0.00  0.00    +0.000 C 
ENDBRANCH  17  19
ENDBRANCH  16  17
ENDBRANCH  15  16
ENDBRANCH  13  15
ENDBRANCH  12  13
ENDBRANCH   1  12
TORSDOF 9
ENDMDL
MODEL 4
REMARK VINA RESULT:      -6.2      2.518      5.698
REMARK  Name = 
REMARK  12 active torsions:
REMARK  status: ('A' for Active; 'I' for Inactive)
REMARK    1  A    between atoms: C_1  and  C_2
REMARK    2  A    between atoms: C_2  and  C_3
REMARK    3  A    between atoms: C_2  and  C_4
REMARK    4  A    between atoms: C_4  and  C_5
REMARK    5  A    between atoms: C_5  and  C_6
REMARK    6  A    between atoms: C_6  and  C_7
REMARK    7  A    between atoms: C_7  and  C_8
REMARK    8  A    between atoms: C_7  and  C_9
REMARK    9  A    between atoms: C_9  and  C_10
REMARK   10  A    between atoms: C_10  and  C_11
REMARK   11  A    between atoms: C_13  and  O_14
REMARK   12  A    between atoms: C_17  and  O_18
REMARK                            x       y       z     vdW  Elec       q    Type
REMARK                         _______ _______ _______ _____ _____    ______ ____
ROOT
ATOM      1  C   UNL     1       4.746   5.482  19.387  0.00  0.00    +0.000 C 
ENDROOT
BRANCH   1   2
ATOM      2  C   UNL     1       3.921   4.376  18.787  0.00  0.00    +0.000 A 
ATOM      3  C   UNL     1       4.354   3.049  18.904  0.00  0.00    +0.000 A 
ATOM      4  C   UNL     1       3.615   2.025  18.326  0.00  0.00    +0.000 A 
ATOM      5  C   UNL     1       2.445   2.294  17.622  0.00  0.00    +0.000 A 
ATOM      6  C   UNL     1       1.995   3.606  17.510  0.00  0.00    +0.000 A 
ATOM      7  C   UNL     1       2.728   4.637  18.095  0.00  0.00    +0.000 A 
BRANCH   4   8
ATOM      8  O   UNL     1       4.009   0.721  18.429  0.00  0.00    +0.000 OA
ATOM      9  H   UNL     1       4.936   0.660  18.149  0.00  0.00    +0.000 HD
ENDBRANCH   4   8
BRANCH   7  10
ATOM     10  O   UNL     1       2.296   5.928  17.990  0.00  0.00    +0.000 OA
ATOM     11  H   UNL     1       2.788   6.476  18.624  0.00  0.00    +0.000 HD
ENDBRANCH   7  10
ENDBRANCH   1   2
BRANCH   1  12
ATOM     12  C   UNL     1       5.712   6.113  18.379  0.00  0.00    +0.000 C 
BRANCH  12  13
ATOM     13  C   UNL     1       7.194   5.796  18.679  0.00  0.00    +0.000 C 
ATOM     14  C   UNL     1       8.043   7.050  18.422  0.00  0.00    +0.000 C 
BRANCH  13  15
ATOM     15  C   UNL     1       7.679   4.593  17.843  0.00  0.00    +0.000 C 
BRANCH  15  16
ATOM     16  C   UNL     1       7.337   4.717  16.363  0.00  0.00    +0.000 C 
BRANCH  16  17
ATOM     17  C   UNL     1       6.232   3.743  15.954  0.00  0.00    +0.000 C 
BRANCH  17  19
ATOM     18  C   UNL     1       5.312   5.802  14.852  0.00  0.00    +0.000 C 
ATOM     19  C   UNL     1       5.395   4.278  14.781  0.00  0.00    +0.000 C 
ATOM     20  C   UNL     1       5.955   3.854  13.421  0.00  0.00    +0.000 C 
ENDBRANCH  17  19
ENDBRANCH  16  17
ENDBRANCH  15  16
ENDBRANCH  13  15
ENDBRANCH  12  13
ENDBRANCH   1  12
TORSDOF 9
ENDMDL
MODEL 5
REMARK VINA RESULT:      -6.2      3.448      6.449
REMARK  Name = 
REMARK  12 active torsions:
REMARK  status: ('A' for Active; 'I' for Inactive)
REMARK    1  A    between atoms: C_1  and  C_2
REMARK    2  A    between atoms: C_2  and  C_3
REMARK    3  A    between atoms: C_2  and  C_4
REMARK    4  A    between atoms: C_4  and  C_5
REMARK    5  A    between atoms: C_5  and  C_6
REMARK    6  A    between atoms: C_6  and  C_7
REMARK    7  A    between atoms: C_7  and  C_8
REMARK    8  A    between atoms: C_7  and  C_9
REMARK    9  A    between atoms: C_9  and  C_10
REMARK   10  A    between atoms: C_10  and  C_11
REMARK   11  A    between atoms: C_13  and  O_14
REMARK   12  A    between atoms: C_17  and  O_18
REMARK                            x       y       z     vdW  Elec       q    Type
REMARK                         _______ _______ _______ _____ _____    ______ ____
ROOT
ATOM      1  C   UNL     1       3.535   3.976  17.086  0.00  0.00    +0.000 C 
ENDROOT
BRANCH   1   2
ATOM      2  C   UNL     1       2.688   3.977  18.331  0.00  0.00    +0.000 A 
ATOM      3  C   UNL     1       2.611   5.136  19.113  0.00  0.00    +0.000 A 
ATOM      4  C   UNL     1       1.857   5.136  20.280  0.00  0.00    +0.000 A 
ATOM      5  C   UNL     1       1.176   3.995  20.694  0.00  0.00    +0.000 A 
ATOM      6  C   UNL     1       1.233   2.840  19.919  0.00  0.00    +0.000 A 
ATOM      7  C   UNL     1       1.980   2.837  18.742  0.00  0.00    +0.000 A 
BRANCH   4   8
ATOM      8  O   UNL     1       1.758   6.253  21.060  0.00  0.00    +0.000 OA
ATOM      9  H   UNL     1       2.373   6.159  21.804  0.00  0.00    +0.000 HD
ENDBRANCH   4   8
BRANCH   7  10
ATOM     10  O   UNL     1       2.043   1.709  17.976  0.00  0.00    +0.000 OA
ATOM     11  H   UNL     1       1.266   1.683  17.393  0.00  0.00    +0.000 HD
ENDBRANCH   7  10
ENDBRANCH   1   2
BRANCH   1  12
ATOM     12  C   UNL     1       4.372   5.250  16.939  0.00  0.00    +0.000 C 
BRANCH  12  13
ATOM     13  C   UNL     1       5.883   5.011  17.153  0.00  0.00    +0.000 C 
ATOM     14  C   UNL     1       6.627   6.351  17.062  0.00  0.00    +0.000 C 
BRANCH  13  15
ATOM     15  C   UNL     1       6.425   3.983  16.138  0.00  0.00    +0.000 C 
BRANCH  15  16
ATOM     16  C   UNL     1       6.639   4.570  14.749  0.00  0.00    +0.000 C 
BRANCH  16  17
ATOM     17  C   UNL     1       5.453   4.288  13.826  0.00  0.00    +0.000 C 
BRANCH  17  19
ATOM     18  C   UNL     1       4.663   3.262  11.676  0.00  0.00    +0.000 C 
ATOM     19  C   UNL     1       5.848   3.408  12.629  0.00  0.00    +0.000 C 
ATOM     20  C   UNL     1       7.056   3.960  11.871  0.00  0.00    +0.000 C 
ENDBRANCH  17  19
ENDBRANCH  16  17
ENDBRANCH  15  16
ENDBRANCH  13  15
ENDBRANCH  12  13
ENDBRANCH   1  12
TORSDOF 9
ENDMDL
MODEL 6
REMARK VINA RESULT:      -6.2      3.281      6.336
REMARK  Name = 
REMARK  12 active torsions:
REMARK  status: ('A' for Active; 'I' for Inactive)
REMARK    1  A    between atoms: C_1  and  C_2
REMARK    2  A    between atoms: C_2  and  C_3
REMARK    3  A    between atoms: C_2  and  C_4
REMARK    4  A    between atoms: C_4  and  C_5
REMARK    5  A    between atoms: C_5  and  C_6
REMARK    6  A    between atoms: C_6  and  C_7
REMARK    7  A    between atoms: C_7  and  C_8
REMARK    8  A    between atoms: C_7  and  C_9
REMARK    9  A    between atoms: C_9  and  C_10
REMARK   10  A    between atoms: C_10  and  C_11
REMARK   11  A    between atoms: C_13  and  O_14
REMARK   12  A    between atoms: C_17  and  O_18
REMARK                            x       y       z     vdW  Elec       q    Type
REMARK                         _______ _______ _______ _____ _____    ______ ____
ROOT
ATOM      1  C   UNL     1       3.904   6.499  17.841  0.00  0.00    +0.000 C 
ENDROOT
BRANCH   1   2
ATOM      2  C   UNL     1       3.056   5.393  18.410  0.00  0.00    +0.000 A 
ATOM      3  C   UNL     1       2.934   4.186  17.710  0.00  0.00    +0.000 A 
ATOM      4  C   UNL     1       2.128   3.172  18.212  0.00  0.00    +0.000 A 
ATOM      5  C   UNL     1       1.428   3.335  19.404  0.00  0.00    +0.000 A 
ATOM      6  C   UNL     1       1.552   4.524  20.118  0.00  0.00    +0.000 A 
ATOM      7  C   UNL     1       2.366   5.542  19.623  0.00  0.00    +0.000 A 
BRANCH   4   8
ATOM      8  O   UNL     1       1.994   1.982  17.556  0.00  0.00    +0.000 OA
ATOM      9  H   UNL     1       2.874   1.585  17.463  0.00  0.00    +0.000 HD
ENDBRANCH   4   8
BRANCH   7  10
ATOM     10  O   UNL     1       2.493   6.712  20.315  0.00  0.00    +0.000 OA
ATOM     11  H   UNL     1       1.970   6.651  21.132  0.00  0.00    +0.000 HD
ENDBRANCH   7  10
ENDBRANCH   1   2
BRANCH   1  12
ATOM     12  C   UNL     1       4.792   6.028  16.685  0.00  0.00    +0.000 C 
BRANCH  12  13
ATOM     13  C   UNL     1       6.226   5.664  17.131  0.00  0.00    +0.000 C 
ATOM     14  C   UNL     1       7.039   6.953  17.323  0.00  0.00    +0.000 C 
BRANCH  13  15
ATOM     15  C   UNL     1       6.892   4.711  16.118  0.00  0.00    +0.000 C 
BRANCH  15  16
ATOM     16  C   UNL     1       5.888   3.860  15.348  0.00  0.00    +0.000 C 
BRANCH  16  17
ATOM     17  C   UNL     1       5.593   4.445  13.967  0.00  0.00    +0.000 C 
BRANCH  17  19
ATOM     18  C   UNL     1       4.872   3.229  11.892  0.00  0.00    +0.000 C 
ATOM     19  C   UNL     1       6.043   3.508  12.834  0.00  0.00    +0.000 C 
ATOM     20  C   UNL     1       7.221   4.075  12.039  0.00  0.00    +0.000 C 
ENDBRANCH  17  19
ENDBRANCH  16  17
ENDBRANCH  15  16
ENDBRANCH  13  15
ENDBRANCH  12  13
ENDBRANCH   1  12
TORSDOF 9
ENDMDL
MODEL 7
REMARK VINA RESULT:      -6.2      3.489      6.611
REMARK  Name = 
REMARK  12 active torsions:
REMARK  status: ('A' for Active; 'I' for Inactive)
REMARK    1  A    between atoms: C_1  and  C_2
REMARK    2  A    between atoms: C_2  and  C_3
REMARK    3  A    between atoms: C_2  and  C_4
REMARK    4  A    between atoms: C_4  and  C_5
REMARK    5  A    between atoms: C_5  and  C_6
REMARK    6  A    between atoms: C_6  and  C_7
REMARK    7  A    between atoms: C_7  and  C_8
REMARK    8  A    between atoms: C_7  and  C_9
REMARK    9  A    between atoms: C_9  and  C_10
REMARK   10  A    between atoms: C_10  and  C_11
REMARK   11  A    between atoms: C_13  and  O_14
REMARK   12  A    between atoms: C_17  and  O_18
REMARK                            x       y       z     vdW  Elec       q    Type
REMARK                         _______ _______ _______ _____ _____    ______ ____
ROOT
ATOM      1  C   UNL     1       3.945   4.902  17.476  0.00  0.00    +0.000 C 
ENDROOT
BRANCH   1   2
ATOM      2  C   UNL     1       2.843   4.419  18.380  0.00  0.00    +0.000 A 
ATOM      3  C   UNL     1       2.056   3.328  17.988  0.00  0.00    +0.000 A 
ATOM      4  C   UNL     1       1.016   2.895  18.801  0.00  0.00    +0.000 A 
ATOM      5  C   UNL     1       0.735   3.533  20.006  0.00  0.00    +0.000 A 
ATOM      6  C   UNL     1       1.518   4.609  20.414  0.00  0.00    +0.000 A 
ATOM      7  C   UNL     1       2.568   5.043  19.607  0.00  0.00    +0.000 A 
BRANCH   4   8
ATOM      8  O   UNL     1       0.236   1.831  18.449  0.00  0.00    +0.000 OA
ATOM      9  H   UNL     1      -0.457   1.727  19.120  0.00  0.00    +0.000 HD
ENDBRANCH   4   8
BRANCH   7  10
ATOM     10  O   UNL     1       3.340   6.098  19.998  0.00  0.00    +0.000 OA
ATOM     11  H   UNL     1       3.332   6.769  19.295  0.00  0.00    +0.000 HD
ENDBRANCH   7  10
ENDBRANCH   1   2
BRANCH   1  12
ATOM     12  C   UNL     1       5.068   3.874  17.310  0.00  0.00    +0.000 C 
BRANCH  12  13
ATOM     13  C   UNL     1       6.389   4.495  16.803  0.00  0.00    +0.000 C 
ATOM     14  C   UNL     1       7.130   5.143  17.983  0.00  0.00    +0.000 C 
BRANCH  13  15
ATOM     15  C   UNL     1       6.120   5.507  15.670  0.00  0.00    +0.000 C 
BRANCH  15  16
ATOM     16  C   UNL     1       6.563   5.003  14.302  0.00  0.00    +0.000 C 
BRANCH  16  17
ATOM     17  C   UNL     1       5.921   3.658  13.959  0.00  0.00    +0.000 C 
BRANCH  17  19
ATOM     18  C   UNL     1       4.725   3.414  11.766  0.00  0.00    +0.000 C 
ATOM     19  C   UNL     1       6.076   3.306  12.470  0.00  0.00    +0.000 C 
ATOM     20  C   UNL     1       7.101   4.195  11.762  0.00  0.00    +0.000 C 
ENDBRANCH  17  19
ENDBRANCH  16  17
ENDBRANCH  15  16
ENDBRANCH  13  15
ENDBRANCH  12  13
ENDBRANCH   1  12
TORSDOF 9
ENDMDL
MODEL 8
REMARK VINA RESULT:      -6.2      3.740      6.535
REMARK  Name = 
REMARK  12 active torsions:
REMARK  status: ('A' for Active; 'I' for Inactive)
REMARK    1  A    between atoms: C_1  and  C_2
REMARK    2  A    between atoms: C_2  and  C_3
REMARK    3  A    between atoms: C_2  and  C_4
REMARK    4  A    between atoms: C_4  and  C_5
REMARK    5  A    between atoms: C_5  and  C_6
REMARK    6  A    between atoms: C_6  and  C_7
REMARK    7  A    between atoms: C_7  and  C_8
REMARK    8  A    between atoms: C_7  and  C_9
REMARK    9  A    between atoms: C_9  and  C_10
REMARK   10  A    between atoms: C_10  and  C_11
REMARK   11  A    between atoms: C_13  and  O_14
REMARK   12  A    between atoms: C_17  and  O_18
REMARK                            x       y       z     vdW  Elec       q    Type
REMARK                         _______ _______ _______ _____ _____    ______ ____
ROOT
ATOM      1  C   UNL     1       4.529   3.572  17.967  0.00  0.00    +0.000 C 
ENDROOT
BRANCH   1   2
ATOM      2  C   UNL     1       3.296   3.806  18.799  0.00  0.00    +0.000 A 
ATOM      3  C   UNL     1       3.160   5.006  19.509  0.00  0.00    +0.000 A 
ATOM      4  C   UNL     1       2.040   5.217  20.304  0.00  0.00    +0.000 A 
ATOM      5  C   UNL     1       1.046   4.249  20.414  0.00  0.00    +0.000 A 
ATOM      6  C   UNL     1       1.162   3.058  19.702  0.00  0.00    +0.000 A 
ATOM      7  C   UNL     1       2.279   2.844  18.896  0.00  0.00    +0.000 A 
BRANCH   4   8
ATOM      8  O   UNL     1       1.876   6.378  21.004  0.00  0.00    +0.000 OA
ATOM      9  H   UNL     1       1.031   6.329  21.479  0.00  0.00    +0.000 HD
ENDBRANCH   4   8
BRANCH   7  10
ATOM     10  O   UNL     1       2.403   1.679  18.195  0.00  0.00    +0.000 OA
ATOM     11  H   UNL     1       3.197   1.211  18.504  0.00  0.00    +0.000 HD
ENDBRANCH   7  10
ENDBRANCH   1   2
BRANCH   1  12
ATOM     12  C   UNL     1       4.425   4.187  16.568  0.00  0.00    +0.000 C 
BRANCH  12  13
ATOM     13  C   UNL     1       5.649   5.052  16.194  0.00  0.00    +0.000 C 
ATOM     14  C   UNL     1       5.167   6.400  15.638  0.00  0.00    +0.000 C 
BRANCH  13  15
ATOM     15  C   UNL     1       6.560   4.311  15.192  0.00  0.00    +0.000 C 
BRANCH  15  16
ATOM     16  C   UNL     1       5.786   3.646  14.060  0.00  0.00    +0.000 C 
BRANCH  16  17
ATOM     17  C   UNL     1       6.508   3.793  12.720  0.00  0.00    +0.000 C 
BRANCH  17  19
ATOM     18  C   UNL     1       6.018   1.659  11.491  0.00  0.00    +0.000 C 
ATOM     19  C   UNL     1       5.718   3.156  11.565  0.00  0.00    +0.000 C 
ATOM     20  C   UNL     1       4.209   3.374  11.698  0.00  0.00    +0.000 C 
ENDBRANCH  17  19
ENDBRANCH  16  17
ENDBRANCH  15  16
ENDBRANCH  13  15
ENDBRANCH  12  13
ENDBRANCH   1  12
TORSDOF 9
ENDMDL
MODEL 9
REMARK VINA RESULT:      -6.1      3.658      6.622
REMARK  Name = 
REMARK  12 active torsions:
REMARK  status: ('A' for Active; 'I' for Inactive)
REMARK    1  A    between atoms: C_1  and  C_2
REMARK    2  A    between atoms: C_2  and  C_3
REMARK    3  A    between atoms: C_2  and  C_4
REMARK    4  A    between atoms: C_4  and  C_5
REMARK    5  A    between atoms: C_5  and  C_6
REMARK    6  A    between atoms: C_6  and  C_7
REMARK    7  A    between atoms: C_7  and  C_8
REMARK    8  A    between atoms: C_7  and  C_9
REMARK    9  A    between atoms: C_9  and  C_10
REMARK   10  A    between atoms: C_10  and  C_11
REMARK   11  A    between atoms: C_13  and  O_14
REMARK   12  A    between atoms: C_17  and  O_18
REMARK                            x       y       z     vdW  Elec       q    Type
REMARK                         _______ _______ _______ _____ _____    ______ ____
ROOT
ATOM      1  C   UNL     1       3.356   5.159  17.281  0.00  0.00    +0.000 C 
ENDROOT
BRANCH   1   2
ATOM      2  C   UNL     1       2.641   4.576  18.471  0.00  0.00    +0.000 A 
ATOM      3  C   UNL     1       1.637   3.619  18.273  0.00  0.00    +0.000 A 
ATOM      4  C   UNL     1       0.950   3.100  19.363  0.00  0.00    +0.000 A 
ATOM      5  C   UNL     1       1.238   3.519  20.659  0.00  0.00    +0.000 A 
ATOM      6  C   UNL     1       2.243   4.459  20.871  0.00  0.00    +0.000 A 
ATOM      7  C   UNL     1       2.942   4.977  19.782  0.00  0.00    +0.000 A 
BRANCH   4   8
ATOM      8  O   UNL     1      -0.029   2.162  19.204  0.00  0.00    +0.000 OA
ATOM      9  H   UNL     1      -0.500   2.066  20.046  0.00  0.00    +0.000 HD
ENDBRANCH   4   8
BRANCH   7  10
ATOM     10  O   UNL     1       3.928   5.901  19.979  0.00  0.00    +0.000 OA
ATOM     11  H   UNL     1       3.541   6.790  19.920  0.00  0.00    +0.000 HD
ENDBRANCH   7  10
ENDBRANCH   1   2
BRANCH   1  12
ATOM     12  C   UNL     1       4.624   4.381  16.914  0.00  0.00    +0.000 C 
BRANCH  12  13
ATOM     13  C   UNL     1       5.771   5.292  16.422  0.00  0.00    +0.000 C 
ATOM     14  C   UNL     1       5.519   6.729  16.901  0.00  0.00    +0.000 C 
BRANCH  13  15
ATOM     15  C   UNL     1       5.913   5.215  14.887  0.00  0.00    +0.000 C 
BRANCH  15  16
ATOM     16  C   UNL     1       5.943   3.786  14.360  0.00  0.00    +0.000 C 
BRANCH  16  17
ATOM     17  C   UNL     1       6.189   3.744  12.852  0.00  0.00    +0.000 C 
BRANCH  17  19
ATOM     18  C   UNL     1       4.214   3.299  11.367  0.00  0.00    +0.000 C 
ATOM     19  C   UNL     1       5.351   2.656  12.160  0.00  0.00    +0.000 C 
ATOM     20  C   UNL     1       6.190   1.771  11.235  0.00  0.00    +0.000 C 
ENDBRANCH  17  19
ENDBRANCH  16  17
ENDBRANCH  15  16
ENDBRANCH  13  15
ENDBRANCH  12  13
ENDBRANCH   1  12
TORSDOF 9
ENDMDL
