MODEL 1
REMARK VINA RESULT:      -8.2      0.000      0.000
REMARK  Name = 
REMARK  6 active torsions:
REMARK  status: ('A' for Active; 'I' for Inactive)
REMARK    1  A    between atoms: C_1  and  C_2
REMARK    2  A    between atoms: C_2  and  C_3
REMARK    3  A    between atoms: C_14  and  C_16
REMARK    4  A    between atoms: C_16  and  O_17
REMARK    5  A    between atoms: O_17  and  C_18
REMARK    6  A    between atoms: C_23  and  C_24
REMARK                            x       y       z     vdW  Elec       q    Type
REMARK                         _______ _______ _______ _____ _____    ______ ____
ROOT
ATOM      1  C   UNL     1       1.813   4.533  20.341  0.00  0.00    +0.000 C 
ATOM      2  C   UNL     1       2.609   4.423  19.031  0.00  0.00    +0.000 C 
ATOM      3  C   UNL     1       1.655   3.765  18.003  0.00  0.00    +0.000 C 
ATOM      4  C   UNL     1       3.746   3.407  19.333  0.00  0.00    +0.000 C 
ATOM      5  O   UNL     1       3.754   2.641  20.298  0.00  0.00    +0.000 OA
ATOM      6  N   UNL     1       4.684   3.247  18.360  0.00  0.00    +0.000 N 
ATOM      7  C   UNL     1       4.861   4.167  17.331  0.00  0.00    +0.000 A 
ATOM      8  C   UNL     1       5.799   3.842  16.340  0.00  0.00    +0.000 A 
ATOM      9  C   UNL     1       6.097   4.755  15.339  0.00  0.00    +0.000 A 
ATOM     10  C   UNL     1       5.455   5.987  15.330  0.00  0.00    +0.000 A 
ATOM     11  C   UNL     1       4.500   6.296  16.310  0.00  0.00    +0.000 A 
ATOM     12  C   UNL     1       4.179   5.400  17.345  0.00  0.00    +0.000 A 
ATOM     13  N   UNL     1       3.208   5.691  18.418  0.00  0.00    +0.000 N 
ATOM     14  C   UNL     1       2.904   7.032  18.703  0.00  0.00    +0.000 C 
ATOM     15  O   UNL     1       3.459   7.989  18.137  0.00  0.00    +0.000 OA
ATOM     16  H   UNL     1       5.324   2.471  18.473  0.00  0.00    +0.000 HD
ENDROOT
BRANCH  14  17
ATOM     17  C   UNL     1       1.950   7.450  19.822  0.00  0.00    +0.000 C 
BRANCH  17  18
ATOM     18  O   UNL     1       1.408   8.753  19.670  0.00  0.00    +0.000 OA
BRANCH  18  19
ATOM     19  C   UNL     1       0.782   9.275  20.780  0.00  0.00    +0.000 A 
ATOM     20  C   UNL     1       1.080   8.908  22.098  0.00  0.00    +0.000 A 
ATOM     21  C   UNL     1       0.362   9.449  23.168  0.00  0.00    +0.000 A 
ATOM     22  C   UNL     1      -0.649  10.378  22.937  0.00  0.00    +0.000 A 
ATOM     23  C   UNL     1      -0.931  10.780  21.633  0.00  0.00    +0.000 A 
ATOM     24  C   UNL     1      -0.214  10.239  20.555  0.00  0.00    +0.000 A 
BRANCH  24  25
ATOM     25  C   UNL     1      -0.545  10.662  19.229  0.00  0.00    +0.000 C 
ATOM     26  N   UNL     1      -0.821  10.974  18.141  0.00  0.00    +0.000 NA
ENDBRANCH  24  25
ENDBRANCH  18  19
ENDBRANCH  17  18
ENDBRANCH  14  17
TORSDOF 4
ENDMDL
MODEL 2
REMARK VINA RESULT:      -8.1      2.279      7.855
REMARK  Name = 
REMARK  6 active torsions:
REMARK  status: ('A' for Active; 'I' for Inactive)
REMARK    1  A    between atoms: C_1  and  C_2
REMARK    2  A    between atoms: C_2  and  C_3
REMARK    3  A    between atoms: C_14  and  C_16
REMARK    4  A    between atoms: C_16  and  O_17
REMARK    5  A    between atoms: O_17  and  C_18
REMARK    6  A    between atoms: C_23  and  C_24
REMARK                            x       y       z     vdW  Elec       q    Type
REMARK                         _______ _______ _______ _____ _____    ______ ____
ROOT
ATOM      1  C   UNL     1       2.076   9.388  17.674  0.00  0.00    +0.000 C 
ATOM      2  C   UNL     1       1.112   9.951  18.730  0.00  0.00    +0.000 C 
ATOM      3  C   UNL     1      -0.292   9.949  18.075  0.00  0.00    +0.000 C 
ATOM      4  C   UNL     1       1.539  11.434  18.917  0.00  0.00    +0.000 C 
ATOM      5  O   UNL     1       2.257  12.054  18.131  0.00  0.00    +0.000 OA
ATOM      6  N   UNL     1       0.919  12.117  19.918  0.00  0.00    +0.000 N 
ATOM      7  C   UNL     1       0.237  11.480  20.950  0.00  0.00    +0.000 A 
ATOM      8  C   UNL     1      -0.435  12.297  21.870  0.00  0.00    +0.000 A 
ATOM      9  C   UNL     1      -1.053  11.734  22.978  0.00  0.00    +0.000 A 
ATOM     10  C   UNL     1      -1.000  10.358  23.159  0.00  0.00    +0.000 A 
ATOM     11  C   UNL     1      -0.348   9.544  22.221  0.00  0.00    +0.000 A 
ATOM     12  C   UNL     1       0.298  10.079  21.093  0.00  0.00    +0.000 A 
ATOM     13  N   UNL     1       1.027   9.269  20.098  0.00  0.00    +0.000 N 
ATOM     14  C   UNL     1       1.485   7.996  20.473  0.00  0.00    +0.000 C 
ATOM     15  O   UNL     1       1.360   7.541  21.622  0.00  0.00    +0.000 OA
ATOM     16  H   UNL     1       1.062  13.119  19.937  0.00  0.00    +0.000 HD
ENDROOT
BRANCH  14  17
ATOM     17  C   UNL     1       2.291   7.092  19.539  0.00  0.00    +0.000 C 
BRANCH  17  18
ATOM     18  O   UNL     1       2.977   6.038  20.197  0.00  0.00    +0.000 OA
BRANCH  18  19
ATOM     19  C   UNL     1       2.531   4.766  19.919  0.00  0.00    +0.000 A 
ATOM     20  C   UNL     1       1.208   4.339  20.093  0.00  0.00    +0.000 A 
ATOM     21  C   UNL     1       0.847   3.014  19.835  0.00  0.00    +0.000 A 
ATOM     22  C   UNL     1       1.796   2.103  19.381  0.00  0.00    +0.000 A 
ATOM     23  C   UNL     1       3.107   2.523  19.168  0.00  0.00    +0.000 A 
ATOM     24  C   UNL     1       3.477   3.852  19.427  0.00  0.00    +0.000 A 
BRANCH  24  25
ATOM     25  C   UNL     1       4.837   4.241  19.214  0.00  0.00    +0.000 C 
ATOM     26  N   UNL     1       5.954   4.525  19.048  0.00  0.00    +0.000 NA
ENDBRANCH  24  25
ENDBRANCH  18  19
ENDBRANCH  17  18
ENDBRANCH  14  17
TORSDOF 4
ENDMDL
MODEL 3
REMARK VINA RESULT:      -8.0      2.605      7.931
REMARK  Name = 
REMARK  6 active torsions:
REMARK  status: ('A' for Active; 'I' for Inactive)
REMARK    1  A    between atoms: C_1  and  C_2
REMARK    2  A    between atoms: C_2  and  C_3
REMARK    3  A    between atoms: C_14  and  C_16
REMARK    4  A    between atoms: C_16  and  O_17
REMARK    5  A    between atoms: O_17  and  C_18
REMARK    6  A    between atoms: C_23  and  C_24
REMARK                            x       y       z     vdW  Elec       q    Type
REMARK                         _______ _______ _______ _____ _____    ______ ____
ROOT
ATOM      1  C   UNL     1       2.136   9.067  17.790  0.00  0.00    +0.000 C 
ATOM      2  C   UNL     1       1.188   9.832  18.726  0.00  0.00    +0.000 C 
ATOM      3  C   UNL     1      -0.193   9.843  18.023  0.00  0.00    +0.000 C 
ATOM      4  C   UNL     1       1.720  11.293  18.735  0.00  0.00    +0.000 C 
ATOM      5  O   UNL     1       2.506  11.751  17.904  0.00  0.00    +0.000 OA
ATOM      6  N   UNL     1       1.125  12.144  19.615  0.00  0.00    +0.000 N 
ATOM      7  C   UNL     1       0.367  11.699  20.694  0.00  0.00    +0.000 A 
ATOM      8  C   UNL     1      -0.268  12.676  21.474  0.00  0.00    +0.000 A 
ATOM      9  C   UNL     1      -0.958  12.310  22.620  0.00  0.00    +0.000 A 
ATOM     10  C   UNL     1      -1.015  10.969  22.980  0.00  0.00    +0.000 A 
ATOM     11  C   UNL     1      -0.399   9.994  22.182  0.00  0.00    +0.000 A 
ATOM     12  C   UNL     1       0.318  10.328  21.019  0.00  0.00    +0.000 A 
ATOM     13  N   UNL     1       1.013   9.344  20.166  0.00  0.00    +0.000 N 
ATOM     14  C   UNL     1       1.362   8.103  20.720  0.00  0.00    +0.000 C 
ATOM     15  O   UNL     1       1.170   7.814  21.913  0.00  0.00    +0.000 OA
ATOM     16  H   UNL     1       1.343  13.127  19.509  0.00  0.00    +0.000 HD
ENDROOT
BRANCH  14  17
ATOM     17  C   UNL     1       2.124   7.028  19.943  0.00  0.00    +0.000 C 
BRANCH  17  18
ATOM     18  O   UNL     1       1.836   5.700  20.351  0.00  0.00    +0.000 OA
BRANCH  18  19
ATOM     19  C   UNL     1       2.057   4.721  19.407  0.00  0.00    +0.000 A 
ATOM     20  C   UNL     1       2.305   4.976  18.052  0.00  0.00    +0.000 A 
ATOM     21  C   UNL     1       2.469   3.924  17.148  0.00  0.00    +0.000 A 
ATOM     22  C   UNL     1       2.407   2.604  17.587  0.00  0.00    +0.000 A 
ATOM     23  C   UNL     1       2.197   2.337  18.938  0.00  0.00    +0.000 A 
ATOM     24  C   UNL     1       2.030   3.389  19.851  0.00  0.00    +0.000 A 
BRANCH  24  25
ATOM     25  C   UNL     1       1.798   3.075  21.227  0.00  0.00    +0.000 C 
ATOM     26  N   UNL     1       1.587   2.794  22.337  0.00  0.00    +0.000 NA
ENDBRANCH  24  25
ENDBRANCH  18  19
ENDBRANCH  17  18
ENDBRANCH  14  17
TORSDOF 4
ENDMDL
MODEL 4
REMARK VINA RESULT:      -7.9      1.269      1.999
REMARK  Name = 
REMARK  6 active torsions:
REMARK  status: ('A' for Active; 'I' for Inactive)
REMARK    1  A    between atoms: C_1  and  C_2
REMARK    2  A    between atoms: C_2  and  C_3
REMARK    3  A    between atoms: C_14  and  C_16
REMARK    4  A    between atoms: C_16  and  O_17
REMARK    5  A    between atoms: O_17  and  C_18
REMARK    6  A    between atoms: C_23  and  C_24
REMARK                            x       y       z     vdW  Elec       q    Type
REMARK                         _______ _______ _______ _____ _____    ______ ____
ROOT
ATOM      1  C   UNL     1       1.593   4.463  20.386  0.00  0.00    +0.000 C 
ATOM      2  C   UNL     1       2.457   4.389  19.117  0.00  0.00    +0.000 C 
ATOM      3  C   UNL     1       1.576   3.712  18.037  0.00  0.00    +0.000 C 
ATOM      4  C   UNL     1       3.607   3.404  19.468  0.00  0.00    +0.000 C 
ATOM      5  O   UNL     1       3.591   2.629  20.426  0.00  0.00    +0.000 OA
ATOM      6  N   UNL     1       4.597   3.281  18.541  0.00  0.00    +0.000 N 
ATOM      7  C   UNL     1       4.798   4.216  17.530  0.00  0.00    +0.000 A 
ATOM      8  C   UNL     1       5.793   3.929  16.585  0.00  0.00    +0.000 A 
ATOM      9  C   UNL     1       6.113   4.860  15.608  0.00  0.00    +0.000 A 
ATOM     10  C   UNL     1       5.435   6.072  15.577  0.00  0.00    +0.000 A 
ATOM     11  C   UNL     1       4.423   6.343  16.510  0.00  0.00    +0.000 A 
ATOM     12  C   UNL     1       4.079   5.428  17.520  0.00  0.00    +0.000 A 
ATOM     13  N   UNL     1       3.047   5.680  18.545  0.00  0.00    +0.000 N 
ATOM     14  C   UNL     1       2.689   7.008  18.825  0.00  0.00    +0.000 C 
ATOM     15  O   UNL     1       3.242   7.987  18.295  0.00  0.00    +0.000 OA
ATOM     16  H   UNL     1       5.254   2.524  18.681  0.00  0.00    +0.000 HD
ENDROOT
BRANCH  14  17
ATOM     17  C   UNL     1       1.668   7.387  19.899  0.00  0.00    +0.000 C 
BRANCH  17  18
ATOM     18  O   UNL     1       1.762   8.732  20.344  0.00  0.00    +0.000 OA
BRANCH  18  19
ATOM     19  C   UNL     1       0.723   9.558  19.978  0.00  0.00    +0.000 A 
ATOM     20  C   UNL     1       0.383   9.855  18.652  0.00  0.00    +0.000 A 
ATOM     21  C   UNL     1      -0.655  10.746  18.365  0.00  0.00    +0.000 A 
ATOM     22  C   UNL     1      -1.380  11.336  19.397  0.00  0.00    +0.000 A 
ATOM     23  C   UNL     1      -1.077  11.021  20.720  0.00  0.00    +0.000 A 
ATOM     24  C   UNL     1      -0.034  10.128  21.014  0.00  0.00    +0.000 A 
BRANCH  24  25
ATOM     25  C   UNL     1       0.260   9.844  22.385  0.00  0.00    +0.000 C 
ATOM     26  N   UNL     1       0.533   9.622  23.495  0.00  0.00    +0.000 NA
ENDBRANCH  24  25
ENDBRANCH  18  19
ENDBRANCH  17  18
ENDBRANCH  14  17
TORSDOF 4
ENDMDL
MODEL 5
REMARK VINA RESULT:      -7.5      1.935      7.885
REMARK  Name = 
REMARK  6 active torsions:
REMARK  status: ('A' for Active; 'I' for Inactive)
REMARK    1  A    between atoms: C_1  and  C_2
REMARK    2  A    between atoms: C_2  and  C_3
REMARK    3  A    between atoms: C_14  and  C_16
REMARK    4  A    between atoms: C_16  and  O_17
REMARK    5  A    between atoms: O_17  and  C_18
REMARK    6  A    between atoms: C_23  and  C_24
REMARK                            x       y       z     vdW  Elec       q    Type
REMARK                         _______ _______ _______ _____ _____    ______ ____
ROOT
ATOM      1  C   UNL     1       2.104   9.651  17.572  0.00  0.00    +0.000 C 
ATOM      2  C   UNL     1       1.128  10.018  18.700  0.00  0.00    +0.000 C 
ATOM      3  C   UNL     1      -0.287   9.995  18.068  0.00  0.00    +0.000 C 
ATOM      4  C   UNL     1       1.458  11.494  19.057  0.00  0.00    +0.000 C 
ATOM      5  O   UNL     1       2.116  12.251  18.341  0.00  0.00    +0.000 OA
ATOM      6  N   UNL     1       0.816  12.010  20.141  0.00  0.00    +0.000 N 
ATOM      7  C   UNL     1       0.201  11.209  21.098  0.00  0.00    +0.000 A 
ATOM      8  C   UNL     1      -0.505  11.863  22.118  0.00  0.00    +0.000 A 
ATOM      9  C   UNL     1      -1.059  11.132  23.159  0.00  0.00    +0.000 A 
ATOM     10  C   UNL     1      -0.910   9.752  23.174  0.00  0.00    +0.000 A 
ATOM     11  C   UNL     1      -0.225   9.101  22.137  0.00  0.00    +0.000 A 
ATOM     12  C   UNL     1       0.359   9.809  21.072  0.00  0.00    +0.000 A 
ATOM     13  N   UNL     1       1.119   9.175  19.978  0.00  0.00    +0.000 N 
ATOM     14  C   UNL     1       1.669   7.901  20.192  0.00  0.00    +0.000 C 
ATOM     15  O   UNL     1       1.600   7.306  21.280  0.00  0.00    +0.000 OA
ATOM     16  H   UNL     1       0.892  13.010  20.277  0.00  0.00    +0.000 HD
ENDROOT
BRANCH  14  17
ATOM     17  C   UNL     1       2.514   7.172  19.146  0.00  0.00    +0.000 C 
BRANCH  17  18
ATOM     18  O   UNL     1       3.072   5.948  19.599  0.00  0.00    +0.000 OA
BRANCH  18  19
ATOM     19  C   UNL     1       4.047   5.400  18.795  0.00  0.00    +0.000 A 
ATOM     20  C   UNL     1       5.414   5.682  18.910  0.00  0.00    +0.000 A 
ATOM     21  C   UNL     1       6.334   5.122  18.021  0.00  0.00    +0.000 A 
ATOM     22  C   UNL     1       5.906   4.259  17.017  0.00  0.00    +0.000 A 
ATOM     23  C   UNL     1       4.553   3.940  16.913  0.00  0.00    +0.000 A 
ATOM     24  C   UNL     1       3.624   4.501  17.802  0.00  0.00    +0.000 A 
BRANCH  24  25
ATOM     25  C   UNL     1       2.241   4.165  17.653  0.00  0.00    +0.000 C 
ATOM     26  N   UNL     1       1.123   3.878  17.500  0.00  0.00    +0.000 NA
ENDBRANCH  24  25
ENDBRANCH  18  19
ENDBRANCH  17  18
ENDBRANCH  14  17
TORSDOF 4
ENDMDL
MODEL 6
REMARK VINA RESULT:      -7.4      1.888      7.679
REMARK  Name = 
REMARK  6 active torsions:
REMARK  status: ('A' for Active; 'I' for Inactive)
REMARK    1  A    between atoms: C_1  and  C_2
REMARK    2  A    between atoms: C_2  and  C_3
REMARK    3  A    between atoms: C_14  and  C_16
REMARK    4  A    between atoms: C_16  and  O_17
REMARK    5  A    between atoms: O_17  and  C_18
REMARK    6  A    between atoms: C_23  and  C_24
REMARK                            x       y       z     vdW  Elec       q    Type
REMARK                         _______ _______ _______ _____ _____    ______ ____
ROOT
ATOM      1  C   UNL     1       2.245   9.482  17.504  0.00  0.00    +0.000 C 
ATOM      2  C   UNL     1       1.251   9.802  18.633  0.00  0.00    +0.000 C 
ATOM      3  C   UNL     1      -0.158   9.756  17.989  0.00  0.00    +0.000 C 
ATOM      4  C   UNL     1       1.542  11.279  19.020  0.00  0.00    +0.000 C 
ATOM      5  O   UNL     1       2.186  12.066  18.324  0.00  0.00    +0.000 OA
ATOM      6  N   UNL     1       0.879  11.757  20.109  0.00  0.00    +0.000 N 
ATOM      7  C   UNL     1       0.278  10.922  21.046  0.00  0.00    +0.000 A 
ATOM      8  C   UNL     1      -0.451  11.538  22.073  0.00  0.00    +0.000 A 
ATOM      9  C   UNL     1      -0.995  10.773  23.095  0.00  0.00    +0.000 A 
ATOM     10  C   UNL     1      -0.811   9.397  23.084  0.00  0.00    +0.000 A 
ATOM     11  C   UNL     1      -0.102   8.784  22.041  0.00  0.00    +0.000 A 
ATOM     12  C   UNL     1       0.471   9.527  20.994  0.00  0.00    +0.000 A 
ATOM     13  N   UNL     1       1.255   8.934  19.893  0.00  0.00    +0.000 N 
ATOM     14  C   UNL     1       1.836   7.671  20.087  0.00  0.00    +0.000 C 
ATOM     15  O   UNL     1       1.774   7.053  21.163  0.00  0.00    +0.000 OA
ATOM     16  H   UNL     1       0.929  12.755  20.265  0.00  0.00    +0.000 HD
ENDROOT
BRANCH  14  17
ATOM     17  C   UNL     1       2.706   6.983  19.033  0.00  0.00    +0.000 C 
BRANCH  17  18
ATOM     18  O   UNL     1       1.994   6.118  18.163  0.00  0.00    +0.000 OA
BRANCH  18  19
ATOM     19  C   UNL     1       2.180   4.770  18.373  0.00  0.00    +0.000 A 
ATOM     20  C   UNL     1       1.316   3.964  19.126  0.00  0.00    +0.000 A 
ATOM     21  C   UNL     1       1.604   2.613  19.335  0.00  0.00    +0.000 A 
ATOM     22  C   UNL     1       2.746   2.043  18.778  0.00  0.00    +0.000 A 
ATOM     23  C   UNL     1       3.594   2.824  17.996  0.00  0.00    +0.000 A 
ATOM     24  C   UNL     1       3.311   4.183  17.785  0.00  0.00    +0.000 A 
BRANCH  24  25
ATOM     25  C   UNL     1       4.216   4.958  16.991  0.00  0.00    +0.000 C 
ATOM     26  N   UNL     1       4.925   5.598  16.327  0.00  0.00    +0.000 NA
ENDBRANCH  24  25
ENDBRANCH  18  19
ENDBRANCH  17  18
ENDBRANCH  14  17
TORSDOF 4
ENDMDL
MODEL 7
REMARK VINA RESULT:      -7.3      3.174      4.971
REMARK  Name = 
REMARK  6 active torsions:
REMARK  status: ('A' for Active; 'I' for Inactive)
REMARK    1  A    between atoms: C_1  and  C_2
REMARK    2  A    between atoms: C_2  and  C_3
REMARK    3  A    between atoms: C_14  and  C_16
REMARK    4  A    between atoms: C_16  and  O_17
REMARK    5  A    between atoms: O_17  and  C_18
REMARK    6  A    between atoms: C_23  and  C_24
REMARK                            x       y       z     vdW  Elec       q    Type
REMARK                         _______ _______ _______ _____ _____    ______ ____
ROOT
ATOM      1  C   UNL     1       6.334   5.450  19.160  0.00  0.00    +0.000 C 
ATOM      2  C   UNL     1       6.786   5.111  17.730  0.00  0.00    +0.000 C 
ATOM      3  C   UNL     1       8.057   4.237  17.878  0.00  0.00    +0.000 C 
ATOM      4  C   UNL     1       7.220   6.469  17.111  0.00  0.00    +0.000 C 
ATOM      5  O   UNL     1       7.455   7.487  17.765  0.00  0.00    +0.000 OA
ATOM      6  N   UNL     1       7.530   6.454  15.786  0.00  0.00    +0.000 N 
ATOM      7  C   UNL     1       7.142   5.422  14.937  0.00  0.00    +0.000 A 
ATOM      8  C   UNL     1       7.600   5.479  13.613  0.00  0.00    +0.000 A 
ATOM      9  C   UNL     1       7.173   4.537  12.688  0.00  0.00    +0.000 A 
ATOM     10  C   UNL     1       6.293   3.541  13.091  0.00  0.00    +0.000 A 
ATOM     11  C   UNL     1       5.857   3.475  14.422  0.00  0.00    +0.000 A 
ATOM     12  C   UNL     1       6.261   4.417  15.385  0.00  0.00    +0.000 A 
ATOM     13  N   UNL     1       5.804   4.412  16.788  0.00  0.00    +0.000 N 
ATOM     14  C   UNL     1       4.611   3.742  17.103  0.00  0.00    +0.000 C 
ATOM     15  O   UNL     1       3.887   3.206  16.248  0.00  0.00    +0.000 OA
ATOM     16  H   UNL     1       7.974   7.285  15.417  0.00  0.00    +0.000 HD
ENDROOT
BRANCH  14  17
ATOM     17  C   UNL     1       4.020   3.712  18.514  0.00  0.00    +0.000 C 
BRANCH  17  18
ATOM     18  O   UNL     1       2.644   4.053  18.576  0.00  0.00    +0.000 OA
BRANCH  18  19
ATOM     19  C   UNL     1       2.359   5.312  19.057  0.00  0.00    +0.000 A 
ATOM     20  C   UNL     1       2.401   6.479  18.283  0.00  0.00    +0.000 A 
ATOM     21  C   UNL     1       2.148   7.726  18.859  0.00  0.00    +0.000 A 
ATOM     22  C   UNL     1       1.830   7.823  20.211  0.00  0.00    +0.000 A 
ATOM     23  C   UNL     1       1.749   6.668  20.985  0.00  0.00    +0.000 A 
ATOM     24  C   UNL     1       2.004   5.412  20.412  0.00  0.00    +0.000 A 
BRANCH  24  25
ATOM     25  C   UNL     1       1.930   4.250  21.243  0.00  0.00    +0.000 C 
ATOM     26  N   UNL     1       1.835   3.309  21.922  0.00  0.00    +0.000 NA
ENDBRANCH  24  25
ENDBRANCH  18  19
ENDBRANCH  17  18
ENDBRANCH  14  17
TORSDOF 4
ENDMDL
MODEL 8
REMARK VINA RESULT:      -7.3      1.505      2.089
REMARK  Name = 
REMARK  6 active torsions:
REMARK  status: ('A' for Active; 'I' for Inactive)
REMARK    1  A    between atoms: C_1  and  C_2
REMARK    2  A    between atoms: C_2  and  C_3
REMARK    3  A    between atoms: C_14  and  C_16
REMARK    4  A    between atoms: C_16  and  O_17
REMARK    5  A    between atoms: O_17  and  C_18
REMARK    6  A    between atoms: C_23  and  C_24
REMARK                            x       y       z     vdW  Elec       q    Type
REMARK                         _______ _______ _______ _____ _____    ______ ____
ROOT
ATOM      1  C   UNL     1       1.860   4.877  20.001  0.00  0.00    +0.000 C 
ATOM      2  C   UNL     1       2.682   4.570  18.739  0.00  0.00    +0.000 C 
ATOM      3  C   UNL     1       1.705   3.895  17.744  0.00  0.00    +0.000 C 
ATOM      4  C   UNL     1       3.716   3.498  19.181  0.00  0.00    +0.000 C 
ATOM      5  O   UNL     1       3.629   2.833  20.215  0.00  0.00    +0.000 OA
ATOM      6  N   UNL     1       4.665   3.163  18.264  0.00  0.00    +0.000 N 
ATOM      7  C   UNL     1       4.952   3.958  17.158  0.00  0.00    +0.000 A 
ATOM      8  C   UNL     1       5.887   3.459  16.240  0.00  0.00    +0.000 A 
ATOM      9  C   UNL     1       6.292   4.240  15.167  0.00  0.00    +0.000 A 
ATOM     10  C   UNL     1       5.761   5.514  15.016  0.00  0.00    +0.000 A 
ATOM     11  C   UNL     1       4.808   5.998  15.924  0.00  0.00    +0.000 A 
ATOM     12  C   UNL     1       4.380   5.240  17.027  0.00  0.00    +0.000 A 
ATOM     13  N   UNL     1       3.407   5.716  18.030  0.00  0.00    +0.000 N 
ATOM     14  C   UNL     1       3.212   7.099  18.172  0.00  0.00    +0.000 C 
ATOM     15  O   UNL     1       3.865   7.945  17.538  0.00  0.00    +0.000 OA
ATOM     16  H   UNL     1       5.231   2.352  18.476  0.00  0.00    +0.000 HD
ENDROOT
BRANCH  14  17
ATOM     17  C   UNL     1       2.266   7.706  19.209  0.00  0.00    +0.000 C 
BRANCH  17  18
ATOM     18  O   UNL     1       1.246   8.525  18.659  0.00  0.00    +0.000 OA
BRANCH  18  19
ATOM     19  C   UNL     1       1.324   9.865  18.966  0.00  0.00    +0.000 A 
ATOM     20  C   UNL     1       1.950  10.823  18.158  0.00  0.00    +0.000 A 
ATOM     21  C   UNL     1       2.030  12.157  18.566  0.00  0.00    +0.000 A 
ATOM     22  C   UNL     1       1.468  12.557  19.775  0.00  0.00    +0.000 A 
ATOM     23  C   UNL     1       0.810  11.622  20.571  0.00  0.00    +0.000 A 
ATOM     24  C   UNL     1       0.728  10.280  20.168  0.00  0.00    +0.000 A 
BRANCH  24  25
ATOM     25  C   UNL     1       0.060   9.346  21.021  0.00  0.00    +0.000 C 
ATOM     26  N   UNL     1      -0.454   8.567  21.718  0.00  0.00    +0.000 NA
ENDBRANCH  24  25
ENDBRANCH  18  19
ENDBRANCH  17  18
ENDBRANCH  14  17
TORSDOF 4
ENDMDL
MODEL 9
REMARK VINA RESULT:      -7.3      4.622      9.286
REMARK  Name = 
REMARK  6 active torsions:
REMARK  status: ('A' for Active; 'I' for Inactive)
REMARK    1  A    between atoms: C_1  and  C_2
REMARK    2  A    between atoms: C_2  and  C_3
REMARK    3  A    between atoms: C_14  and  C_16
REMARK    4  A    between atoms: C_16  and  O_17
REMARK    5  A    between atoms: O_17  and  C_18
REMARK    6  A    between atoms: C_23  and  C_24
REMARK                            x       y       z     vdW  Elec       q    Type
REMARK                         _______ _______ _______ _____ _____    ______ ____
ROOT
ATOM      1  C   UNL     1      -1.869  10.292  16.844  0.00  0.00    +0.000 C 
ATOM      2  C   UNL     1      -3.230  10.577  17.499  0.00  0.00    +0.000 C 
ATOM      3  C   UNL     1      -3.747   9.214  18.026  0.00  0.00    +0.000 C 
ATOM      4  C   UNL     1      -4.158  11.009  16.329  0.00  0.00    +0.000 C 
ATOM      5  O   UNL     1      -3.909  10.817  15.137  0.00  0.00    +0.000 OA
ATOM      6  N   UNL     1      -5.396  11.457  16.677  0.00  0.00    +0.000 N 
ATOM      7  C   UNL     1      -5.708  11.867  17.969  0.00  0.00    +0.000 A 
ATOM      8  C   UNL     1      -7.041  12.222  18.221  0.00  0.00    +0.000 A 
ATOM      9  C   UNL     1      -7.403  12.732  19.459  0.00  0.00    +0.000 A 
ATOM     10  C   UNL     1      -6.433  12.883  20.441  0.00  0.00    +0.000 A 
ATOM     11  C   UNL     1      -5.106  12.504  20.192  0.00  0.00    +0.000 A 
ATOM     12  C   UNL     1      -4.700  11.992  18.947  0.00  0.00    +0.000 A 
ATOM     13  N   UNL     1      -3.311  11.612  18.623  0.00  0.00    +0.000 N 
ATOM     14  C   UNL     1      -2.269  12.161  19.386  0.00  0.00    +0.000 C 
ATOM     15  O   UNL     1      -2.454  13.002  20.282  0.00  0.00    +0.000 OA
ATOM     16  H   UNL     1      -6.061  11.576  15.924  0.00  0.00    +0.000 HD
ENDROOT
BRANCH  14  17
ATOM     17  C   UNL     1      -0.793  11.875  19.110  0.00  0.00    +0.000 C 
BRANCH  17  18
ATOM     18  O   UNL     1      -0.081  11.357  20.223  0.00  0.00    +0.000 OA
BRANCH  18  19
ATOM     19  C   UNL     1       0.627  10.198  19.996  0.00  0.00    +0.000 A 
ATOM     20  C   UNL     1       1.157   9.830  18.753  0.00  0.00    +0.000 A 
ATOM     21  C   UNL     1       1.820   8.610  18.595  0.00  0.00    +0.000 A 
ATOM     22  C   UNL     1       1.980   7.751  19.679  0.00  0.00    +0.000 A 
ATOM     23  C   UNL     1       1.489   8.121  20.929  0.00  0.00    +0.000 A 
ATOM     24  C   UNL     1       0.821   9.344  21.094  0.00  0.00    +0.000 A 
BRANCH  24  25
ATOM     25  C   UNL     1       0.315   9.681  22.389  0.00  0.00    +0.000 C 
ATOM     26  N   UNL     1      -0.091   9.923  23.453  0.00  0.00    +0.000 NA
ENDBRANCH  24  25
ENDBRANCH  18  19
ENDBRANCH  17  18
ENDBRANCH  14  17
TORSDOF 4
ENDMDL
