MODEL 1
REMARK VINA RESULT:      -7.6      0.000      0.000
REMARK  Name = 
REMARK  10 active torsions:
REMARK  status: ('A' for Active; 'I' for Inactive)
REMARK    1  A    between atoms: C_1  and  O_2
REMARK    2  A    between atoms: O_2  and  C_3
REMARK    3  A    between atoms: C_6  and  C_7
REMARK    4  A    between atoms: C_11  and  S_12
REMARK    5  A    between atoms: S_12  and  N_15
REMARK    6  A    between atoms: N_15  and  C_16
REMARK    7  A    between atoms: C_21  and  S_22
REMARK    8  A    between atoms: S_22  and  N_23
REMARK    9  A    between atoms: C_27  and  O_28
REMARK   10  A    between atoms: O_28  and  C_29
REMARK                            x       y       z     vdW  Elec       q    Type
REMARK                         _______ _______ _______ _____ _____    ______ ____
ROOT
ATOM      1  S   UNL     1       2.476   6.050  19.557  0.00  0.00    +0.000 S 
ATOM      2  O   UNL     1       3.877   5.993  19.916  0.00  0.00    +0.000 OA
ATOM      3  O   UNL     1       1.465   5.488  20.423  0.00  0.00    +0.000 OA
ENDROOT
BRANCH   1   8
ATOM      4  C   UNL     1       0.905   9.771  20.030  0.00  0.00    +0.000 A 
ATOM      5  C   UNL     1       1.251  10.362  18.800  0.00  0.00    +0.000 A 
ATOM      6  C   UNL     1       1.962   9.658  17.818  0.00  0.00    +0.000 A 
ATOM      7  C   UNL     1       2.371   8.351  18.054  0.00  0.00    +0.000 A 
ATOM      8  C   UNL     1       2.090   7.764  19.286  0.00  0.00    +0.000 A 
ATOM      9  C   UNL     1       1.368   8.461  20.264  0.00  0.00    +0.000 A 
BRANCH   4  13
ATOM     10  C   UNL     1      -1.732  11.471  22.841  0.00  0.00    +0.000 A 
ATOM     11  N   UNL     1      -0.839  10.581  23.282  0.00  0.00    +0.000 NA
ATOM     12  C   UNL     1       0.013  10.095  22.353  0.00  0.00    +0.000 A 
ATOM     13  C   UNL     1       0.020  10.441  21.008  0.00  0.00    +0.000 A 
ATOM     14  C   UNL     1      -0.938  11.403  20.701  0.00  0.00    +0.000 A 
ATOM     15  N   UNL     1      -1.812  11.922  21.588  0.00  0.00    +0.000 NA
BRANCH  10  17
ATOM     16  C   UNL     1      -3.574  12.838  23.236  0.00  0.00    +0.000 C 
ATOM     17  O   UNL     1      -2.629  11.926  23.784  0.00  0.00    +0.000 OA
ENDBRANCH  10  17
BRANCH  14  18
ATOM     18  O   UNL     1      -1.035  11.847  19.395  0.00  0.00    +0.000 OA
ATOM     19  C   UNL     1      -2.327  11.666  18.820  0.00  0.00    +0.000 C 
ENDBRANCH  14  18
ENDBRANCH   4  13
ENDBRANCH   1   8
BRANCH   1  20
ATOM     20  N   UNL     1       2.345   5.382  17.995  0.00  0.00    +0.000 N 
ATOM     21  H   UNL     1       1.883   6.104  17.421  0.00  0.00    +0.000 HD
BRANCH  20  22
ATOM     22  C   UNL     1       3.579   4.922  17.403  0.00  0.00    +0.000 A 
ATOM     23  C   UNL     1       4.341   5.865  16.703  0.00  0.00    +0.000 A 
ATOM     24  C   UNL     1       5.528   5.488  16.067  0.00  0.00    +0.000 A 
ATOM     25  C   UNL     1       5.969   4.167  16.121  0.00  0.00    +0.000 A 
ATOM     26  C   UNL     1       5.212   3.215  16.799  0.00  0.00    +0.000 A 
ATOM     27  C   UNL     1       4.011   3.587  17.417  0.00  0.00    +0.000 A 
BRANCH  27  28
ATOM     28  S   UNL     1       3.083   2.325  18.230  0.00  0.00    +0.000 S 
ATOM     29  O   UNL     1       1.692   2.442  17.847  0.00  0.00    +0.000 OA
ATOM     30  O   UNL     1       3.801   1.078  18.117  0.00  0.00    +0.000 OA
BRANCH  28  31
ATOM     31  N   UNL     1       3.173   2.824  19.824  0.00  0.00    +0.000 NA
ATOM     32  H   UNL     1       4.136   2.898  20.145  0.00  0.00    +0.000 HD
ATOM     33  H   UNL     1       2.589   3.638  20.014  0.00  0.00    +0.000 HD
ENDBRANCH  28  31
ENDBRANCH  27  28
ENDBRANCH  20  22
ENDBRANCH   1  20
TORSDOF 8
ENDMDL
MODEL 2
REMARK VINA RESULT:      -7.5      2.765      9.074
REMARK  Name = 
REMARK  10 active torsions:
REMARK  status: ('A' for Active; 'I' for Inactive)
REMARK    1  A    between atoms: C_1  and  O_2
REMARK    2  A    between atoms: O_2  and  C_3
REMARK    3  A    between atoms: C_6  and  C_7
REMARK    4  A    between atoms: C_11  and  S_12
REMARK    5  A    between atoms: S_12  and  N_15
REMARK    6  A    between atoms: N_15  and  C_16
REMARK    7  A    between atoms: C_21  and  S_22
REMARK    8  A    between atoms: S_22  and  N_23
REMARK    9  A    between atoms: C_27  and  O_28
REMARK   10  A    between atoms: O_28  and  C_29
REMARK                            x       y       z     vdW  Elec       q    Type
REMARK                         _______ _______ _______ _____ _____    ______ ____
ROOT
ATOM      1  S   UNL     1       0.802   9.408  21.099  0.00  0.00    +0.000 S 
ATOM      2  O   UNL     1      -0.536   8.885  21.265  0.00  0.00    +0.000 OA
ATOM      3  O   UNL     1       1.727   9.449  22.209  0.00  0.00    +0.000 OA
ENDROOT
BRANCH   1   8
ATOM      4  C   UNL     1       2.733   6.455  19.076  0.00  0.00    +0.000 A 
ATOM      5  C   UNL     1       2.947   7.082  17.834  0.00  0.00    +0.000 A 
ATOM      6  C   UNL     1       2.513   8.391  17.585  0.00  0.00    +0.000 A 
ATOM      7  C   UNL     1       1.826   9.098  18.565  0.00  0.00    +0.000 A 
ATOM      8  C   UNL     1       1.552   8.478  19.783  0.00  0.00    +0.000 A 
ATOM      9  C   UNL     1       1.996   7.173  20.039  0.00  0.00    +0.000 A 
BRANCH   4  13
ATOM     10  C   UNL     1       4.482   2.691  19.800  0.00  0.00    +0.000 A 
ATOM     11  N   UNL     1       5.297   3.726  19.581  0.00  0.00    +0.000 NA
ATOM     12  C   UNL     1       4.693   4.920  19.397  0.00  0.00    +0.000 A 
ATOM     13  C   UNL     1       3.322   5.139  19.411  0.00  0.00    +0.000 A 
ATOM     14  C   UNL     1       2.600   3.980  19.686  0.00  0.00    +0.000 A 
ATOM     15  N   UNL     1       3.151   2.765  19.879  0.00  0.00    +0.000 NA
BRANCH  10  17
ATOM     16  C   UNL     1       5.352   1.138  21.301  0.00  0.00    +0.000 C 
ATOM     17  O   UNL     1       5.102   1.468  19.939  0.00  0.00    +0.000 OA
ENDBRANCH  10  17
BRANCH  14  18
ATOM     18  O   UNL     1       1.220   4.058  19.739  0.00  0.00    +0.000 OA
ATOM     19  C   UNL     1       0.561   2.891  19.253  0.00  0.00    +0.000 C 
ENDBRANCH  14  18
ENDBRANCH   4  13
ENDBRANCH   1   8
BRANCH   1  20
ATOM     20  N   UNL     1       0.640  10.961  20.417  0.00  0.00    +0.000 N 
ATOM     21  H   UNL     1       1.257  10.969  19.592  0.00  0.00    +0.000 HD
BRANCH  20  22
ATOM     22  C   UNL     1      -0.709  11.367  20.094  0.00  0.00    +0.000 A 
ATOM     23  C   UNL     1      -1.170  11.075  18.805  0.00  0.00    +0.000 A 
ATOM     24  C   UNL     1      -2.449  11.472  18.402  0.00  0.00    +0.000 A 
ATOM     25  C   UNL     1      -3.282  12.163  19.279  0.00  0.00    +0.000 A 
ATOM     26  C   UNL     1      -2.830  12.474  20.559  0.00  0.00    +0.000 A 
ATOM     27  C   UNL     1      -1.540  12.098  20.955  0.00  0.00    +0.000 A 
BRANCH  27  28
ATOM     28  S   UNL     1      -1.016  12.554  22.577  0.00  0.00    +0.000 S 
ATOM     29  O   UNL     1      -1.080  11.392  23.438  0.00  0.00    +0.000 OA
ATOM     30  O   UNL     1       0.179  13.357  22.469  0.00  0.00    +0.000 OA
BRANCH  28  31
ATOM     31  N   UNL     1      -2.265  13.560  23.057  0.00  0.00    +0.000 NA
ATOM     32  H   UNL     1      -1.921  14.456  23.397  0.00  0.00    +0.000 HD
ATOM     33  H   UNL     1      -3.011  13.616  22.363  0.00  0.00    +0.000 HD
ENDBRANCH  28  31
ENDBRANCH  27  28
ENDBRANCH  20  22
ENDBRANCH   1  20
TORSDOF 8
ENDMDL
MODEL 3
REMARK VINA RESULT:      -7.5      1.065      1.304
REMARK  Name = 
REMARK  10 active torsions:
REMARK  status: ('A' for Active; 'I' for Inactive)
REMARK    1  A    between atoms: C_1  and  O_2
REMARK    2  A    between atoms: O_2  and  C_3
REMARK    3  A    between atoms: C_6  and  C_7
REMARK    4  A    between atoms: C_11  and  S_12
REMARK    5  A    between atoms: S_12  and  N_15
REMARK    6  A    between atoms: N_15  and  C_16
REMARK    7  A    between atoms: C_21  and  S_22
REMARK    8  A    between atoms: S_22  and  N_23
REMARK    9  A    between atoms: C_27  and  O_28
REMARK   10  A    between atoms: O_28  and  C_29
REMARK                            x       y       z     vdW  Elec       q    Type
REMARK                         _______ _______ _______ _____ _____    ______ ____
ROOT
ATOM      1  S   UNL     1       2.127   5.853  19.567  0.00  0.00    +0.000 S 
ATOM      2  O   UNL     1       1.687   5.596  20.920  0.00  0.00    +0.000 OA
ATOM      3  O   UNL     1       1.536   5.154  18.448  0.00  0.00    +0.000 OA
ENDROOT
BRANCH   1   8
ATOM      4  C   UNL     1       0.950   9.721  20.004  0.00  0.00    +0.000 A 
ATOM      5  C   UNL     1       1.410  10.275  18.794  0.00  0.00    +0.000 A 
ATOM      6  C   UNL     1       2.081   9.502  17.837  0.00  0.00    +0.000 A 
ATOM      7  C   UNL     1       2.336   8.157  18.079  0.00  0.00    +0.000 A 
ATOM      8  C   UNL     1       1.940   7.600  19.294  0.00  0.00    +0.000 A 
ATOM      9  C   UNL     1       1.258   8.368  20.247  0.00  0.00    +0.000 A 
BRANCH   4  13
ATOM     10  C   UNL     1      -1.579  11.678  22.747  0.00  0.00    +0.000 A 
ATOM     11  N   UNL     1      -0.671  10.828  23.233  0.00  0.00    +0.000 NA
ATOM     12  C   UNL     1       0.145  10.257  22.320  0.00  0.00    +0.000 A 
ATOM     13  C   UNL     1       0.103  10.480  20.950  0.00  0.00    +0.000 A 
ATOM     14  C   UNL     1      -0.866  11.414  20.593  0.00  0.00    +0.000 A 
ATOM     15  N   UNL     1      -1.706  12.014  21.461  0.00  0.00    +0.000 NA
BRANCH  10  17
ATOM     16  C   UNL     1      -3.656  12.672  23.091  0.00  0.00    +0.000 C 
ATOM     17  O   UNL     1      -2.440  12.219  23.677  0.00  0.00    +0.000 OA
ENDBRANCH  10  17
BRANCH  14  18
ATOM     18  O   UNL     1      -1.011  11.739  19.257  0.00  0.00    +0.000 OA
ATOM     19  C   UNL     1      -2.209  11.235  18.670  0.00  0.00    +0.000 C 
ENDBRANCH  14  18
ENDBRANCH   4  13
ENDBRANCH   1   8
BRANCH   1  20
ATOM     20  N   UNL     1       3.819   5.649  19.556  0.00  0.00    +0.000 N 
ATOM     21  H   UNL     1       4.035   5.072  20.382  0.00  0.00    +0.000 HD
BRANCH  20  22
ATOM     22  C   UNL     1       4.376   5.096  18.343  0.00  0.00    +0.000 A 
ATOM     23  C   UNL     1       4.719   5.999  17.330  0.00  0.00    +0.000 A 
ATOM     24  C   UNL     1       5.226   5.539  16.110  0.00  0.00    +0.000 A 
ATOM     25  C   UNL     1       5.396   4.174  15.887  0.00  0.00    +0.000 A 
ATOM     26  C   UNL     1       5.044   3.263  16.881  0.00  0.00    +0.000 A 
ATOM     27  C   UNL     1       4.514   3.722  18.094  0.00  0.00    +0.000 A 
BRANCH  27  28
ATOM     28  S   UNL     1       4.055   2.515  19.295  0.00  0.00    +0.000 S 
ATOM     29  O   UNL     1       5.086   2.443  20.309  0.00  0.00    +0.000 OA
ATOM     30  O   UNL     1       2.665   2.705  19.634  0.00  0.00    +0.000 OA
BRANCH  28  31
ATOM     31  N   UNL     1       4.175   1.102  18.407  0.00  0.00    +0.000 NA
ATOM     32  H   UNL     1       4.199   1.284  17.405  0.00  0.00    +0.000 HD
ATOM     33  H   UNL     1       4.908   0.482  18.753  0.00  0.00    +0.000 HD
ENDBRANCH  28  31
ENDBRANCH  27  28
ENDBRANCH  20  22
ENDBRANCH   1  20
TORSDOF 8
ENDMDL
MODEL 4
REMARK VINA RESULT:      -7.4      2.730      9.116
REMARK  Name = 
REMARK  10 active torsions:
REMARK  status: ('A' for Active; 'I' for Inactive)
REMARK    1  A    between atoms: C_1  and  O_2
REMARK    2  A    between atoms: O_2  and  C_3
REMARK    3  A    between atoms: C_6  and  C_7
REMARK    4  A    between atoms: C_11  and  S_12
REMARK    5  A    between atoms: S_12  and  N_15
REMARK    6  A    between atoms: N_15  and  C_16
REMARK    7  A    between atoms: C_21  and  S_22
REMARK    8  A    between atoms: S_22  and  N_23
REMARK    9  A    between atoms: C_27  and  O_28
REMARK   10  A    between atoms: O_28  and  C_29
REMARK                            x       y       z     vdW  Elec       q    Type
REMARK                         _______ _______ _______ _____ _____    ______ ____
ROOT
ATOM      1  S   UNL     1       0.564   9.892  21.546  0.00  0.00    +0.000 S 
ATOM      2  O   UNL     1      -0.725   9.274  21.767  0.00  0.00    +0.000 OA
ATOM      3  O   UNL     1       1.595   9.841  22.558  0.00  0.00    +0.000 OA
ENDROOT
BRANCH   1   8
ATOM      4  C   UNL     1       2.369   7.323  18.960  0.00  0.00    +0.000 A 
ATOM      5  C   UNL     1       2.467   8.131  17.811  0.00  0.00    +0.000 A 
ATOM      6  C   UNL     1       1.991   9.449  17.794  0.00  0.00    +0.000 A 
ATOM      7  C   UNL     1       1.376   9.984  18.919  0.00  0.00    +0.000 A 
ATOM      8  C   UNL     1       1.216   9.185  20.050  0.00  0.00    +0.000 A 
ATOM      9  C   UNL     1       1.703   7.871  20.074  0.00  0.00    +0.000 A 
BRANCH   4  13
ATOM     10  C   UNL     1       4.221   3.570  19.444  0.00  0.00    +0.000 A 
ATOM     11  N   UNL     1       3.014   3.744  19.988  0.00  0.00    +0.000 NA
ATOM     12  C   UNL     1       2.441   4.949  19.771  0.00  0.00    +0.000 A 
ATOM     13  C   UNL     1       3.006   5.991  19.048  0.00  0.00    +0.000 A 
ATOM     14  C   UNL     1       4.246   5.654  18.510  0.00  0.00    +0.000 A 
ATOM     15  N   UNL     1       4.863   4.469  18.694  0.00  0.00    +0.000 NA
BRANCH  10  17
ATOM     16  C   UNL     1       4.124   1.267  19.117  0.00  0.00    +0.000 C 
ATOM     17  O   UNL     1       4.820   2.358  19.710  0.00  0.00    +0.000 OA
ENDBRANCH  10  17
BRANCH  14  18
ATOM     18  O   UNL     1       4.919   6.599  17.756  0.00  0.00    +0.000 OA
ATOM     19  C   UNL     1       6.301   6.304  17.565  0.00  0.00    +0.000 C 
ENDBRANCH  14  18
ENDBRANCH   4  13
ENDBRANCH   1   8
BRANCH   1  20
ATOM     20  N   UNL     1       0.263  11.508  21.099  0.00  0.00    +0.000 N 
ATOM     21  H   UNL     1       0.394  11.544  20.077  0.00  0.00    +0.000 HD
BRANCH  20  22
ATOM     22  C   UNL     1      -1.016  12.043  21.505  0.00  0.00    +0.000 A 
ATOM     23  C   UNL     1      -1.181  12.339  22.863  0.00  0.00    +0.000 A 
ATOM     24  C   UNL     1      -2.404  12.822  23.341  0.00  0.00    +0.000 A 
ATOM     25  C   UNL     1      -3.475  13.014  22.471  0.00  0.00    +0.000 A 
ATOM     26  C   UNL     1      -3.330  12.707  21.120  0.00  0.00    +0.000 A 
ATOM     27  C   UNL     1      -2.113  12.202  20.644  0.00  0.00    +0.000 A 
BRANCH  27  28
ATOM     28  S   UNL     1      -2.007  11.801  18.929  0.00  0.00    +0.000 S 
ATOM     29  O   UNL     1      -1.081  12.710  18.289  0.00  0.00    +0.000 OA
ATOM     30  O   UNL     1      -1.884  10.369  18.796  0.00  0.00    +0.000 OA
BRANCH  28  31
ATOM     31  N   UNL     1      -3.532  12.234  18.394  0.00  0.00    +0.000 NA
ATOM     32  H   UNL     1      -4.267  11.813  18.961  0.00  0.00    +0.000 HD
ATOM     33  H   UNL     1      -3.623  13.238  18.241  0.00  0.00    +0.000 HD
ENDBRANCH  28  31
ENDBRANCH  27  28
ENDBRANCH  20  22
ENDBRANCH   1  20
TORSDOF 8
ENDMDL
MODEL 5
REMARK VINA RESULT:      -7.3      2.700      9.087
REMARK  Name = 
REMARK  10 active torsions:
REMARK  status: ('A' for Active; 'I' for Inactive)
REMARK    1  A    between atoms: C_1  and  O_2
REMARK    2  A    between atoms: O_2  and  C_3
REMARK    3  A    between atoms: C_6  and  C_7
REMARK    4  A    between atoms: C_11  and  S_12
REMARK    5  A    between atoms: S_12  and  N_15
REMARK    6  A    between atoms: N_15  and  C_16
REMARK    7  A    between atoms: C_21  and  S_22
REMARK    8  A    between atoms: S_22  and  N_23
REMARK    9  A    between atoms: C_27  and  O_28
REMARK   10  A    between atoms: O_28  and  C_29
REMARK                            x       y       z     vdW  Elec       q    Type
REMARK                         _______ _______ _______ _____ _____    ______ ____
ROOT
ATOM      1  S   UNL     1       0.835   9.287  21.220  0.00  0.00    +0.000 S 
ATOM      2  O   UNL     1      -0.507   8.757  21.326  0.00  0.00    +0.000 OA
ATOM      3  O   UNL     1       1.754   9.210  22.332  0.00  0.00    +0.000 OA
ENDROOT
BRANCH   1   8
ATOM      4  C   UNL     1       2.781   6.554  18.922  0.00  0.00    +0.000 A 
ATOM      5  C   UNL     1       2.985   7.297  17.743  0.00  0.00    +0.000 A 
ATOM      6  C   UNL     1       2.539   8.620  17.620  0.00  0.00    +0.000 A 
ATOM      7  C   UNL     1       1.851   9.225  18.664  0.00  0.00    +0.000 A 
ATOM      8  C   UNL     1       1.586   8.491  19.819  0.00  0.00    +0.000 A 
ATOM      9  C   UNL     1       2.042   7.172  19.950  0.00  0.00    +0.000 A 
BRANCH   4  13
ATOM     10  C   UNL     1       4.454   2.777  19.747  0.00  0.00    +0.000 A 
ATOM     11  N   UNL     1       3.137   2.924  19.910  0.00  0.00    +0.000 NA
ATOM     12  C   UNL     1       2.639   4.139  19.592  0.00  0.00    +0.000 A 
ATOM     13  C   UNL     1       3.381   5.217  19.129  0.00  0.00    +0.000 A 
ATOM     14  C   UNL     1       4.730   4.908  18.973  0.00  0.00    +0.000 A 
ATOM     15  N   UNL     1       5.279   3.713  19.274  0.00  0.00    +0.000 NA
BRANCH  10  17
ATOM     16  C   UNL     1       4.905   1.344  21.526  0.00  0.00    +0.000 C 
ATOM     17  O   UNL     1       4.963   1.551  20.119  0.00  0.00    +0.000 OA
ENDBRANCH  10  17
BRANCH  14  18
ATOM     18  O   UNL     1       5.585   5.891  18.508  0.00  0.00    +0.000 OA
ATOM     19  C   UNL     1       6.936   5.725  18.933  0.00  0.00    +0.000 C 
ENDBRANCH  14  18
ENDBRANCH   4  13
ENDBRANCH   1   8
BRANCH   1  20
ATOM     20  N   UNL     1       0.682  10.903  20.698  0.00  0.00    +0.000 N 
ATOM     21  H   UNL     1       1.395  11.026  19.964  0.00  0.00    +0.000 HD
BRANCH  20  22
ATOM     22  C   UNL     1      -0.634  11.297  20.253  0.00  0.00    +0.000 A 
ATOM     23  C   UNL     1      -0.993  10.954  18.944  0.00  0.00    +0.000 A 
ATOM     24  C   UNL     1      -2.235  11.335  18.426  0.00  0.00    +0.000 A 
ATOM     25  C   UNL     1      -3.131  12.064  19.205  0.00  0.00    +0.000 A 
ATOM     26  C   UNL     1      -2.779  12.427  20.503  0.00  0.00    +0.000 A 
ATOM     27  C   UNL     1      -1.527  12.064  21.015  0.00  0.00    +0.000 A 
BRANCH  27  28
ATOM     28  S   UNL     1      -1.131  12.586  22.654  0.00  0.00    +0.000 S 
ATOM     29  O   UNL     1       0.074  13.387  22.615  0.00  0.00    +0.000 OA
ATOM     30  O   UNL     1      -2.337  13.054  23.294  0.00  0.00    +0.000 OA
BRANCH  28  31
ATOM     31  N   UNL     1      -0.704  11.134  23.369  0.00  0.00    +0.000 NA
ATOM     32  H   UNL     1      -0.677  10.372  22.694  0.00  0.00    +0.000 HD
ATOM     33  H   UNL     1       0.121  11.218  23.963  0.00  0.00    +0.000 HD
ENDBRANCH  28  31
ENDBRANCH  27  28
ENDBRANCH  20  22
ENDBRANCH   1  20
TORSDOF 8
ENDMDL
MODEL 6
REMARK VINA RESULT:      -7.3      2.843      9.217
REMARK  Name = 
REMARK  10 active torsions:
REMARK  status: ('A' for Active; 'I' for Inactive)
REMARK    1  A    between atoms: C_1  and  O_2
REMARK    2  A    between atoms: O_2  and  C_3
REMARK    3  A    between atoms: C_6  and  C_7
REMARK    4  A    between atoms: C_11  and  S_12
REMARK    5  A    between atoms: S_12  and  N_15
REMARK    6  A    between atoms: N_15  and  C_16
REMARK    7  A    between atoms: C_21  and  S_22
REMARK    8  A    between atoms: S_22  and  N_23
REMARK    9  A    between atoms: C_27  and  O_28
REMARK   10  A    between atoms: O_28  and  C_29
REMARK                            x       y       z     vdW  Elec       q    Type
REMARK                         _______ _______ _______ _____ _____    ______ ____
ROOT
ATOM      1  S   UNL     1       0.468   9.603  21.141  0.00  0.00    +0.000 S 
ATOM      2  O   UNL     1      -0.361   8.632  21.820  0.00  0.00    +0.000 OA
ATOM      3  O   UNL     1       1.459  10.369  21.863  0.00  0.00    +0.000 OA
ENDROOT
BRANCH   1   8
ATOM      4  C   UNL     1       2.579   6.792  19.096  0.00  0.00    +0.000 A 
ATOM      5  C   UNL     1       2.781   7.454  17.869  0.00  0.00    +0.000 A 
ATOM      6  C   UNL     1       2.285   8.744  17.638  0.00  0.00    +0.000 A 
ATOM      7  C   UNL     1       1.547   9.396  18.619  0.00  0.00    +0.000 A 
ATOM      8  C   UNL     1       1.285   8.738  19.820  0.00  0.00    +0.000 A 
ATOM      9  C   UNL     1       1.791   7.453  20.058  0.00  0.00    +0.000 A 
BRANCH   4  13
ATOM     10  C   UNL     1       4.492   3.100  19.773  0.00  0.00    +0.000 A 
ATOM     11  N   UNL     1       5.259   4.161  19.513  0.00  0.00    +0.000 NA
ATOM     12  C   UNL     1       4.605   5.332  19.345  0.00  0.00    +0.000 A 
ATOM     13  C   UNL     1       3.229   5.501  19.415  0.00  0.00    +0.000 A 
ATOM     14  C   UNL     1       2.562   4.320  19.728  0.00  0.00    +0.000 A 
ATOM     15  N   UNL     1       3.164   3.127  19.907  0.00  0.00    +0.000 NA
BRANCH  10  17
ATOM     16  C   UNL     1       5.072   1.362  21.209  0.00  0.00    +0.000 C 
ATOM     17  O   UNL     1       5.161   1.901  19.895  0.00  0.00    +0.000 OA
ENDBRANCH  10  17
BRANCH  14  18
ATOM     18  O   UNL     1       1.183   4.348  19.839  0.00  0.00    +0.000 OA
ATOM     19  C   UNL     1       0.551   3.130  19.452  0.00  0.00    +0.000 C 
ENDBRANCH  14  18
ENDBRANCH   4  13
ENDBRANCH   1   8
BRANCH   1  20
ATOM     20  N   UNL     1      -0.588  10.650  20.309  0.00  0.00    +0.000 N 
ATOM     21  H   UNL     1      -1.403  10.076  20.050  0.00  0.00    +0.000 HD
BRANCH  20  22
ATOM     22  C   UNL     1      -0.969  11.850  21.017  0.00  0.00    +0.000 A 
ATOM     23  C   UNL     1      -1.574  11.686  22.269  0.00  0.00    +0.000 A 
ATOM     24  C   UNL     1      -2.008  12.797  22.998  0.00  0.00    +0.000 A 
ATOM     25  C   UNL     1      -1.845  14.084  22.488  0.00  0.00    +0.000 A 
ATOM     26  C   UNL     1      -1.259  14.260  21.237  0.00  0.00    +0.000 A 
ATOM     27  C   UNL     1      -0.845  13.146  20.495  0.00  0.00    +0.000 A 
BRANCH  27  28
ATOM     28  S   UNL     1      -0.144  13.438  18.903  0.00  0.00    +0.000 S 
ATOM     29  O   UNL     1      -0.225  14.852  18.604  0.00  0.00    +0.000 OA
ATOM     30  O   UNL     1       1.098  12.708  18.804  0.00  0.00    +0.000 OA
BRANCH  28  31
ATOM     31  N   UNL     1      -1.258  12.685  17.908  0.00  0.00    +0.000 NA
ATOM     32  H   UNL     1      -1.544  13.284  17.135  0.00  0.00    +0.000 HD
ATOM     33  H   UNL     1      -0.973  11.742  17.644  0.00  0.00    +0.000 HD
ENDBRANCH  28  31
ENDBRANCH  27  28
ENDBRANCH  20  22
ENDBRANCH   1  20
TORSDOF 8
ENDMDL
MODEL 7
REMARK VINA RESULT:      -7.3      1.118      1.365
REMARK  Name = 
REMARK  10 active torsions:
REMARK  status: ('A' for Active; 'I' for Inactive)
REMARK    1  A    between atoms: C_1  and  O_2
REMARK    2  A    between atoms: O_2  and  C_3
REMARK    3  A    between atoms: C_6  and  C_7
REMARK    4  A    between atoms: C_11  and  S_12
REMARK    5  A    between atoms: S_12  and  N_15
REMARK    6  A    between atoms: N_15  and  C_16
REMARK    7  A    between atoms: C_21  and  S_22
REMARK    8  A    between atoms: S_22  and  N_23
REMARK    9  A    between atoms: C_27  and  O_28
REMARK   10  A    between atoms: O_28  and  C_29
REMARK                            x       y       z     vdW  Elec       q    Type
REMARK                         _______ _______ _______ _____ _____    ______ ____
ROOT
ATOM      1  S   UNL     1       2.474   5.963  19.672  0.00  0.00    +0.000 S 
ATOM      2  O   UNL     1       3.885   5.918  19.991  0.00  0.00    +0.000 OA
ATOM      3  O   UNL     1       1.488   5.446  20.594  0.00  0.00    +0.000 OA
ENDROOT
BRANCH   1   8
ATOM      4  C   UNL     1       1.052   9.750  20.086  0.00  0.00    +0.000 A 
ATOM      5  C   UNL     1       1.230  10.243  18.779  0.00  0.00    +0.000 A 
ATOM      6  C   UNL     1       1.780   9.452  17.761  0.00  0.00    +0.000 A 
ATOM      7  C   UNL     1       2.195   8.154  18.033  0.00  0.00    +0.000 A 
ATOM      8  C   UNL     1       2.083   7.663  19.333  0.00  0.00    +0.000 A 
ATOM      9  C   UNL     1       1.521   8.448  20.349  0.00  0.00    +0.000 A 
BRANCH   4  13
ATOM     10  C   UNL     1      -1.212  11.844  22.956  0.00  0.00    +0.000 A 
ATOM     11  N   UNL     1      -1.187  10.511  23.033  0.00  0.00    +0.000 NA
ATOM     12  C   UNL     1      -0.414   9.885  22.119  0.00  0.00    +0.000 A 
ATOM     13  C   UNL     1       0.330  10.513  21.128  0.00  0.00    +0.000 A 
ATOM     14  C   UNL     1       0.237  11.901  21.192  0.00  0.00    +0.000 A 
ATOM     15  N   UNL     1      -0.517  12.576  22.083  0.00  0.00    +0.000 NA
BRANCH  10  17
ATOM     16  C   UNL     1      -3.400  12.475  23.440  0.00  0.00    +0.000 C 
ATOM     17  O   UNL     1      -2.040  12.473  23.860  0.00  0.00    +0.000 OA
ENDBRANCH  10  17
BRANCH  14  18
ATOM     18  O   UNL     1       0.938  12.654  20.267  0.00  0.00    +0.000 OA
ATOM     19  C   UNL     1       1.662  13.740  20.841  0.00  0.00    +0.000 C 
ENDBRANCH  14  18
ENDBRANCH   4  13
ENDBRANCH   1   8
BRANCH   1  20
ATOM     20  N   UNL     1       2.294   5.223  18.148  0.00  0.00    +0.000 N 
ATOM     21  H   UNL     1       1.791   5.907  17.564  0.00  0.00    +0.000 HD
BRANCH  20  22
ATOM     22  C   UNL     1       3.514   4.766  17.524  0.00  0.00    +0.000 A 
ATOM     23  C   UNL     1       4.201   5.683  16.720  0.00  0.00    +0.000 A 
ATOM     24  C   UNL     1       5.368   5.304  16.049  0.00  0.00    +0.000 A 
ATOM     25  C   UNL     1       5.863   4.008  16.171  0.00  0.00    +0.000 A 
ATOM     26  C   UNL     1       5.180   3.080  16.954  0.00  0.00    +0.000 A 
ATOM     27  C   UNL     1       3.998   3.452  17.608  0.00  0.00    +0.000 A 
BRANCH  27  28
ATOM     28  S   UNL     1       3.163   2.219  18.555  0.00  0.00    +0.000 S 
ATOM     29  O   UNL     1       3.377   2.480  19.962  0.00  0.00    +0.000 OA
ATOM     30  O   UNL     1       1.841   2.032  18.007  0.00  0.00    +0.000 OA
BRANCH  28  31
ATOM     31  N   UNL     1       4.064   0.856  18.190  0.00  0.00    +0.000 NA
ATOM     32  H   UNL     1       3.847   0.080  18.812  0.00  0.00    +0.000 HD
ATOM     33  H   UNL     1       4.051   0.633  17.195  0.00  0.00    +0.000 HD
ENDBRANCH  28  31
ENDBRANCH  27  28
ENDBRANCH  20  22
ENDBRANCH   1  20
TORSDOF 8
ENDMDL
MODEL 8
REMARK VINA RESULT:      -7.2      2.768      9.571
REMARK  Name = 
REMARK  10 active torsions:
REMARK  status: ('A' for Active; 'I' for Inactive)
REMARK    1  A    between atoms: C_1  and  O_2
REMARK    2  A    between atoms: O_2  and  C_3
REMARK    3  A    between atoms: C_6  and  C_7
REMARK    4  A    between atoms: C_11  and  S_12
REMARK    5  A    between atoms: S_12  and  N_15
REMARK    6  A    between atoms: N_15  and  C_16
REMARK    7  A    between atoms: C_21  and  S_22
REMARK    8  A    between atoms: S_22  and  N_23
REMARK    9  A    between atoms: C_27  and  O_28
REMARK   10  A    between atoms: O_28  and  C_29
REMARK                            x       y       z     vdW  Elec       q    Type
REMARK                         _______ _______ _______ _____ _____    ______ ____
ROOT
ATOM      1  S   UNL     1       0.891  10.083  18.984  0.00  0.00    +0.000 S 
ATOM      2  O   UNL     1       1.620  10.620  17.855  0.00  0.00    +0.000 OA
ATOM      3  O   UNL     1      -0.538   9.879  18.916  0.00  0.00    +0.000 OA
ENDROOT
BRANCH   1   8
ATOM      4  C   UNL     1       3.051   6.650  18.680  0.00  0.00    +0.000 A 
ATOM      5  C   UNL     1       2.680   5.998  19.872  0.00  0.00    +0.000 A 
ATOM      6  C   UNL     1       1.786   6.578  20.782  0.00  0.00    +0.000 A 
ATOM      7  C   UNL     1       1.260   7.842  20.536  0.00  0.00    +0.000 A 
ATOM      8  C   UNL     1       1.657   8.531  19.391  0.00  0.00    +0.000 A 
ATOM      9  C   UNL     1       2.542   7.947  18.474  0.00  0.00    +0.000 A 
BRANCH   4  13
ATOM     10  C   UNL     1       5.237   4.880  15.544  0.00  0.00    +0.000 A 
ATOM     11  N   UNL     1       5.413   6.184  15.768  0.00  0.00    +0.000 NA
ATOM     12  C   UNL     1       4.724   6.699  16.810  0.00  0.00    +0.000 A 
ATOM     13  C   UNL     1       3.865   5.988  17.637  0.00  0.00    +0.000 A 
ATOM     14  C   UNL     1       3.808   4.636  17.309  0.00  0.00    +0.000 A 
ATOM     15  N   UNL     1       4.474   4.070  16.281  0.00  0.00    +0.000 NA
BRANCH  10  17
ATOM     16  C   UNL     1       7.191   4.956  14.280  0.00  0.00    +0.000 C 
ATOM     17  O   UNL     1       5.904   4.372  14.450  0.00  0.00    +0.000 OA
ENDBRANCH  10  17
BRANCH  14  18
ATOM     18  O   UNL     1       2.994   3.806  18.059  0.00  0.00    +0.000 OA
ATOM     19  C   UNL     1       3.655   2.639  18.543  0.00  0.00    +0.000 C 
ENDBRANCH  14  18
ENDBRANCH   4  13
ENDBRANCH   1   8
BRANCH   1  20
ATOM     20  N   UNL     1       1.280  11.058  20.326  0.00  0.00    +0.000 N 
ATOM     21  H   UNL     1       1.732  11.899  19.938  0.00  0.00    +0.000 HD
BRANCH  20  22
ATOM     22  C   UNL     1       0.180  11.386  21.203  0.00  0.00    +0.000 A 
ATOM     23  C   UNL     1      -0.098  10.486  22.240  0.00  0.00    +0.000 A 
ATOM     24  C   UNL     1      -1.173  10.712  23.105  0.00  0.00    +0.000 A 
ATOM     25  C   UNL     1      -1.982  11.835  22.948  0.00  0.00    +0.000 A 
ATOM     26  C   UNL     1      -1.727  12.729  21.910  0.00  0.00    +0.000 A 
ATOM     27  C   UNL     1      -0.665  12.492  21.028  0.00  0.00    +0.000 A 
BRANCH  27  28
ATOM     28  S   UNL     1      -0.419  13.644  19.715  0.00  0.00    +0.000 S 
ATOM     29  O   UNL     1      -1.165  14.850  20.000  0.00  0.00    +0.000 OA
ATOM     30  O   UNL     1       0.987  13.677  19.387  0.00  0.00    +0.000 OA
BRANCH  28  31
ATOM     31  N   UNL     1      -1.219  12.886  18.456  0.00  0.00    +0.000 NA
ATOM     32  H   UNL     1      -0.608  12.251  17.944  0.00  0.00    +0.000 HD
ATOM     33  H   UNL     1      -2.114  12.489  18.743  0.00  0.00    +0.000 HD
ENDBRANCH  28  31
ENDBRANCH  27  28
ENDBRANCH  20  22
ENDBRANCH   1  20
TORSDOF 8
ENDMDL
MODEL 9
REMARK VINA RESULT:      -7.2      1.596      1.849
REMARK  Name = 
REMARK  10 active torsions:
REMARK  status: ('A' for Active; 'I' for Inactive)
REMARK    1  A    between atoms: C_1  and  O_2
REMARK    2  A    between atoms: O_2  and  C_3
REMARK    3  A    between atoms: C_6  and  C_7
REMARK    4  A    between atoms: C_11  and  S_12
REMARK    5  A    between atoms: S_12  and  N_15
REMARK    6  A    between atoms: N_15  and  C_16
REMARK    7  A    between atoms: C_21  and  S_22
REMARK    8  A    between atoms: S_22  and  N_23
REMARK    9  A    between atoms: C_27  and  O_28
REMARK   10  A    between atoms: O_28  and  C_29
REMARK                            x       y       z     vdW  Elec       q    Type
REMARK                         _______ _______ _______ _____ _____    ______ ____
ROOT
ATOM      1  S   UNL     1       2.108   6.022  19.615  0.00  0.00    +0.000 S 
ATOM      2  O   UNL     1       1.681   5.823  20.983  0.00  0.00    +0.000 OA
ATOM      3  O   UNL     1       1.499   5.283  18.532  0.00  0.00    +0.000 OA
ENDROOT
BRANCH   1   8
ATOM      4  C   UNL     1       1.124   9.949  20.008  0.00  0.00    +0.000 A 
ATOM      5  C   UNL     1       1.401  10.421  18.710  0.00  0.00    +0.000 A 
ATOM      6  C   UNL     1       1.888   9.574  17.706  0.00  0.00    +0.000 A 
ATOM      7  C   UNL     1       2.140   8.236  17.982  0.00  0.00    +0.000 A 
ATOM      8  C   UNL     1       1.929   7.758  19.274  0.00  0.00    +0.000 A 
ATOM      9  C   UNL     1       1.429   8.600  20.277  0.00  0.00    +0.000 A 
BRANCH   4  13
ATOM     10  C   UNL     1      -0.968  12.311  22.798  0.00  0.00    +0.000 A 
ATOM     11  N   UNL     1      -1.227  11.001  22.772  0.00  0.00    +0.000 NA
ATOM     12  C   UNL     1      -0.502  10.278  21.891  0.00  0.00    +0.000 A 
ATOM     13  C   UNL     1       0.461  10.788  21.031  0.00  0.00    +0.000 A 
ATOM     14  C   UNL     1       0.650  12.158  21.194  0.00  0.00    +0.000 A 
ATOM     15  N   UNL     1      -0.045  12.927  22.057  0.00  0.00    +0.000 NA
BRANCH  10  17
ATOM     16  C   UNL     1      -1.296  14.396  23.782  0.00  0.00    +0.000 C 
ATOM     17  O   UNL     1      -1.746  13.050  23.664  0.00  0.00    +0.000 OA
ENDBRANCH  10  17
BRANCH  14  18
ATOM     18  O   UNL     1       1.589  12.795  20.404  0.00  0.00    +0.000 OA
ATOM     19  C   UNL     1       1.389  14.203  20.297  0.00  0.00    +0.000 C 
ENDBRANCH  14  18
ENDBRANCH   4  13
ENDBRANCH   1   8
BRANCH   1  20
ATOM     20  N   UNL     1       3.798   5.806  19.593  0.00  0.00    +0.000 N 
ATOM     21  H   UNL     1       4.010   5.192  20.393  0.00  0.00    +0.000 HD
BRANCH  20  22
ATOM     22  C   UNL     1       4.350   5.303  18.357  0.00  0.00    +0.000 A 
ATOM     23  C   UNL     1       4.665   6.245  17.370  0.00  0.00    +0.000 A 
ATOM     24  C   UNL     1       5.166   5.834  16.131  0.00  0.00    +0.000 A 
ATOM     25  C   UNL     1       5.357   4.481  15.861  0.00  0.00    +0.000 A 
ATOM     26  C   UNL     1       5.031   3.532  16.827  0.00  0.00    +0.000 A 
ATOM     27  C   UNL     1       4.508   3.941  18.061  0.00  0.00    +0.000 A 
BRANCH  27  28
ATOM     28  S   UNL     1       4.084   2.687  19.227  0.00  0.00    +0.000 S 
ATOM     29  O   UNL     1       5.167   2.539  20.175  0.00  0.00    +0.000 OA
ATOM     30  O   UNL     1       2.720   2.895  19.654  0.00  0.00    +0.000 OA
BRANCH  28  31
ATOM     31  N   UNL     1       4.114   1.318  18.265  0.00  0.00    +0.000 NA
ATOM     32  H   UNL     1       5.034   0.883  18.252  0.00  0.00    +0.000 HD
ATOM     33  H   UNL     1       3.337   0.686  18.459  0.00  0.00    +0.000 HD
ENDBRANCH  28  31
ENDBRANCH  27  28
ENDBRANCH  20  22
ENDBRANCH   1  20
TORSDOF 8
ENDMDL
