MODEL 1
REMARK VINA RESULT:      -7.9      0.000      0.000
REMARK  Name = 
REMARK  4 active torsions:
REMARK  status: ('A' for Active; 'I' for Inactive)
REMARK    1  A    between atoms: C_1  and  C_2
REMARK    2  A    between atoms: C_6  and  C_7
REMARK    3  A    between atoms: N_9  and  C_10
REMARK    4  A    between atoms: C_13  and  N_14
REMARK                            x       y       z     vdW  Elec       q    Type
REMARK                         _______ _______ _______ _____ _____    ______ ____
ROOT
ATOM      1  C   UNL     1      -0.175  13.006  19.193  0.00  0.00    +0.000 A 
ATOM      2  C   UNL     1       0.876  12.667  20.052  0.00  0.00    +0.000 A 
ATOM      3  C   UNL     1       1.335  11.343  20.146  0.00  0.00    +0.000 A 
ATOM      4  C   UNL     1       0.777  10.342  19.343  0.00  0.00    +0.000 A 
ATOM      5  C   UNL     1      -0.315  10.672  18.524  0.00  0.00    +0.000 A 
ATOM      6 CL   UNL     1      -1.188   9.467  17.637  0.00  0.00    +0.000 Cl
ATOM      7  C   UNL     1      -0.798  11.986  18.466  0.00  0.00    +0.000 A 
ENDROOT
BRANCH   4   8
ATOM      8  N   UNL     1       1.367   9.061  19.305  0.00  0.00    +0.000 N 
ATOM      9  C   UNL     1       1.388   8.158  20.340  0.00  0.00    +0.000 C 
ATOM     10  O   UNL     1       0.912   8.223  21.458  0.00  0.00    +0.000 OA
ATOM     11  C   UNL     1       2.118   6.985  19.840  0.00  0.00    +0.000 A 
ATOM     12  C   UNL     1       2.358   5.751  20.421  0.00  0.00    +0.000 A 
ATOM     13  C   UNL     1       3.116   4.834  19.681  0.00  0.00    +0.000 A 
ATOM     14  C   UNL     1       3.614   5.176  18.410  0.00  0.00    +0.000 A 
ATOM     15  F   UNL     1       4.353   4.285  17.737  0.00  0.00    +0.000 F 
ATOM     16  C   UNL     1       3.357   6.416  17.835  0.00  0.00    +0.000 A 
ATOM     17  C   UNL     1       2.587   7.290  18.576  0.00  0.00    +0.000 A 
ATOM     18  C   UNL     1       2.124   8.630  18.240  0.00  0.00    +0.000 C 
ATOM     19  O   UNL     1       2.460   9.206  17.222  0.00  0.00    +0.000 OA
ENDBRANCH   4   8
BRANCH   1  22
ATOM     20  C   UNL     1       0.088  15.437  18.668  0.00  0.00    +0.000 C 
ATOM     21  O   UNL     1       1.294  15.416  18.445  0.00  0.00    +0.000 OA
ATOM     22  N   UNL     1      -0.657  14.323  19.006  0.00  0.00    +0.000 N 
ATOM     23  H   UNL     1      -1.659  14.431  18.991  0.00  0.00    +0.000 HD
BRANCH  20  29
ATOM     24  C   UNL     1       0.509  18.285  16.820  0.00  0.00    +0.000 C 
ATOM     25  C   UNL     1      -0.520  17.856  17.797  0.00  0.00    +0.000 A 
ATOM     26  C   UNL     1      -1.654  18.624  18.167  0.00  0.00    +0.000 A 
ATOM     27  N   UNL     1      -2.426  18.011  19.060  0.00  0.00    +0.000 NA
ATOM     28  N   UNL     1      -1.801  16.844  19.259  0.00  0.00    +0.000 N 
ATOM     29  C   UNL     1      -0.646  16.680  18.530  0.00  0.00    +0.000 A 
ATOM     30  H   UNL     1      -2.200  16.174  19.910  0.00  0.00    +0.000 HD
ENDBRANCH  20  29
ENDBRANCH   1  22
TORSDOF 3
ENDMDL
MODEL 2
REMARK VINA RESULT:      -7.7      4.503      9.481
REMARK  Name = 
REMARK  4 active torsions:
REMARK  status: ('A' for Active; 'I' for Inactive)
REMARK    1  A    between atoms: C_1  and  C_2
REMARK    2  A    between atoms: C_6  and  C_7
REMARK    3  A    between atoms: N_9  and  C_10
REMARK    4  A    between atoms: C_13  and  N_14
REMARK                            x       y       z     vdW  Elec       q    Type
REMARK                         _______ _______ _______ _____ _____    ______ ____
ROOT
ATOM      1  C   UNL     1       2.475   8.229  18.607  0.00  0.00    +0.000 A 
ATOM      2  C   UNL     1       1.980   9.211  17.743  0.00  0.00    +0.000 A 
ATOM      3  C   UNL     1       0.917  10.045  18.127  0.00  0.00    +0.000 A 
ATOM      4  C   UNL     1       0.364   9.940  19.408  0.00  0.00    +0.000 A 
ATOM      5  C   UNL     1       0.823   8.916  20.254  0.00  0.00    +0.000 A 
ATOM      6 CL   UNL     1       0.074   8.589  21.782  0.00  0.00    +0.000 Cl
ATOM      7  C   UNL     1       1.853   8.059  19.848  0.00  0.00    +0.000 A 
ENDROOT
BRANCH   4   8
ATOM      8  N   UNL     1      -0.569  10.901  19.852  0.00  0.00    +0.000 N 
ATOM      9  C   UNL     1      -1.810  11.124  19.307  0.00  0.00    +0.000 C 
ATOM     10  O   UNL     1      -2.382  10.569  18.388  0.00  0.00    +0.000 OA
ATOM     11  C   UNL     1      -2.404  12.219  20.085  0.00  0.00    +0.000 A 
ATOM     12  C   UNL     1      -3.665  12.787  20.034  0.00  0.00    +0.000 A 
ATOM     13  C   UNL     1      -3.924  13.847  20.914  0.00  0.00    +0.000 A 
ATOM     14  C   UNL     1      -2.928  14.307  21.794  0.00  0.00    +0.000 A 
ATOM     15  F   UNL     1      -3.200  15.335  22.608  0.00  0.00    +0.000 F 
ATOM     16  C   UNL     1      -1.668  13.720  21.841  0.00  0.00    +0.000 A 
ATOM     17  C   UNL     1      -1.450  12.663  20.981  0.00  0.00    +0.000 A 
ATOM     18  C   UNL     1      -0.264  11.832  20.818  0.00  0.00    +0.000 C 
ATOM     19  O   UNL     1       0.777  12.046  21.411  0.00  0.00    +0.000 OA
ENDBRANCH   4   8
BRANCH   1  22
ATOM     20  C   UNL     1       3.522   6.055  17.952  0.00  0.00    +0.000 C 
ATOM     21  O   UNL     1       2.481   5.421  17.806  0.00  0.00    +0.000 OA
ATOM     22  N   UNL     1       3.573   7.388  18.311  0.00  0.00    +0.000 N 
ATOM     23  H   UNL     1       4.469   7.842  18.226  0.00  0.00    +0.000 HD
BRANCH  20  29
ATOM     24  C   UNL     1       5.392   5.468  15.146  0.00  0.00    +0.000 C 
ATOM     25  C   UNL     1       5.593   5.153  16.581  0.00  0.00    +0.000 A 
ATOM     26  C   UNL     1       6.734   4.498  17.113  0.00  0.00    +0.000 A 
ATOM     27  N   UNL     1       6.672   4.338  18.432  0.00  0.00    +0.000 NA
ATOM     28  N   UNL     1       5.500   4.898  18.756  0.00  0.00    +0.000 N 
ATOM     29  C   UNL     1       4.796   5.412  17.691  0.00  0.00    +0.000 A 
ATOM     30  H   UNL     1       5.210   4.911  19.730  0.00  0.00    +0.000 HD
ENDBRANCH  20  29
ENDBRANCH   1  22
TORSDOF 3
ENDMDL
MODEL 3
REMARK VINA RESULT:      -7.6      4.537      9.467
REMARK  Name = 
REMARK  4 active torsions:
REMARK  status: ('A' for Active; 'I' for Inactive)
REMARK    1  A    between atoms: C_1  and  C_2
REMARK    2  A    between atoms: C_6  and  C_7
REMARK    3  A    between atoms: N_9  and  C_10
REMARK    4  A    between atoms: C_13  and  N_14
REMARK                            x       y       z     vdW  Elec       q    Type
REMARK                         _______ _______ _______ _____ _____    ______ ____
ROOT
ATOM      1  C   UNL     1       2.813   8.023  18.445  0.00  0.00    +0.000 A 
ATOM      2  C   UNL     1       2.346   9.033  17.598  0.00  0.00    +0.000 A 
ATOM      3  C   UNL     1       1.261   9.844  17.967  0.00  0.00    +0.000 A 
ATOM      4  C   UNL     1       0.654   9.685  19.218  0.00  0.00    +0.000 A 
ATOM      5  C   UNL     1       1.085   8.633  20.043  0.00  0.00    +0.000 A 
ATOM      6 CL   UNL     1       0.275   8.242  21.523  0.00  0.00    +0.000 Cl
ATOM      7  C   UNL     1       2.140   7.799  19.650  0.00  0.00    +0.000 A 
ENDROOT
BRANCH   4   8
ATOM      8  N   UNL     1      -0.306  10.621  19.657  0.00  0.00    +0.000 N 
ATOM      9  C   UNL     1      -0.188  11.432  20.760  0.00  0.00    +0.000 C 
ATOM     10  O   UNL     1       0.721  11.554  21.559  0.00  0.00    +0.000 OA
ATOM     11  C   UNL     1      -1.429  12.216  20.822  0.00  0.00    +0.000 A 
ATOM     12  C   UNL     1      -1.810  13.245  21.666  0.00  0.00    +0.000 A 
ATOM     13  C   UNL     1      -3.088  13.786  21.476  0.00  0.00    +0.000 A 
ATOM     14  C   UNL     1      -3.937  13.283  20.473  0.00  0.00    +0.000 A 
ATOM     15  F   UNL     1      -5.162  13.808  20.330  0.00  0.00    +0.000 F 
ATOM     16  C   UNL     1      -3.537  12.256  19.626  0.00  0.00    +0.000 A 
ATOM     17  C   UNL     1      -2.264  11.759  19.820  0.00  0.00    +0.000 A 
ATOM     18  C   UNL     1      -1.553  10.720  19.085  0.00  0.00    +0.000 C 
ATOM     19  O   UNL     1      -2.074  10.066  18.201  0.00  0.00    +0.000 OA
ENDBRANCH   4   8
BRANCH   1  22
ATOM     20  C   UNL     1       3.907   5.874  17.780  0.00  0.00    +0.000 C 
ATOM     21  O   UNL     1       2.880   5.229  17.594  0.00  0.00    +0.000 OA
ATOM     22  N   UNL     1       3.930   7.202  18.164  0.00  0.00    +0.000 N 
ATOM     23  H   UNL     1       4.822   7.669  18.112  0.00  0.00    +0.000 HD
BRANCH  20  29
ATOM     24  C   UNL     1       5.583   4.793  15.000  0.00  0.00    +0.000 C 
ATOM     25  C   UNL     1       5.919   4.802  16.443  0.00  0.00    +0.000 A 
ATOM     26  C   UNL     1       7.140   4.332  16.993  0.00  0.00    +0.000 A 
ATOM     27  N   UNL     1       7.194   4.455  18.317  0.00  0.00    +0.000 NA
ATOM     28  N   UNL     1       6.017   5.015  18.623  0.00  0.00    +0.000 N 
ATOM     29  C   UNL     1       5.197   5.253  17.544  0.00  0.00    +0.000 A 
ATOM     30  H   UNL     1       5.805   5.221  19.595  0.00  0.00    +0.000 HD
ENDBRANCH  20  29
ENDBRANCH   1  22
TORSDOF 3
ENDMDL
MODEL 4
REMARK VINA RESULT:      -7.6      0.855      1.176
REMARK  Name = 
REMARK  4 active torsions:
REMARK  status: ('A' for Active; 'I' for Inactive)
REMARK    1  A    between atoms: C_1  and  C_2
REMARK    2  A    between atoms: C_6  and  C_7
REMARK    3  A    between atoms: N_9  and  C_10
REMARK    4  A    between atoms: C_13  and  N_14
REMARK                            x       y       z     vdW  Elec       q    Type
REMARK                         _______ _______ _______ _____ _____    ______ ____
ROOT
ATOM      1  C   UNL     1      -0.328  13.042  19.288  0.00  0.00    +0.000 A 
ATOM      2  C   UNL     1       0.617  12.669  20.249  0.00  0.00    +0.000 A 
ATOM      3  C   UNL     1       1.079  11.346  20.335  0.00  0.00    +0.000 A 
ATOM      4  C   UNL     1       0.633  10.382  19.424  0.00  0.00    +0.000 A 
ATOM      5  C   UNL     1      -0.358  10.743  18.497  0.00  0.00    +0.000 A 
ATOM      6 CL   UNL     1      -1.104   9.577  17.456  0.00  0.00    +0.000 Cl
ATOM      7  C   UNL     1      -0.847  12.055  18.445  0.00  0.00    +0.000 A 
ENDROOT
BRANCH   4   8
ATOM      8  N   UNL     1       1.240   9.108  19.396  0.00  0.00    +0.000 N 
ATOM      9  C   UNL     1       1.268   8.211  20.436  0.00  0.00    +0.000 C 
ATOM     10  O   UNL     1       0.787   8.277  21.552  0.00  0.00    +0.000 OA
ATOM     11  C   UNL     1       2.015   7.045  19.947  0.00  0.00    +0.000 A 
ATOM     12  C   UNL     1       2.269   5.818  20.536  0.00  0.00    +0.000 A 
ATOM     13  C   UNL     1       3.041   4.906  19.804  0.00  0.00    +0.000 A 
ATOM     14  C   UNL     1       3.540   5.247  18.534  0.00  0.00    +0.000 A 
ATOM     15  F   UNL     1       4.293   4.361  17.869  0.00  0.00    +0.000 F 
ATOM     16  C   UNL     1       3.269   6.480  17.950  0.00  0.00    +0.000 A 
ATOM     17  C   UNL     1       2.485   7.348  18.683  0.00  0.00    +0.000 A 
ATOM     18  C   UNL     1       2.007   8.680  18.337  0.00  0.00    +0.000 C 
ATOM     19  O   UNL     1       2.339   9.255  17.317  0.00  0.00    +0.000 OA
ENDBRANCH   4   8
BRANCH   1  22
ATOM     20  C   UNL     1      -0.051  15.472  18.764  0.00  0.00    +0.000 C 
ATOM     21  O   UNL     1       1.153  15.442  18.530  0.00  0.00    +0.000 OA
ATOM     22  N   UNL     1      -0.801  14.363  19.108  0.00  0.00    +0.000 N 
ATOM     23  H   UNL     1      -1.803  14.479  19.102  0.00  0.00    +0.000 HD
BRANCH  20  29
ATOM     24  C   UNL     1      -2.305  17.158  20.710  0.00  0.00    +0.000 C 
ATOM     25  C   UNL     1      -1.693  17.445  19.391  0.00  0.00    +0.000 A 
ATOM     26  C   UNL     1      -1.940  18.612  18.621  0.00  0.00    +0.000 A 
ATOM     27  N   UNL     1      -1.262  18.630  17.477  0.00  0.00    +0.000 NA
ATOM     28  N   UNL     1      -0.568  17.486  17.510  0.00  0.00    +0.000 N 
ATOM     29  C   UNL     1      -0.776  16.722  18.635  0.00  0.00    +0.000 A 
ATOM     30  H   UNL     1       0.047  17.258  16.734  0.00  0.00    +0.000 HD
ENDBRANCH  20  29
ENDBRANCH   1  22
TORSDOF 3
ENDMDL
MODEL 5
REMARK VINA RESULT:      -7.6      4.529      9.525
REMARK  Name = 
REMARK  4 active torsions:
REMARK  status: ('A' for Active; 'I' for Inactive)
REMARK    1  A    between atoms: C_1  and  C_2
REMARK    2  A    between atoms: C_6  and  C_7
REMARK    3  A    between atoms: N_9  and  C_10
REMARK    4  A    between atoms: C_13  and  N_14
REMARK                            x       y       z     vdW  Elec       q    Type
REMARK                         _______ _______ _______ _____ _____    ______ ____
ROOT
ATOM      1  C   UNL     1       2.665   8.069  18.296  0.00  0.00    +0.000 A 
ATOM      2  C   UNL     1       2.186   9.149  17.546  0.00  0.00    +0.000 A 
ATOM      3  C   UNL     1       1.192  10.000  18.056  0.00  0.00    +0.000 A 
ATOM      4  C   UNL     1       0.695   9.811  19.350  0.00  0.00    +0.000 A 
ATOM      5  C   UNL     1       1.134   8.694  20.079  0.00  0.00    +0.000 A 
ATOM      6 CL   UNL     1       0.441   8.272  21.610  0.00  0.00    +0.000 Cl
ATOM      7  C   UNL     1       2.094   7.822  19.548  0.00  0.00    +0.000 A 
ENDROOT
BRANCH   4   8
ATOM      8  N   UNL     1      -0.160  10.776  19.922  0.00  0.00    +0.000 N 
ATOM      9  C   UNL     1      -1.430  11.076  19.496  0.00  0.00    +0.000 C 
ATOM     10  O   UNL     1      -2.097  10.597  18.597  0.00  0.00    +0.000 OA
ATOM     11  C   UNL     1      -1.915  12.143  20.381  0.00  0.00    +0.000 A 
ATOM     12  C   UNL     1      -3.152  12.758  20.466  0.00  0.00    +0.000 A 
ATOM     13  C   UNL     1      -3.297  13.772  21.422  0.00  0.00    +0.000 A 
ATOM     14  C   UNL     1      -2.215  14.143  22.242  0.00  0.00    +0.000 A 
ATOM     15  F   UNL     1      -2.379  15.131  23.132  0.00  0.00    +0.000 F 
ATOM     16  C   UNL     1      -0.980  13.510  22.151  0.00  0.00    +0.000 A 
ATOM     17  C   UNL     1      -0.874  12.499  21.218  0.00  0.00    +0.000 A 
ATOM     18  C   UNL     1       0.260  11.637  20.911  0.00  0.00    +0.000 C 
ATOM     19  O   UNL     1       1.353  11.779  21.426  0.00  0.00    +0.000 OA
ENDBRANCH   4   8
BRANCH   1  22
ATOM     20  C   UNL     1       3.610   5.834  17.693  0.00  0.00    +0.000 C 
ATOM     21  O   UNL     1       2.581   5.184  17.852  0.00  0.00    +0.000 OA
ATOM     22  N   UNL     1       3.698   7.201  17.871  0.00  0.00    +0.000 N 
ATOM     23  H   UNL     1       4.542   7.644  17.542  0.00  0.00    +0.000 HD
BRANCH  20  29
ATOM     24  C   UNL     1       6.776   5.484  18.944  0.00  0.00    +0.000 C 
ATOM     25  C   UNL     1       6.115   4.995  17.711  0.00  0.00    +0.000 A 
ATOM     26  C   UNL     1       6.739   4.183  16.727  0.00  0.00    +0.000 A 
ATOM     27  N   UNL     1       5.927   3.876  15.719  0.00  0.00    +0.000 NA
ATOM     28  N   UNL     1       4.778   4.476  16.053  0.00  0.00    +0.000 N 
ATOM     29  C   UNL     1       4.817   5.167  17.242  0.00  0.00    +0.000 A 
ATOM     30  H   UNL     1       3.977   4.390  15.435  0.00  0.00    +0.000 HD
ENDBRANCH  20  29
ENDBRANCH   1  22
TORSDOF 3
ENDMDL
MODEL 6
REMARK VINA RESULT:      -7.5      4.078      9.862
REMARK  Name = 
REMARK  4 active torsions:
REMARK  status: ('A' for Active; 'I' for Inactive)
REMARK    1  A    between atoms: C_1  and  C_2
REMARK    2  A    between atoms: C_6  and  C_7
REMARK    3  A    between atoms: N_9  and  C_10
REMARK    4  A    between atoms: C_13  and  N_14
REMARK                            x       y       z     vdW  Elec       q    Type
REMARK                         _______ _______ _______ _____ _____    ______ ____
ROOT
ATOM      1  C   UNL     1       1.632   7.943  20.414  0.00  0.00    +0.000 A 
ATOM      2  C   UNL     1       1.647   8.789  19.301  0.00  0.00    +0.000 A 
ATOM      3  C   UNL     1       1.070  10.069  19.356  0.00  0.00    +0.000 A 
ATOM      4  C   UNL     1       0.509  10.540  20.548  0.00  0.00    +0.000 A 
ATOM      5  C   UNL     1       0.443   9.668  21.648  0.00  0.00    +0.000 A 
ATOM      6 CL   UNL     1      -0.396  10.094  23.102  0.00  0.00    +0.000 Cl
ATOM      7  C   UNL     1       0.981   8.377  21.573  0.00  0.00    +0.000 A 
ENDROOT
BRANCH   4   8
ATOM      8  N   UNL     1       0.104  11.887  20.650  0.00  0.00    +0.000 N 
ATOM      9  C   UNL     1      -1.136  12.378  20.323  0.00  0.00    +0.000 C 
ATOM     10  O   UNL     1      -2.132  11.808  19.919  0.00  0.00    +0.000 OA
ATOM     11  C   UNL     1      -1.082  13.823  20.580  0.00  0.00    +0.000 A 
ATOM     12  C   UNL     1      -2.067  14.794  20.513  0.00  0.00    +0.000 A 
ATOM     13  C   UNL     1      -1.686  16.111  20.806  0.00  0.00    +0.000 A 
ATOM     14  C   UNL     1      -0.354  16.414  21.140  0.00  0.00    +0.000 A 
ATOM     15  F   UNL     1      -0.018  17.686  21.394  0.00  0.00    +0.000 F 
ATOM     16  C   UNL     1       0.623  15.427  21.212  0.00  0.00    +0.000 A 
ATOM     17  C   UNL     1       0.215  14.136  20.942  0.00  0.00    +0.000 A 
ATOM     18  C   UNL     1       0.982  12.898  20.967  0.00  0.00    +0.000 C 
ATOM     19  O   UNL     1       2.183  12.872  21.164  0.00  0.00    +0.000 OA
ENDBRANCH   4   8
BRANCH   1  22
ATOM     20  C   UNL     1       2.476   5.832  19.372  0.00  0.00    +0.000 C 
ATOM     21  O   UNL     1       2.220   6.122  18.207  0.00  0.00    +0.000 OA
ATOM     22  N   UNL     1       2.236   6.664  20.449  0.00  0.00    +0.000 N 
ATOM     23  H   UNL     1       2.649   6.392  21.328  0.00  0.00    +0.000 HD
BRANCH  20  29
ATOM     24  C   UNL     1       1.519   2.973  20.991  0.00  0.00    +0.000 C 
ATOM     25  C   UNL     1       2.775   3.382  20.317  0.00  0.00    +0.000 A 
ATOM     26  C   UNL     1       3.927   2.564  20.187  0.00  0.00    +0.000 A 
ATOM     27  N   UNL     1       4.919   3.166  19.536  0.00  0.00    +0.000 NA
ATOM     28  N   UNL     1       4.407   4.365  19.233  0.00  0.00    +0.000 N 
ATOM     29  C   UNL     1       3.118   4.566  19.671  0.00  0.00    +0.000 A 
ATOM     30  H   UNL     1       4.977   5.031  18.720  0.00  0.00    +0.000 HD
ENDBRANCH  20  29
ENDBRANCH   1  22
TORSDOF 3
ENDMDL
MODEL 7
REMARK VINA RESULT:      -7.5      4.066      9.907
REMARK  Name = 
REMARK  4 active torsions:
REMARK  status: ('A' for Active; 'I' for Inactive)
REMARK    1  A    between atoms: C_1  and  C_2
REMARK    2  A    between atoms: C_6  and  C_7
REMARK    3  A    between atoms: N_9  and  C_10
REMARK    4  A    between atoms: C_13  and  N_14
REMARK                            x       y       z     vdW  Elec       q    Type
REMARK                         _______ _______ _______ _____ _____    ______ ____
ROOT
ATOM      1  C   UNL     1       1.730   7.874  20.326  0.00  0.00    +0.000 A 
ATOM      2  C   UNL     1       1.768   8.688  19.190  0.00  0.00    +0.000 A 
ATOM      3  C   UNL     1       1.218   9.981  19.205  0.00  0.00    +0.000 A 
ATOM      4  C   UNL     1       0.661  10.497  20.381  0.00  0.00    +0.000 A 
ATOM      5  C   UNL     1       0.572   9.659  21.504  0.00  0.00    +0.000 A 
ATOM      6 CL   UNL     1      -0.265  10.144  22.942  0.00  0.00    +0.000 Cl
ATOM      7  C   UNL     1       1.083   8.355  21.469  0.00  0.00    +0.000 A 
ENDROOT
BRANCH   4   8
ATOM      8  N   UNL     1       0.284  11.855  20.442  0.00  0.00    +0.000 N 
ATOM      9  C   UNL     1       1.090  12.893  20.842  0.00  0.00    +0.000 C 
ATOM     10  O   UNL     1       2.256  12.901  21.192  0.00  0.00    +0.000 OA
ATOM     11  C   UNL     1       0.265  14.105  20.754  0.00  0.00    +0.000 A 
ATOM     12  C   UNL     1       0.588  15.438  20.948  0.00  0.00    +0.000 A 
ATOM     13  C   UNL     1      -0.447  16.372  20.803  0.00  0.00    +0.000 A 
ATOM     14  C   UNL     1      -1.752  15.953  20.487  0.00  0.00    +0.000 A 
ATOM     15  F   UNL     1      -2.723  16.869  20.377  0.00  0.00    +0.000 F 
ATOM     16  C   UNL     1      -2.059  14.612  20.286  0.00  0.00    +0.000 A 
ATOM     17  C   UNL     1      -1.016  13.716  20.411  0.00  0.00    +0.000 A 
ATOM     18  C   UNL     1      -1.010  12.270  20.231  0.00  0.00    +0.000 C 
ATOM     19  O   UNL     1      -2.022  11.630  20.015  0.00  0.00    +0.000 OA
ENDBRANCH   4   8
BRANCH   1  22
ATOM     20  C   UNL     1       2.483   5.695  19.359  0.00  0.00    +0.000 C 
ATOM     21  O   UNL     1       2.184   5.933  18.193  0.00  0.00    +0.000 OA
ATOM     22  N   UNL     1       2.307   6.585  20.401  0.00  0.00    +0.000 N 
ATOM     23  H   UNL     1       2.750   6.347  21.275  0.00  0.00    +0.000 HD
BRANCH  20  29
ATOM     24  C   UNL     1       1.526   2.936  21.143  0.00  0.00    +0.000 C 
ATOM     25  C   UNL     1       2.764   3.286  20.408  0.00  0.00    +0.000 A 
ATOM     26  C   UNL     1       3.895   2.437  20.277  0.00  0.00    +0.000 A 
ATOM     27  N   UNL     1       4.874   2.986  19.564  0.00  0.00    +0.000 NA
ATOM     28  N   UNL     1       4.377   4.181  19.223  0.00  0.00    +0.000 N 
ATOM     29  C   UNL     1       3.109   4.430  19.695  0.00  0.00    +0.000 A 
ATOM     30  H   UNL     1       4.942   4.809  18.659  0.00  0.00    +0.000 HD
ENDBRANCH  20  29
ENDBRANCH   1  22
TORSDOF 3
ENDMDL
MODEL 8
REMARK VINA RESULT:      -7.5      4.500      9.487
REMARK  Name = 
REMARK  4 active torsions:
REMARK  status: ('A' for Active; 'I' for Inactive)
REMARK    1  A    between atoms: C_1  and  C_2
REMARK    2  A    between atoms: C_6  and  C_7
REMARK    3  A    between atoms: N_9  and  C_10
REMARK    4  A    between atoms: C_13  and  N_14
REMARK                            x       y       z     vdW  Elec       q    Type
REMARK                         _______ _______ _______ _____ _____    ______ ____
ROOT
ATOM      1  C   UNL     1       2.658   8.125  18.327  0.00  0.00    +0.000 A 
ATOM      2  C   UNL     1       2.218   9.202  17.551  0.00  0.00    +0.000 A 
ATOM      3  C   UNL     1       1.215  10.068  18.017  0.00  0.00    +0.000 A 
ATOM      4  C   UNL     1       0.670   9.895  19.294  0.00  0.00    +0.000 A 
ATOM      5  C   UNL     1       1.071   8.780  20.048  0.00  0.00    +0.000 A 
ATOM      6 CL   UNL     1       0.319   8.379  21.557  0.00  0.00    +0.000 Cl
ATOM      7  C   UNL     1       2.040   7.894  19.560  0.00  0.00    +0.000 A 
ENDROOT
BRANCH   4   8
ATOM      8  N   UNL     1      -0.195  10.874  19.827  0.00  0.00    +0.000 N 
ATOM      9  C   UNL     1       0.077  11.683  20.903  0.00  0.00    +0.000 C 
ATOM     10  O   UNL     1       1.073  11.768  21.598  0.00  0.00    +0.000 OA
ATOM     11  C   UNL     1      -1.114  12.521  21.093  0.00  0.00    +0.000 A 
ATOM     12  C   UNL     1      -1.356  13.569  21.965  0.00  0.00    +0.000 A 
ATOM     13  C   UNL     1      -2.623  14.165  21.910  0.00  0.00    +0.000 A 
ATOM     14  C   UNL     1      -3.597  13.697  21.010  0.00  0.00    +0.000 A 
ATOM     15  F   UNL     1      -4.806  14.274  20.997  0.00  0.00    +0.000 F 
ATOM     16  C   UNL     1      -3.337  12.649  20.133  0.00  0.00    +0.000 A 
ATOM     17  C   UNL     1      -2.073  12.098  20.192  0.00  0.00    +0.000 A 
ATOM     18  C   UNL     1      -1.492  11.026  19.393  0.00  0.00    +0.000 C 
ATOM     19  O   UNL     1      -2.133  10.392  18.576  0.00  0.00    +0.000 OA
ENDBRANCH   4   8
BRANCH   1  22
ATOM     20  C   UNL     1       3.587   5.885  17.717  0.00  0.00    +0.000 C 
ATOM     21  O   UNL     1       2.534   5.258  17.780  0.00  0.00    +0.000 OA
ATOM     22  N   UNL     1       3.697   7.243  17.947  0.00  0.00    +0.000 N 
ATOM     23  H   UNL     1       4.573   7.672  17.693  0.00  0.00    +0.000 HD
BRANCH  20  29
ATOM     24  C   UNL     1       6.693   5.530  19.110  0.00  0.00    +0.000 C 
ATOM     25  C   UNL     1       6.082   5.024  17.858  0.00  0.00    +0.000 A 
ATOM     26  C   UNL     1       6.739   4.190  16.915  0.00  0.00    +0.000 A 
ATOM     27  N   UNL     1       5.969   3.873  15.878  0.00  0.00    +0.000 NA
ATOM     28  N   UNL     1       4.812   4.488  16.153  0.00  0.00    +0.000 N 
ATOM     29  C   UNL     1       4.806   5.200  17.330  0.00  0.00    +0.000 A 
ATOM     30  H   UNL     1       4.038   4.398  15.502  0.00  0.00    +0.000 HD
ENDBRANCH  20  29
ENDBRANCH   1  22
TORSDOF 3
ENDMDL
MODEL 9
REMARK VINA RESULT:      -7.4      3.734      9.680
REMARK  Name = 
REMARK  4 active torsions:
REMARK  status: ('A' for Active; 'I' for Inactive)
REMARK    1  A    between atoms: C_1  and  C_2
REMARK    2  A    between atoms: C_6  and  C_7
REMARK    3  A    between atoms: N_9  and  C_10
REMARK    4  A    between atoms: C_13  and  N_14
REMARK                            x       y       z     vdW  Elec       q    Type
REMARK                         _______ _______ _______ _____ _____    ______ ____
ROOT
ATOM      1  C   UNL     1       1.911   7.921  19.042  0.00  0.00    +0.000 A 
ATOM      2  C   UNL     1       1.944   8.634  17.840  0.00  0.00    +0.000 A 
ATOM      3  C   UNL     1       1.564   9.985  17.788  0.00  0.00    +0.000 A 
ATOM      4  C   UNL     1       1.189  10.658  18.957  0.00  0.00    +0.000 A 
ATOM      5  C   UNL     1       1.101   9.927  20.152  0.00  0.00    +0.000 A 
ATOM      6 CL   UNL     1       0.470  10.626  21.607  0.00  0.00    +0.000 Cl
ATOM      7  C   UNL     1       1.439   8.568  20.189  0.00  0.00    +0.000 A 
ENDROOT
BRANCH   4   8
ATOM      8  N   UNL     1       0.993  12.055  18.930  0.00  0.00    +0.000 N 
ATOM      9  C   UNL     1      -0.217  12.697  19.039  0.00  0.00    +0.000 C 
ATOM     10  O   UNL     1      -1.337  12.251  19.200  0.00  0.00    +0.000 OA
ATOM     11  C   UNL     1       0.075  14.133  18.943  0.00  0.00    +0.000 A 
ATOM     12  C   UNL     1      -0.749  15.237  19.080  0.00  0.00    +0.000 A 
ATOM     13  C   UNL     1      -0.160  16.498  18.913  0.00  0.00    +0.000 A 
ATOM     14  C   UNL     1       1.208  16.615  18.608  0.00  0.00    +0.000 A 
ATOM     15  F   UNL     1       1.736  17.834  18.434  0.00  0.00    +0.000 F 
ATOM     16  C   UNL     1       2.026  15.498  18.483  0.00  0.00    +0.000 A 
ATOM     17  C   UNL     1       1.425  14.270  18.677  0.00  0.00    +0.000 A 
ATOM     18  C   UNL     1       2.011  12.937  18.647  0.00  0.00    +0.000 C 
ATOM     19  O   UNL     1       3.172  12.735  18.341  0.00  0.00    +0.000 OA
ENDBRANCH   4   8
BRANCH   1  22
ATOM     20  C   UNL     1       3.431   5.985  18.596  0.00  0.00    +0.000 C 
ATOM     21  O   UNL     1       4.237   6.582  17.890  0.00  0.00    +0.000 OA
ATOM     22  N   UNL     1       2.326   6.576  19.181  0.00  0.00    +0.000 N 
ATOM     23  H   UNL     1       1.842   6.031  19.878  0.00  0.00    +0.000 HD
BRANCH  20  29
ATOM     24  C   UNL     1       1.530   3.151  18.345  0.00  0.00    +0.000 C 
ATOM     25  C   UNL     1       2.912   3.404  18.815  0.00  0.00    +0.000 A 
ATOM     26  C   UNL     1       3.806   2.401  19.277  0.00  0.00    +0.000 A 
ATOM     27  N   UNL     1       4.989   2.889  19.638  0.00  0.00    +0.000 NA
ATOM     28  N   UNL     1       4.869   4.201  19.399  0.00  0.00    +0.000 N 
ATOM     29  C   UNL     1       3.645   4.583  18.901  0.00  0.00    +0.000 A 
ATOM     30  H   UNL     1       5.656   4.813  19.593  0.00  0.00    +0.000 HD
ENDBRANCH  20  29
ENDBRANCH   1  22
TORSDOF 3
ENDMDL
