MODEL 1
REMARK VINA RESULT:      -6.9      0.000      0.000
REMARK  Name = 
REMARK  7 active torsions:
REMARK  status: ('A' for Active; 'I' for Inactive)
REMARK    1  A    between atoms: C_1  and  C_2
REMARK    2  A    between atoms: C_5  and  N_6
REMARK    3  A    between atoms: C_7  and  C_9
REMARK    4  A    between atoms: C_9  and  C_10
REMARK    5  A    between atoms: C_10  and  C_11
REMARK    6  A    between atoms: C_11  and  N_12
REMARK    7  A    between atoms: C_13  and  C_15
REMARK                            x       y       z     vdW  Elec       q    Type
REMARK                         _______ _______ _______ _____ _____    ______ ____
ROOT
ATOM      1  N   UNL     1       5.825   3.995  18.478  0.00  0.00    +0.000 N 
ATOM      2  C   UNL     1       6.261   5.156  19.091  0.00  0.00    +0.000 C 
ATOM      3  O   UNL     1       5.567   5.939  19.732  0.00  0.00    +0.000 OA
ATOM      4  H   UNL     1       6.524   3.383  18.070  0.00  0.00    +0.000 HD
ENDROOT
BRANCH   1   9
ATOM      5  C   UNL     1       0.431   2.055  18.768  0.00  0.00    +0.000 C 
ATOM      6  C   UNL     1       1.844   2.547  18.678  0.00  0.00    +0.000 A 
ATOM      7  C   UNL     1       2.264   3.284  17.572  0.00  0.00    +0.000 A 
ATOM      8  C   UNL     1       3.577   3.754  17.488  0.00  0.00    +0.000 A 
ATOM      9  C   UNL     1       4.498   3.503  18.507  0.00  0.00    +0.000 A 
ATOM     10  C   UNL     1       4.088   2.738  19.605  0.00  0.00    +0.000 A 
ATOM     11  C   UNL     1       2.767   2.272  19.695  0.00  0.00    +0.000 A 
ENDBRANCH   1   9
BRANCH   2  12
ATOM     12  C   UNL     1       7.748   5.425  18.925  0.00  0.00    +0.000 C 
BRANCH  12  13
ATOM     13  C   UNL     1       8.001   6.871  18.482  0.00  0.00    +0.000 C 
BRANCH  13  14
ATOM     14  C   UNL     1       7.465   7.144  17.074  0.00  0.00    +0.000 C 
BRANCH  14  15
ATOM     15  N   UNL     1       7.506   5.962  16.233  0.00  0.00    +0.000 N 
ATOM     16  C   UNL     1       6.433   5.616  15.447  0.00  0.00    +0.000 C 
ATOM     17  O   UNL     1       5.418   6.291  15.359  0.00  0.00    +0.000 OA
ATOM     18  H   UNL     1       8.327   5.377  16.258  0.00  0.00    +0.000 HD
BRANCH  16  19
ATOM     19  C   UNL     1       6.506   4.339  14.685  0.00  0.00    +0.000 C 
ATOM     20  C   UNL     1       5.545   3.842  13.636  0.00  0.00    +0.000 C 
ATOM     21  C   UNL     1       6.884   4.377  13.220  0.00  0.00    +0.000 C 
ENDBRANCH  16  19
ENDBRANCH  14  15
ENDBRANCH  13  14
ENDBRANCH  12  13
ENDBRANCH   2  12
TORSDOF 6
ENDMDL
MODEL 2
REMARK VINA RESULT:      -6.7      1.204      5.149
REMARK  Name = 
REMARK  7 active torsions:
REMARK  status: ('A' for Active; 'I' for Inactive)
REMARK    1  A    between atoms: C_1  and  C_2
REMARK    2  A    between atoms: C_5  and  N_6
REMARK    3  A    between atoms: C_7  and  C_9
REMARK    4  A    between atoms: C_9  and  C_10
REMARK    5  A    between atoms: C_10  and  C_11
REMARK    6  A    between atoms: C_11  and  N_12
REMARK    7  A    between atoms: C_13  and  C_15
REMARK                            x       y       z     vdW  Elec       q    Type
REMARK                         _______ _______ _______ _____ _____    ______ ____
ROOT
ATOM      1  N   UNL     1       7.336   5.251  15.999  0.00  0.00    +0.000 N 
ATOM      2  C   UNL     1       6.895   6.393  16.643  0.00  0.00    +0.000 C 
ATOM      3  O   UNL     1       5.977   7.120  16.278  0.00  0.00    +0.000 OA
ATOM      4  H   UNL     1       8.035   4.683  16.466  0.00  0.00    +0.000 HD
ENDROOT
BRANCH   1   9
ATOM      5  C   UNL     1       5.243   2.991  11.156  0.00  0.00    +0.000 C 
ATOM      6  C   UNL     1       5.776   3.598  12.419  0.00  0.00    +0.000 A 
ATOM      7  C   UNL     1       5.026   3.552  13.594  0.00  0.00    +0.000 A 
ATOM      8  C   UNL     1       5.523   4.106  14.775  0.00  0.00    +0.000 A 
ATOM      9  C   UNL     1       6.780   4.714  14.813  0.00  0.00    +0.000 A 
ATOM     10  C   UNL     1       7.522   4.787  13.629  0.00  0.00    +0.000 A 
ATOM     11  C   UNL     1       7.028   4.224  12.442  0.00  0.00    +0.000 A 
ENDBRANCH   1   9
BRANCH   2  12
ATOM     12  C   UNL     1       7.656   6.719  17.918  0.00  0.00    +0.000 C 
BRANCH  12  13
ATOM     13  C   UNL     1       7.632   5.536  18.893  0.00  0.00    +0.000 C 
BRANCH  13  14
ATOM     14  C   UNL     1       6.224   5.258  19.427  0.00  0.00    +0.000 C 
BRANCH  14  15
ATOM     15  N   UNL     1       5.653   4.048  18.867  0.00  0.00    +0.000 N 
ATOM     16  C   UNL     1       4.458   4.077  18.189  0.00  0.00    +0.000 C 
ATOM     17  O   UNL     1       3.836   5.105  17.966  0.00  0.00    +0.000 OA
ATOM     18  H   UNL     1       6.134   3.173  19.011  0.00  0.00    +0.000 HD
BRANCH  16  19
ATOM     19  C   UNL     1       3.883   2.784  17.727  0.00  0.00    +0.000 C 
ATOM     20  C   UNL     1       3.645   1.542  18.546  0.00  0.00    +0.000 C 
ATOM     21  C   UNL     1       2.481   2.406  18.157  0.00  0.00    +0.000 C 
ENDBRANCH  16  19
ENDBRANCH  14  15
ENDBRANCH  13  14
ENDBRANCH  12  13
ENDBRANCH   2  12
TORSDOF 6
ENDMDL
MODEL 3
REMARK VINA RESULT:      -6.7      3.988      5.318
REMARK  Name = 
REMARK  7 active torsions:
REMARK  status: ('A' for Active; 'I' for Inactive)
REMARK    1  A    between atoms: C_1  and  C_2
REMARK    2  A    between atoms: C_5  and  N_6
REMARK    3  A    between atoms: C_7  and  C_9
REMARK    4  A    between atoms: C_9  and  C_10
REMARK    5  A    between atoms: C_10  and  C_11
REMARK    6  A    between atoms: C_11  and  N_12
REMARK    7  A    between atoms: C_13  and  C_15
REMARK                            x       y       z     vdW  Elec       q    Type
REMARK                         _______ _______ _______ _____ _____    ______ ____
ROOT
ATOM      1  N   UNL     1       3.098   6.094  19.665  0.00  0.00    +0.000 N 
ATOM      2  C   UNL     1       2.558   4.822  19.628  0.00  0.00    +0.000 C 
ATOM      3  O   UNL     1       1.376   4.544  19.452  0.00  0.00    +0.000 OA
ATOM      4  H   UNL     1       4.109   6.180  19.713  0.00  0.00    +0.000 HD
ENDROOT
BRANCH   1   9
ATOM      5  C   UNL     1       0.090  10.901  18.773  0.00  0.00    +0.000 C 
ATOM      6  C   UNL     1       0.891   9.657  19.016  0.00  0.00    +0.000 A 
ATOM      7  C   UNL     1       0.934   9.084  20.286  0.00  0.00    +0.000 A 
ATOM      8  C   UNL     1       1.670   7.919  20.515  0.00  0.00    +0.000 A 
ATOM      9  C   UNL     1       2.375   7.298  19.482  0.00  0.00    +0.000 A 
ATOM     10  C   UNL     1       2.357   7.886  18.213  0.00  0.00    +0.000 A 
ATOM     11  C   UNL     1       1.612   9.052  17.979  0.00  0.00    +0.000 A 
ENDBRANCH   1   9
BRANCH   2  12
ATOM     12  C   UNL     1       3.575   3.709  19.822  0.00  0.00    +0.000 C 
BRANCH  12  13
ATOM     13  C   UNL     1       3.602   2.769  18.611  0.00  0.00    +0.000 C 
BRANCH  13  14
ATOM     14  C   UNL     1       4.252   3.422  17.389  0.00  0.00    +0.000 C 
BRANCH  14  15
ATOM     15  N   UNL     1       5.593   3.900  17.669  0.00  0.00    +0.000 N 
ATOM     16  C   UNL     1       5.911   5.230  17.541  0.00  0.00    +0.000 C 
ATOM     17  O   UNL     1       5.097   6.091  17.244  0.00  0.00    +0.000 OA
ATOM     18  H   UNL     1       6.301   3.231  17.932  0.00  0.00    +0.000 HD
BRANCH  16  19
ATOM     19  C   UNL     1       7.329   5.635  17.749  0.00  0.00    +0.000 C 
ATOM     20  C   UNL     1       7.844   6.988  18.164  0.00  0.00    +0.000 C 
ATOM     21  C   UNL     1       7.829   5.865  19.159  0.00  0.00    +0.000 C 
ENDBRANCH  16  19
ENDBRANCH  14  15
ENDBRANCH  13  14
ENDBRANCH  12  13
ENDBRANCH   2  12
TORSDOF 6
ENDMDL
MODEL 4
REMARK VINA RESULT:      -6.7      0.589      1.337
REMARK  Name = 
REMARK  7 active torsions:
REMARK  status: ('A' for Active; 'I' for Inactive)
REMARK    1  A    between atoms: C_1  and  C_2
REMARK    2  A    between atoms: C_5  and  N_6
REMARK    3  A    between atoms: C_7  and  C_9
REMARK    4  A    between atoms: C_9  and  C_10
REMARK    5  A    between atoms: C_10  and  C_11
REMARK    6  A    between atoms: C_11  and  N_12
REMARK    7  A    between atoms: C_13  and  C_15
REMARK                            x       y       z     vdW  Elec       q    Type
REMARK                         _______ _______ _______ _____ _____    ______ ____
ROOT
ATOM      1  N   UNL     1       5.790   3.945  18.401  0.00  0.00    +0.000 N 
ATOM      2  C   UNL     1       6.342   5.053  19.017  0.00  0.00    +0.000 C 
ATOM      3  O   UNL     1       5.762   5.821  19.778  0.00  0.00    +0.000 OA
ATOM      4  H   UNL     1       6.409   3.334  17.879  0.00  0.00    +0.000 HD
ENDROOT
BRANCH   1   9
ATOM      5  C   UNL     1       0.383   2.081  18.893  0.00  0.00    +0.000 C 
ATOM      6  C   UNL     1       1.792   2.581  18.781  0.00  0.00    +0.000 A 
ATOM      7  C   UNL     1       2.753   2.194  19.714  0.00  0.00    +0.000 A 
ATOM      8  C   UNL     1       4.070   2.649  19.608  0.00  0.00    +0.000 A 
ATOM      9  C   UNL     1       4.457   3.495  18.567  0.00  0.00    +0.000 A 
ATOM     10  C   UNL     1       3.488   3.909  17.645  0.00  0.00    +0.000 A 
ATOM     11  C   UNL     1       2.167   3.446  17.746  0.00  0.00    +0.000 A 
ENDBRANCH   1   9
BRANCH   2  12
ATOM     12  C   UNL     1       7.807   5.283  18.684  0.00  0.00    +0.000 C 
BRANCH  12  13
ATOM     13  C   UNL     1       8.119   6.780  18.568  0.00  0.00    +0.000 C 
BRANCH  13  14
ATOM     14  C   UNL     1       7.381   7.432  17.395  0.00  0.00    +0.000 C 
BRANCH  14  15
ATOM     15  N   UNL     1       7.172   6.508  16.297  0.00  0.00    +0.000 N 
ATOM     16  C   UNL     1       5.910   6.250  15.821  0.00  0.00    +0.000 C 
ATOM     17  O   UNL     1       4.905   6.806  16.240  0.00  0.00    +0.000 OA
ATOM     18  H   UNL     1       7.970   6.031  15.905  0.00  0.00    +0.000 HD
BRANCH  16  19
ATOM     19  C   UNL     1       5.759   5.218  14.757  0.00  0.00    +0.000 C 
ATOM     20  C   UNL     1       6.854   4.540  13.977  0.00  0.00    +0.000 C 
ATOM     21  C   UNL     1       6.142   3.786  15.062  0.00  0.00    +0.000 C 
ENDBRANCH  16  19
ENDBRANCH  14  15
ENDBRANCH  13  14
ENDBRANCH  12  13
ENDBRANCH   2  12
TORSDOF 6
ENDMDL
MODEL 5
REMARK VINA RESULT:      -6.6      1.852      2.471
REMARK  Name = 
REMARK  7 active torsions:
REMARK  status: ('A' for Active; 'I' for Inactive)
REMARK    1  A    between atoms: C_1  and  C_2
REMARK    2  A    between atoms: C_5  and  N_6
REMARK    3  A    between atoms: C_7  and  C_9
REMARK    4  A    between atoms: C_9  and  C_10
REMARK    5  A    between atoms: C_10  and  C_11
REMARK    6  A    between atoms: C_11  and  N_12
REMARK    7  A    between atoms: C_13  and  C_15
REMARK                            x       y       z     vdW  Elec       q    Type
REMARK                         _______ _______ _______ _____ _____    ______ ____
ROOT
ATOM      1  N   UNL     1       4.877   5.318  18.496  0.00  0.00    +0.000 N 
ATOM      2  C   UNL     1       6.193   5.653  18.756  0.00  0.00    +0.000 C 
ATOM      3  O   UNL     1       6.813   5.403  19.785  0.00  0.00    +0.000 OA
ATOM      4  H   UNL     1       4.518   5.491  17.563  0.00  0.00    +0.000 HD
ENDROOT
BRANCH   1   9
ATOM      5  C   UNL     1       1.277   2.514  21.980  0.00  0.00    +0.000 C 
ATOM      6  C   UNL     1       2.233   3.245  21.085  0.00  0.00    +0.000 A 
ATOM      7  C   UNL     1       3.252   2.555  20.429  0.00  0.00    +0.000 A 
ATOM      8  C   UNL     1       4.138   3.230  19.586  0.00  0.00    +0.000 A 
ATOM      9  C   UNL     1       4.024   4.606  19.374  0.00  0.00    +0.000 A 
ATOM     10  C   UNL     1       3.021   5.305  20.053  0.00  0.00    +0.000 A 
ATOM     11  C   UNL     1       2.124   4.628  20.895  0.00  0.00    +0.000 A 
ENDBRANCH   1   9
BRANCH   2  12
ATOM     12  C   UNL     1       6.882   6.390  17.619  0.00  0.00    +0.000 C 
BRANCH  12  13
ATOM     13  C   UNL     1       6.407   5.871  16.257  0.00  0.00    +0.000 C 
BRANCH  13  14
ATOM     14  C   UNL     1       7.208   4.651  15.794  0.00  0.00    +0.000 C 
BRANCH  14  15
ATOM     15  N   UNL     1       6.672   4.071  14.577  0.00  0.00    +0.000 N 
ATOM     16  C   UNL     1       7.046   4.544  13.343  0.00  0.00    +0.000 C 
ATOM     17  O   UNL     1       7.878   5.426  13.184  0.00  0.00    +0.000 OA
ATOM     18  H   UNL     1       5.991   3.330  14.652  0.00  0.00    +0.000 HD
BRANCH  16  19
ATOM     19  C   UNL     1       6.383   3.969  12.141  0.00  0.00    +0.000 C 
ATOM     20  C   UNL     1       5.999   2.531  11.907  0.00  0.00    +0.000 C 
ATOM     21  C   UNL     1       4.935   3.538  12.234  0.00  0.00    +0.000 C 
ENDBRANCH  16  19
ENDBRANCH  14  15
ENDBRANCH  13  14
ENDBRANCH  12  13
ENDBRANCH   2  12
TORSDOF 6
ENDMDL
MODEL 6
REMARK VINA RESULT:      -6.6      3.743      5.250
REMARK  Name = 
REMARK  7 active torsions:
REMARK  status: ('A' for Active; 'I' for Inactive)
REMARK    1  A    between atoms: C_1  and  C_2
REMARK    2  A    between atoms: C_5  and  N_6
REMARK    3  A    between atoms: C_7  and  C_9
REMARK    4  A    between atoms: C_9  and  C_10
REMARK    5  A    between atoms: C_10  and  C_11
REMARK    6  A    between atoms: C_11  and  N_12
REMARK    7  A    between atoms: C_13  and  C_15
REMARK                            x       y       z     vdW  Elec       q    Type
REMARK                         _______ _______ _______ _____ _____    ______ ____
ROOT
ATOM      1  N   UNL     1       2.326   5.209  20.732  0.00  0.00    +0.000 N 
ATOM      2  C   UNL     1       1.771   4.024  20.285  0.00  0.00    +0.000 C 
ATOM      3  O   UNL     1       1.017   3.895  19.326  0.00  0.00    +0.000 OA
ATOM      4  H   UNL     1       3.018   5.160  21.473  0.00  0.00    +0.000 HD
ENDROOT
BRANCH   1   9
ATOM      5  C   UNL     1       1.488  10.276  18.167  0.00  0.00    +0.000 C 
ATOM      6  C   UNL     1       1.722   8.961  18.849  0.00  0.00    +0.000 A 
ATOM      7  C   UNL     1       1.261   8.749  20.148  0.00  0.00    +0.000 A 
ATOM      8  C   UNL     1       1.467   7.523  20.784  0.00  0.00    +0.000 A 
ATOM      9  C   UNL     1       2.133   6.479  20.137  0.00  0.00    +0.000 A 
ATOM     10  C   UNL     1       2.623   6.699  18.845  0.00  0.00    +0.000 A 
ATOM     11  C   UNL     1       2.410   7.928  18.201  0.00  0.00    +0.000 A 
ENDBRANCH   1   9
BRANCH   2  12
ATOM     12  C   UNL     1       2.176   2.804  21.096  0.00  0.00    +0.000 C 
BRANCH  12  13
ATOM     13  C   UNL     1       3.682   2.537  20.976  0.00  0.00    +0.000 C 
BRANCH  13  14
ATOM     14  C   UNL     1       4.114   2.320  19.523  0.00  0.00    +0.000 C 
BRANCH  14  15
ATOM     15  N   UNL     1       5.119   3.277  19.101  0.00  0.00    +0.000 N 
ATOM     16  C   UNL     1       4.961   4.008  17.948  0.00  0.00    +0.000 C 
ATOM     17  O   UNL     1       3.963   3.947  17.245  0.00  0.00    +0.000 OA
ATOM     18  H   UNL     1       5.957   3.376  19.654  0.00  0.00    +0.000 HD
BRANCH  16  19
ATOM     19  C   UNL     1       6.076   4.899  17.524  0.00  0.00    +0.000 C 
ATOM     20  C   UNL     1       7.553   4.669  17.708  0.00  0.00    +0.000 C 
ATOM     21  C   UNL     1       6.939   4.489  16.350  0.00  0.00    +0.000 C 
ENDBRANCH  16  19
ENDBRANCH  14  15
ENDBRANCH  13  14
ENDBRANCH  12  13
ENDBRANCH   2  12
TORSDOF 6
ENDMDL
MODEL 7
REMARK VINA RESULT:      -6.6      1.103      5.095
REMARK  Name = 
REMARK  7 active torsions:
REMARK  status: ('A' for Active; 'I' for Inactive)
REMARK    1  A    between atoms: C_1  and  C_2
REMARK    2  A    between atoms: C_5  and  N_6
REMARK    3  A    between atoms: C_7  and  C_9
REMARK    4  A    between atoms: C_9  and  C_10
REMARK    5  A    between atoms: C_10  and  C_11
REMARK    6  A    between atoms: C_11  and  N_12
REMARK    7  A    between atoms: C_13  and  C_15
REMARK                            x       y       z     vdW  Elec       q    Type
REMARK                         _______ _______ _______ _____ _____    ______ ____
ROOT
ATOM      1  N   UNL     1       7.498   5.648  15.740  0.00  0.00    +0.000 N 
ATOM      2  C   UNL     1       6.749   6.457  16.574  0.00  0.00    +0.000 C 
ATOM      3  O   UNL     1       5.544   6.671  16.483  0.00  0.00    +0.000 OA
ATOM      4  H   UNL     1       8.466   5.475  15.990  0.00  0.00    +0.000 HD
ENDROOT
BRANCH   1   9
ATOM      5  C   UNL     1       5.271   2.701  11.346  0.00  0.00    +0.000 C 
ATOM      6  C   UNL     1       5.869   3.457  12.495  0.00  0.00    +0.000 A 
ATOM      7  C   UNL     1       7.009   4.238  12.308  0.00  0.00    +0.000 A 
ATOM      8  C   UNL     1       7.563   4.952  13.372  0.00  0.00    +0.000 A 
ATOM      9  C   UNL     1       6.990   4.907  14.645  0.00  0.00    +0.000 A 
ATOM     10  C   UNL     1       5.864   4.101  14.843  0.00  0.00    +0.000 A 
ATOM     11  C   UNL     1       5.301   3.389  13.772  0.00  0.00    +0.000 A 
ENDBRANCH   1   9
BRANCH   2  12
ATOM     12  C   UNL     1       7.549   7.108  17.691  0.00  0.00    +0.000 C 
BRANCH  12  13
ATOM     13  C   UNL     1       8.035   6.062  18.703  0.00  0.00    +0.000 C 
BRANCH  13  14
ATOM     14  C   UNL     1       6.907   5.585  19.622  0.00  0.00    +0.000 C 
BRANCH  14  15
ATOM     15  N   UNL     1       6.090   4.559  19.002  0.00  0.00    +0.000 N 
ATOM     16  C   UNL     1       4.720   4.594  19.092  0.00  0.00    +0.000 C 
ATOM     17  O   UNL     1       4.105   5.498  19.638  0.00  0.00    +0.000 OA
ATOM     18  H   UNL     1       6.549   3.796  18.526  0.00  0.00    +0.000 HD
BRANCH  16  19
ATOM     19  C   UNL     1       3.950   3.457  18.517  0.00  0.00    +0.000 C 
ATOM     20  C   UNL     1       2.453   3.332  18.397  0.00  0.00    +0.000 C 
ATOM     21  C   UNL     1       3.272   3.632  17.175  0.00  0.00    +0.000 C 
ENDBRANCH  16  19
ENDBRANCH  14  15
ENDBRANCH  13  14
ENDBRANCH  12  13
ENDBRANCH   2  12
TORSDOF 6
ENDMDL
MODEL 8
REMARK VINA RESULT:      -6.5      1.679      2.155
REMARK  Name = 
REMARK  7 active torsions:
REMARK  status: ('A' for Active; 'I' for Inactive)
REMARK    1  A    between atoms: C_1  and  C_2
REMARK    2  A    between atoms: C_5  and  N_6
REMARK    3  A    between atoms: C_7  and  C_9
REMARK    4  A    between atoms: C_9  and  C_10
REMARK    5  A    between atoms: C_10  and  C_11
REMARK    6  A    between atoms: C_11  and  N_12
REMARK    7  A    between atoms: C_13  and  C_15
REMARK                            x       y       z     vdW  Elec       q    Type
REMARK                         _______ _______ _______ _____ _____    ______ ____
ROOT
ATOM      1  N   UNL     1       5.434   5.603  18.742  0.00  0.00    +0.000 N 
ATOM      2  C   UNL     1       6.756   5.668  19.144  0.00  0.00    +0.000 C 
ATOM      3  O   UNL     1       7.237   5.131  20.137  0.00  0.00    +0.000 OA
ATOM      4  H   UNL     1       5.191   6.006  17.843  0.00  0.00    +0.000 HD
ENDROOT
BRANCH   1   9
ATOM      5  C   UNL     1       1.166   2.770  21.331  0.00  0.00    +0.000 C 
ATOM      6  C   UNL     1       2.293   3.507  20.672  0.00  0.00    +0.000 A 
ATOM      7  C   UNL     1       3.375   2.807  20.139  0.00  0.00    +0.000 A 
ATOM      8  C   UNL     1       4.423   3.488  19.515  0.00  0.00    +0.000 A 
ATOM      9  C   UNL     1       4.412   4.880  19.403  0.00  0.00    +0.000 A 
ATOM     10  C   UNL     1       3.342   5.587  19.962  0.00  0.00    +0.000 A 
ATOM     11  C   UNL     1       2.284   4.904  20.584  0.00  0.00    +0.000 A 
ENDBRANCH   1   9
BRANCH   2  12
ATOM     12  C   UNL     1       7.644   6.491  18.225  0.00  0.00    +0.000 C 
BRANCH  12  13
ATOM     13  C   UNL     1       7.223   6.329  16.759  0.00  0.00    +0.000 C 
BRANCH  13  14
ATOM     14  C   UNL     1       7.450   4.903  16.249  0.00  0.00    +0.000 C 
BRANCH  14  15
ATOM     15  N   UNL     1       7.259   4.796  14.815  0.00  0.00    +0.000 N 
ATOM     16  C   UNL     1       6.062   4.373  14.290  0.00  0.00    +0.000 C 
ATOM     17  O   UNL     1       5.081   4.117  14.973  0.00  0.00    +0.000 OA
ATOM     18  H   UNL     1       8.034   5.009  14.206  0.00  0.00    +0.000 HD
BRANCH  16  19
ATOM     19  C   UNL     1       5.968   4.192  12.815  0.00  0.00    +0.000 C 
ATOM     20  C   UNL     1       7.054   3.734  11.877  0.00  0.00    +0.000 C 
ATOM     21  C   UNL     1       5.947   2.790  12.245  0.00  0.00    +0.000 C 
ENDBRANCH  16  19
ENDBRANCH  14  15
ENDBRANCH  13  14
ENDBRANCH  12  13
ENDBRANCH   2  12
TORSDOF 6
ENDMDL
MODEL 9
REMARK VINA RESULT:      -6.5      3.997      5.409
REMARK  Name = 
REMARK  7 active torsions:
REMARK  status: ('A' for Active; 'I' for Inactive)
REMARK    1  A    between atoms: C_1  and  C_2
REMARK    2  A    between atoms: C_5  and  N_6
REMARK    3  A    between atoms: C_7  and  C_9
REMARK    4  A    between atoms: C_9  and  C_10
REMARK    5  A    between atoms: C_10  and  C_11
REMARK    6  A    between atoms: C_11  and  N_12
REMARK    7  A    between atoms: C_13  and  C_15
REMARK                            x       y       z     vdW  Elec       q    Type
REMARK                         _______ _______ _______ _____ _____    ______ ____
ROOT
ATOM      1  N   UNL     1       2.716   5.702  20.254  0.00  0.00    +0.000 N 
ATOM      2  C   UNL     1       1.935   4.579  20.454  0.00  0.00    +0.000 C 
ATOM      3  O   UNL     1       0.714   4.521  20.357  0.00  0.00    +0.000 OA
ATOM      4  H   UNL     1       3.725   5.587  20.262  0.00  0.00    +0.000 HD
ENDROOT
BRANCH   1   9
ATOM      5  C   UNL     1       0.686  10.806  18.585  0.00  0.00    +0.000 C 
ATOM      6  C   UNL     1       1.232   9.482  19.031  0.00  0.00    +0.000 A 
ATOM      7  C   UNL     1       1.060   9.057  20.348  0.00  0.00    +0.000 A 
ATOM      8  C   UNL     1       1.558   7.821  20.766  0.00  0.00    +0.000 A 
ATOM      9  C   UNL     1       2.233   6.980  19.879  0.00  0.00    +0.000 A 
ATOM     10  C   UNL     1       2.433   7.416  18.565  0.00  0.00    +0.000 A 
ATOM     11  C   UNL     1       1.927   8.655  18.141  0.00  0.00    +0.000 A 
ENDBRANCH   1   9
BRANCH   2  12
ATOM     12  C   UNL     1       2.724   3.331  20.817  0.00  0.00    +0.000 C 
BRANCH  12  13
ATOM     13  C   UNL     1       2.574   2.250  19.739  0.00  0.00    +0.000 C 
BRANCH  13  14
ATOM     14  C   UNL     1       3.828   2.126  18.870  0.00  0.00    +0.000 C 
BRANCH  14  15
ATOM     15  N   UNL     1       3.823   3.063  17.762  0.00  0.00    +0.000 N 
ATOM     16  C   UNL     1       4.674   4.142  17.745  0.00  0.00    +0.000 C 
ATOM     17  O   UNL     1       5.511   4.352  18.610  0.00  0.00    +0.000 OA
ATOM     18  H   UNL     1       3.159   2.927  17.015  0.00  0.00    +0.000 HD
BRANCH  16  19
ATOM     19  C   UNL     1       4.547   5.116  16.627  0.00  0.00    +0.000 C 
ATOM     20  C   UNL     1       5.430   6.303  16.341  0.00  0.00    +0.000 C 
ATOM     21  C   UNL     1       5.550   5.070  15.493  0.00  0.00    +0.000 C 
ENDBRANCH  16  19
ENDBRANCH  14  15
ENDBRANCH  13  14
ENDBRANCH  12  13
ENDBRANCH   2  12
TORSDOF 6
ENDMDL
