MODEL 1
REMARK VINA RESULT:      -7.0      0.000      0.000
REMARK  Name = 
REMARK  8 active torsions:
REMARK  status: ('A' for Active; 'I' for Inactive)
REMARK    1  A    between atoms: C_1  and  C_2
REMARK    2  A    between atoms: C_2  and  C_3
REMARK    3  A    between atoms: C_3  and  C_4
REMARK    4  A    between atoms: C_4  and  C_5
REMARK    5  A    between atoms: C_5  and  C_6
REMARK    6  A    between atoms: C_6  and  O_7
REMARK    7  A    between atoms: C_6  and  C_8
REMARK    8  A    between atoms: C_9  and  C_10
REMARK                            x       y       z     vdW  Elec       q    Type
REMARK                         _______ _______ _______ _____ _____    ______ ____
ROOT
ATOM      1  C   UNL     1       5.707   4.012  16.484  0.00  0.00    +0.000 C 
ATOM      2  C   UNL     1       4.850   4.785  17.164  0.00  0.00    +0.000 C 
ENDROOT
BRANCH   2   3
ATOM      3  C   UNL     1       3.646   4.255  17.812  0.00  0.00    +0.000 A 
ATOM      4  C   UNL     1       3.110   3.006  17.453  0.00  0.00    +0.000 A 
ATOM      5  C   UNL     1       1.965   2.513  18.077  0.00  0.00    +0.000 A 
ATOM      6  C   UNL     1       1.360   3.264  19.079  0.00  0.00    +0.000 A 
ATOM      7  F   UNL     1       0.262   2.791  19.678  0.00  0.00    +0.000 F 
ATOM      8  C   UNL     1       1.896   4.490  19.457  0.00  0.00    +0.000 A 
ATOM      9  F   UNL     1       1.310   5.207  20.428  0.00  0.00    +0.000 F 
ATOM     10  C   UNL     1       3.036   4.988  18.838  0.00  0.00    +0.000 A 
ENDBRANCH   2   3
BRANCH   1  11
ATOM     11  C   UNL     1       6.959   4.524  15.844  0.00  0.00    +0.000 C 
BRANCH  11  12
ATOM     12  O   UNL     1       7.416   5.640  16.595  0.00  0.00    +0.000 OA
ATOM     13  H   UNL     1       7.061   6.443  16.182  0.00  0.00    +0.000 HD
ENDBRANCH  11  12
BRANCH  11  14
ATOM     14  C   UNL     1       6.708   4.933  14.390  0.00  0.00    +0.000 C 
BRANCH  14  15
ATOM     15  C   UNL     1       5.765   3.960  13.683  0.00  0.00    +0.000 C 
BRANCH  15  16
ATOM     16  C   UNL     1       6.363   3.484  12.361  0.00  0.00    +0.000 C 
BRANCH  16  18
ATOM     17  C   UNL     1       4.119   3.192  11.267  0.00  0.00    +0.000 C 
ATOM     18  C   UNL     1       5.421   2.512  11.654  0.00  0.00    +0.000 C 
ENDBRANCH  16  18
ENDBRANCH  15  16
ENDBRANCH  14  15
ENDBRANCH  11  14
ENDBRANCH   1  11
TORSDOF 7
ENDMDL
MODEL 2
REMARK VINA RESULT:      -6.8      1.189      1.471
REMARK  Name = 
REMARK  8 active torsions:
REMARK  status: ('A' for Active; 'I' for Inactive)
REMARK    1  A    between atoms: C_1  and  C_2
REMARK    2  A    between atoms: C_2  and  C_3
REMARK    3  A    between atoms: C_3  and  C_4
REMARK    4  A    between atoms: C_4  and  C_5
REMARK    5  A    between atoms: C_5  and  C_6
REMARK    6  A    between atoms: C_6  and  O_7
REMARK    7  A    between atoms: C_6  and  C_8
REMARK    8  A    between atoms: C_9  and  C_10
REMARK                            x       y       z     vdW  Elec       q    Type
REMARK                         _______ _______ _______ _____ _____    ______ ____
ROOT
ATOM      1  C   UNL     1       5.753   4.596  16.281  0.00  0.00    +0.000 C 
ATOM      2  C   UNL     1       5.579   4.234  17.558  0.00  0.00    +0.000 C 
ENDROOT
BRANCH   2   3
ATOM      3  C   UNL     1       4.259   3.939  18.126  0.00  0.00    +0.000 A 
ATOM      4  C   UNL     1       4.124   3.285  19.363  0.00  0.00    +0.000 A 
ATOM      5  C   UNL     1       2.864   3.010  19.893  0.00  0.00    +0.000 A 
ATOM      6  C   UNL     1       1.731   3.408  19.192  0.00  0.00    +0.000 A 
ATOM      7  F   UNL     1       0.522   3.145  19.701  0.00  0.00    +0.000 F 
ATOM      8  C   UNL     1       1.855   4.076  17.979  0.00  0.00    +0.000 A 
ATOM      9  F   UNL     1       0.757   4.462  17.311  0.00  0.00    +0.000 F 
ATOM     10  C   UNL     1       3.107   4.352  17.445  0.00  0.00    +0.000 A 
ENDBRANCH   2   3
BRANCH   1  11
ATOM     11  C   UNL     1       7.092   4.869  15.670  0.00  0.00    +0.000 C 
BRANCH  11  12
ATOM     12  O   UNL     1       7.549   6.127  16.147  0.00  0.00    +0.000 OA
ATOM     13  H   UNL     1       6.783   6.611  16.493  0.00  0.00    +0.000 HD
ENDBRANCH  11  12
BRANCH  11  14
ATOM     14  C   UNL     1       7.008   4.884  14.141  0.00  0.00    +0.000 C 
BRANCH  14  15
ATOM     15  C   UNL     1       6.094   3.778  13.613  0.00  0.00    +0.000 C 
BRANCH  15  16
ATOM     16  C   UNL     1       6.397   3.473  12.148  0.00  0.00    +0.000 C 
BRANCH  16  18
ATOM     17  C   UNL     1       6.363   1.184  11.109  0.00  0.00    +0.000 C 
ATOM     18  C   UNL     1       5.520   2.334  11.633  0.00  0.00    +0.000 C 
ENDBRANCH  16  18
ENDBRANCH  15  16
ENDBRANCH  14  15
ENDBRANCH  11  14
ENDBRANCH   1  11
TORSDOF 7
ENDMDL
MODEL 3
REMARK VINA RESULT:      -6.8      4.302      6.731
REMARK  Name = 
REMARK  8 active torsions:
REMARK  status: ('A' for Active; 'I' for Inactive)
REMARK    1  A    between atoms: C_1  and  C_2
REMARK    2  A    between atoms: C_2  and  C_3
REMARK    3  A    between atoms: C_3  and  C_4
REMARK    4  A    between atoms: C_4  and  C_5
REMARK    5  A    between atoms: C_5  and  C_6
REMARK    6  A    between atoms: C_6  and  O_7
REMARK    7  A    between atoms: C_6  and  C_8
REMARK    8  A    between atoms: C_9  and  C_10
REMARK                            x       y       z     vdW  Elec       q    Type
REMARK                         _______ _______ _______ _____ _____    ______ ____
ROOT
ATOM      1  C   UNL     1       4.298   3.013  18.809  0.00  0.00    +0.000 C 
ATOM      2  C   UNL     1       4.344   3.846  17.762  0.00  0.00    +0.000 C 
ENDROOT
BRANCH   2   3
ATOM      3  C   UNL     1       5.311   4.944  17.663  0.00  0.00    +0.000 A 
ATOM      4  C   UNL     1       5.127   6.004  16.759  0.00  0.00    +0.000 A 
ATOM      5  C   UNL     1       6.053   7.042  16.675  0.00  0.00    +0.000 A 
ATOM      6  C   UNL     1       7.163   7.032  17.512  0.00  0.00    +0.000 A 
ATOM      7  F   UNL     1       8.051   8.028  17.432  0.00  0.00    +0.000 F 
ATOM      8  C   UNL     1       7.343   5.999  18.426  0.00  0.00    +0.000 A 
ATOM      9  F   UNL     1       8.414   5.998  19.234  0.00  0.00    +0.000 F 
ATOM     10  C   UNL     1       6.424   4.961  18.513  0.00  0.00    +0.000 A 
ENDBRANCH   2   3
BRANCH   1  11
ATOM     11  C   UNL     1       3.344   1.865  18.916  0.00  0.00    +0.000 C 
BRANCH  11  12
ATOM     12  O   UNL     1       3.948   0.729  18.313  0.00  0.00    +0.000 OA
ATOM     13  H   UNL     1       3.575   0.630  17.423  0.00  0.00    +0.000 HD
ENDBRANCH  11  12
BRANCH  11  14
ATOM     14  C   UNL     1       2.015   2.185  18.225  0.00  0.00    +0.000 C 
BRANCH  14  15
ATOM     15  C   UNL     1       1.090   3.001  19.128  0.00  0.00    +0.000 C 
BRANCH  15  16
ATOM     16  C   UNL     1       1.322   2.658  20.598  0.00  0.00    +0.000 C 
BRANCH  16  18
ATOM     17  C   UNL     1       1.725   5.139  20.539  0.00  0.00    +0.000 C 
ATOM     18  C   UNL     1       1.845   3.870  21.366  0.00  0.00    +0.000 C 
ENDBRANCH  16  18
ENDBRANCH  15  16
ENDBRANCH  14  15
ENDBRANCH  11  14
ENDBRANCH   1  11
TORSDOF 7
ENDMDL
MODEL 4
REMARK VINA RESULT:      -6.8      0.800      1.623
REMARK  Name = 
REMARK  8 active torsions:
REMARK  status: ('A' for Active; 'I' for Inactive)
REMARK    1  A    between atoms: C_1  and  C_2
REMARK    2  A    between atoms: C_2  and  C_3
REMARK    3  A    between atoms: C_3  and  C_4
REMARK    4  A    between atoms: C_4  and  C_5
REMARK    5  A    between atoms: C_5  and  C_6
REMARK    6  A    between atoms: C_6  and  O_7
REMARK    7  A    between atoms: C_6  and  C_8
REMARK    8  A    between atoms: C_9  and  C_10
REMARK                            x       y       z     vdW  Elec       q    Type
REMARK                         _______ _______ _______ _____ _____    ______ ____
ROOT
ATOM      1  C   UNL     1       5.729   4.393  16.855  0.00  0.00    +0.000 C 
ATOM      2  C   UNL     1       4.409   4.499  16.653  0.00  0.00    +0.000 C 
ENDROOT
BRANCH   2   3
ATOM      3  C   UNL     1       3.427   4.360  17.733  0.00  0.00    +0.000 A 
ATOM      4  C   UNL     1       3.484   5.166  18.884  0.00  0.00    +0.000 A 
ATOM      5  C   UNL     1       2.544   5.024  19.903  0.00  0.00    +0.000 A 
ATOM      6  C   UNL     1       1.529   4.083  19.766  0.00  0.00    +0.000 A 
ATOM      7  F   UNL     1       0.628   3.948  20.744  0.00  0.00    +0.000 F 
ATOM      8  C   UNL     1       1.451   3.297  18.622  0.00  0.00    +0.000 A 
ATOM      9  F   UNL     1       0.467   2.395  18.494  0.00  0.00    +0.000 F 
ATOM     10  C   UNL     1       2.386   3.433  17.603  0.00  0.00    +0.000 A 
ENDBRANCH   2   3
BRANCH   1  11
ATOM     11  C   UNL     1       6.751   4.565  15.776  0.00  0.00    +0.000 C 
BRANCH  11  12
ATOM     12  O   UNL     1       7.358   5.839  15.940  0.00  0.00    +0.000 OA
ATOM     13  H   UNL     1       7.208   6.126  16.854  0.00  0.00    +0.000 HD
ENDBRANCH  11  12
BRANCH  11  14
ATOM     14  C   UNL     1       6.112   4.460  14.388  0.00  0.00    +0.000 C 
BRANCH  14  15
ATOM     15  C   UNL     1       7.165   4.325  13.289  0.00  0.00    +0.000 C 
BRANCH  15  16
ATOM     16  C   UNL     1       6.533   3.849  11.983  0.00  0.00    +0.000 C 
BRANCH  16  18
ATOM     17  C   UNL     1       4.214   3.211  11.251  0.00  0.00    +0.000 C 
ATOM     18  C   UNL     1       5.324   2.955  12.255  0.00  0.00    +0.000 C 
ENDBRANCH  16  18
ENDBRANCH  15  16
ENDBRANCH  14  15
ENDBRANCH  11  14
ENDBRANCH   1  11
TORSDOF 7
ENDMDL
MODEL 5
REMARK VINA RESULT:      -6.7      1.273      1.717
REMARK  Name = 
REMARK  8 active torsions:
REMARK  status: ('A' for Active; 'I' for Inactive)
REMARK    1  A    between atoms: C_1  and  C_2
REMARK    2  A    between atoms: C_2  and  C_3
REMARK    3  A    between atoms: C_3  and  C_4
REMARK    4  A    between atoms: C_4  and  C_5
REMARK    5  A    between atoms: C_5  and  C_6
REMARK    6  A    between atoms: C_6  and  O_7
REMARK    7  A    between atoms: C_6  and  C_8
REMARK    8  A    between atoms: C_9  and  C_10
REMARK                            x       y       z     vdW  Elec       q    Type
REMARK                         _______ _______ _______ _____ _____    ______ ____
ROOT
ATOM      1  C   UNL     1       5.465   4.315  15.010  0.00  0.00    +0.000 C 
ATOM      2  C   UNL     1       5.484   4.307  16.349  0.00  0.00    +0.000 C 
ENDROOT
BRANCH   2   3
ATOM      3  C   UNL     1       4.262   4.321  17.160  0.00  0.00    +0.000 A 
ATOM      4  C   UNL     1       3.350   3.251  17.129  0.00  0.00    +0.000 A 
ATOM      5  C   UNL     1       2.192   3.276  17.905  0.00  0.00    +0.000 A 
ATOM      6  C   UNL     1       1.951   4.368  18.731  0.00  0.00    +0.000 A 
ATOM      7  F   UNL     1       0.841   4.392  19.476  0.00  0.00    +0.000 F 
ATOM      8  C   UNL     1       2.859   5.420  18.786  0.00  0.00    +0.000 A 
ATOM      9  F   UNL     1       2.622   6.469  19.589  0.00  0.00    +0.000 F 
ATOM     10  C   UNL     1       4.014   5.402  18.014  0.00  0.00    +0.000 A 
ENDBRANCH   2   3
BRANCH   1  11
ATOM     11  C   UNL     1       6.697   4.267  14.162  0.00  0.00    +0.000 C 
BRANCH  11  12
ATOM     12  O   UNL     1       7.176   5.595  13.999  0.00  0.00    +0.000 OA
ATOM     13  H   UNL     1       6.466   6.121  13.599  0.00  0.00    +0.000 HD
ENDBRANCH  11  12
BRANCH  11  14
ATOM     14  C   UNL     1       6.402   3.641  12.795  0.00  0.00    +0.000 C 
BRANCH  14  15
ATOM     15  C   UNL     1       4.913   3.702  12.455  0.00  0.00    +0.000 C 
BRANCH  15  16
ATOM     16  C   UNL     1       4.615   2.930  11.172  0.00  0.00    +0.000 C 
BRANCH  16  18
ATOM     17  C   UNL     1       2.993   4.094   9.645  0.00  0.00    +0.000 C 
ATOM     18  C   UNL     1       3.150   3.084  10.769  0.00  0.00    +0.000 C 
ENDBRANCH  16  18
ENDBRANCH  15  16
ENDBRANCH  14  15
ENDBRANCH  11  14
ENDBRANCH   1  11
TORSDOF 7
ENDMDL
MODEL 6
REMARK VINA RESULT:      -6.7      1.240      1.899
REMARK  Name = 
REMARK  8 active torsions:
REMARK  status: ('A' for Active; 'I' for Inactive)
REMARK    1  A    between atoms: C_1  and  C_2
REMARK    2  A    between atoms: C_2  and  C_3
REMARK    3  A    between atoms: C_3  and  C_4
REMARK    4  A    between atoms: C_4  and  C_5
REMARK    5  A    between atoms: C_5  and  C_6
REMARK    6  A    between atoms: C_6  and  O_7
REMARK    7  A    between atoms: C_6  and  C_8
REMARK    8  A    between atoms: C_9  and  C_10
REMARK                            x       y       z     vdW  Elec       q    Type
REMARK                         _______ _______ _______ _____ _____    ______ ____
ROOT
ATOM      1  C   UNL     1       5.792   4.092  16.530  0.00  0.00    +0.000 C 
ATOM      2  C   UNL     1       4.580   3.523  16.488  0.00  0.00    +0.000 C 
ENDROOT
BRANCH   2   3
ATOM      3  C   UNL     1       3.776   3.278  17.690  0.00  0.00    +0.000 A 
ATOM      4  C   UNL     1       4.283   3.534  18.976  0.00  0.00    +0.000 A 
ATOM      5  C   UNL     1       3.508   3.298  20.110  0.00  0.00    +0.000 A 
ATOM      6  C   UNL     1       2.211   2.820  19.959  0.00  0.00    +0.000 A 
ATOM      7  F   UNL     1       1.467   2.594  21.048  0.00  0.00    +0.000 F 
ATOM      8  C   UNL     1       1.692   2.586  18.691  0.00  0.00    +0.000 A 
ATOM      9  F   UNL     1       0.438   2.130  18.552  0.00  0.00    +0.000 F 
ATOM     10  C   UNL     1       2.460   2.818  17.556  0.00  0.00    +0.000 A 
ENDBRANCH   2   3
BRANCH   1  11
ATOM     11  C   UNL     1       6.616   4.383  15.316  0.00  0.00    +0.000 C 
BRANCH  11  12
ATOM     12  O   UNL     1       7.320   5.597  15.539  0.00  0.00    +0.000 OA
ATOM     13  H   UNL     1       6.923   6.036  16.307  0.00  0.00    +0.000 HD
ENDBRANCH  11  12
BRANCH  11  14
ATOM     14  C   UNL     1       5.737   4.505  14.068  0.00  0.00    +0.000 C 
BRANCH  14  15
ATOM     15  C   UNL     1       6.345   3.771  12.873  0.00  0.00    +0.000 C 
BRANCH  15  16
ATOM     16  C   UNL     1       5.258   3.121  12.021  0.00  0.00    +0.000 C 
BRANCH  16  18
ATOM     17  C   UNL     1       7.222   1.864  11.083  0.00  0.00    +0.000 C 
ATOM     18  C   UNL     1       5.744   1.800  11.428  0.00  0.00    +0.000 C 
ENDBRANCH  16  18
ENDBRANCH  15  16
ENDBRANCH  14  15
ENDBRANCH  11  14
ENDBRANCH   1  11
TORSDOF 7
ENDMDL
MODEL 7
REMARK VINA RESULT:      -6.7      1.237      1.959
REMARK  Name = 
REMARK  8 active torsions:
REMARK  status: ('A' for Active; 'I' for Inactive)
REMARK    1  A    between atoms: C_1  and  C_2
REMARK    2  A    between atoms: C_2  and  C_3
REMARK    3  A    between atoms: C_3  and  C_4
REMARK    4  A    between atoms: C_4  and  C_5
REMARK    5  A    between atoms: C_5  and  C_6
REMARK    6  A    between atoms: C_6  and  O_7
REMARK    7  A    between atoms: C_6  and  C_8
REMARK    8  A    between atoms: C_9  and  C_10
REMARK                            x       y       z     vdW  Elec       q    Type
REMARK                         _______ _______ _______ _____ _____    ______ ____
ROOT
ATOM      1  C   UNL     1       5.222   5.192  17.049  0.00  0.00    +0.000 C 
ATOM      2  C   UNL     1       3.988   5.635  17.320  0.00  0.00    +0.000 C 
ENDROOT
BRANCH   2   3
ATOM      3  C   UNL     1       3.121   5.005  18.321  0.00  0.00    +0.000 A 
ATOM      4  C   UNL     1       2.909   5.592  19.581  0.00  0.00    +0.000 A 
ATOM      5  C   UNL     1       2.083   4.984  20.524  0.00  0.00    +0.000 A 
ATOM      6  C   UNL     1       1.447   3.790  20.201  0.00  0.00    +0.000 A 
ATOM      7  F   UNL     1       0.654   3.207  21.106  0.00  0.00    +0.000 F 
ATOM      8  C   UNL     1       1.632   3.213  18.950  0.00  0.00    +0.000 A 
ATOM      9  F   UNL     1       1.012   2.064  18.643  0.00  0.00    +0.000 F 
ATOM     10  C   UNL     1       2.456   3.814  18.005  0.00  0.00    +0.000 A 
ENDBRANCH   2   3
BRANCH   1  11
ATOM     11  C   UNL     1       6.137   5.839  16.057  0.00  0.00    +0.000 C 
BRANCH  11  12
ATOM     12  O   UNL     1       5.386   6.791  15.317  0.00  0.00    +0.000 OA
ATOM     13  H   UNL     1       4.483   6.451  15.222  0.00  0.00    +0.000 HD
ENDBRANCH  11  12
BRANCH  11  14
ATOM     14  C   UNL     1       6.749   4.801  15.112  0.00  0.00    +0.000 C 
BRANCH  14  15
ATOM     15  C   UNL     1       5.711   4.237  14.142  0.00  0.00    +0.000 C 
BRANCH  15  16
ATOM     16  C   UNL     1       6.377   3.736  12.862  0.00  0.00    +0.000 C 
BRANCH  16  18
ATOM     17  C   UNL     1       5.785   1.773  11.407  0.00  0.00    +0.000 C 
ATOM     18  C   UNL     1       5.345   3.138  11.907  0.00  0.00    +0.000 C 
ENDBRANCH  16  18
ENDBRANCH  15  16
ENDBRANCH  14  15
ENDBRANCH  11  14
ENDBRANCH   1  11
TORSDOF 7
ENDMDL
MODEL 8
REMARK VINA RESULT:      -6.7      3.312      4.980
REMARK  Name = 
REMARK  8 active torsions:
REMARK  status: ('A' for Active; 'I' for Inactive)
REMARK    1  A    between atoms: C_1  and  C_2
REMARK    2  A    between atoms: C_2  and  C_3
REMARK    3  A    between atoms: C_3  and  C_4
REMARK    4  A    between atoms: C_4  and  C_5
REMARK    5  A    between atoms: C_5  and  C_6
REMARK    6  A    between atoms: C_6  and  O_7
REMARK    7  A    between atoms: C_6  and  C_8
REMARK    8  A    between atoms: C_9  and  C_10
REMARK                            x       y       z     vdW  Elec       q    Type
REMARK                         _______ _______ _______ _____ _____    ______ ____
ROOT
ATOM      1  C   UNL     1       6.157   4.728  17.936  0.00  0.00    +0.000 C 
ATOM      2  C   UNL     1       5.164   4.911  18.816  0.00  0.00    +0.000 C 
ENDROOT
BRANCH   2   3
ATOM      3  C   UNL     1       3.890   4.191  18.735  0.00  0.00    +0.000 A 
ATOM      4  C   UNL     1       3.631   3.272  17.703  0.00  0.00    +0.000 A 
ATOM      5  C   UNL     1       2.415   2.593  17.638  0.00  0.00    +0.000 A 
ATOM      6  C   UNL     1       1.457   2.819  18.620  0.00  0.00    +0.000 A 
ATOM      7  F   UNL     1       0.291   2.167  18.558  0.00  0.00    +0.000 F 
ATOM      8  C   UNL     1       1.713   3.708  19.658  0.00  0.00    +0.000 A 
ATOM      9  F   UNL     1       0.786   3.917  20.605  0.00  0.00    +0.000 F 
ATOM     10  C   UNL     1       2.922   4.389  19.728  0.00  0.00    +0.000 A 
ENDBRANCH   2   3
BRANCH   1  11
ATOM     11  C   UNL     1       7.479   5.425  18.018  0.00  0.00    +0.000 C 
BRANCH  11  12
ATOM     12  O   UNL     1       7.972   5.286  19.343  0.00  0.00    +0.000 OA
ATOM     13  H   UNL     1       8.334   4.390  19.434  0.00  0.00    +0.000 HD
ENDBRANCH  11  12
BRANCH  11  14
ATOM     14  C   UNL     1       7.344   6.907  17.658  0.00  0.00    +0.000 C 
BRANCH  14  15
ATOM     15  C   UNL     1       8.314   7.775  18.461  0.00  0.00    +0.000 C 
BRANCH  15  16
ATOM     16  C   UNL     1       8.263   9.227  17.991  0.00  0.00    +0.000 C 
BRANCH  16  18
ATOM     17  C   UNL     1       9.815  11.201  18.105  0.00  0.00    +0.000 C 
ATOM     18  C   UNL     1       9.096  10.126  18.902  0.00  0.00    +0.000 C 
ENDBRANCH  16  18
ENDBRANCH  15  16
ENDBRANCH  14  15
ENDBRANCH  11  14
ENDBRANCH   1  11
TORSDOF 7
ENDMDL
MODEL 9
REMARK VINA RESULT:      -6.7      4.218      6.847
REMARK  Name = 
REMARK  8 active torsions:
REMARK  status: ('A' for Active; 'I' for Inactive)
REMARK    1  A    between atoms: C_1  and  C_2
REMARK    2  A    between atoms: C_2  and  C_3
REMARK    3  A    between atoms: C_3  and  C_4
REMARK    4  A    between atoms: C_4  and  C_5
REMARK    5  A    between atoms: C_5  and  C_6
REMARK    6  A    between atoms: C_6  and  O_7
REMARK    7  A    between atoms: C_6  and  C_8
REMARK    8  A    between atoms: C_9  and  C_10
REMARK                            x       y       z     vdW  Elec       q    Type
REMARK                         _______ _______ _______ _____ _____    ______ ____
ROOT
ATOM      1  C   UNL     1       3.938   3.582  18.119  0.00  0.00    +0.000 C 
ATOM      2  C   UNL     1       4.714   4.171  17.200  0.00  0.00    +0.000 C 
ENDROOT
BRANCH   2   3
ATOM      3  C   UNL     1       5.754   5.145  17.547  0.00  0.00    +0.000 A 
ATOM      4  C   UNL     1       5.787   6.423  16.961  0.00  0.00    +0.000 A 
ATOM      5  C   UNL     1       6.780   7.340  17.300  0.00  0.00    +0.000 A 
ATOM      6  C   UNL     1       7.738   6.987  18.243  0.00  0.00    +0.000 A 
ATOM      7  F   UNL     1       8.691   7.867  18.569  0.00  0.00    +0.000 F 
ATOM      8  C   UNL     1       7.701   5.734  18.846  0.00  0.00    +0.000 A 
ATOM      9  F   UNL     1       8.625   5.402  19.759  0.00  0.00    +0.000 F 
ATOM     10  C   UNL     1       6.714   4.815  18.512  0.00  0.00    +0.000 A 
ENDBRANCH   2   3
BRANCH   1  11
ATOM     11  C   UNL     1       2.894   2.560  17.792  0.00  0.00    +0.000 C 
BRANCH  11  12
ATOM     12  O   UNL     1       2.009   3.122  16.833  0.00  0.00    +0.000 OA
ATOM     13  H   UNL     1       2.222   4.064  16.746  0.00  0.00    +0.000 HD
ENDBRANCH  11  12
BRANCH  11  14
ATOM     14  C   UNL     1       2.118   2.145  19.045  0.00  0.00    +0.000 C 
BRANCH  14  15
ATOM     15  C   UNL     1       2.886   2.481  20.324  0.00  0.00    +0.000 C 
BRANCH  15  16
ATOM     16  C   UNL     1       1.991   3.216  21.320  0.00  0.00    +0.000 C 
BRANCH  16  18
ATOM     17  C   UNL     1       1.781   5.581  20.496  0.00  0.00    +0.000 C 
ATOM     18  C   UNL     1       1.098   4.229  20.607  0.00  0.00    +0.000 C 
ENDBRANCH  16  18
ENDBRANCH  15  16
ENDBRANCH  14  15
ENDBRANCH  11  14
ENDBRANCH   1  11
TORSDOF 7
ENDMDL
