MODEL 1
REMARK VINA RESULT:      -6.7      0.000      0.000
REMARK  Name = 
REMARK  8 active torsions:
REMARK  status: ('A' for Active; 'I' for Inactive)
REMARK    1  A    between atoms: C_1  and  C_2
REMARK    2  A    between atoms: C_3  and  O_4
REMARK    3  A    between atoms: C_5  and  C_6
REMARK    4  A    between atoms: C_6  and  C_7
REMARK    5  A    between atoms: C_7  and  C_8
REMARK    6  A    between atoms: C_8  and  C_9
REMARK    7  A    between atoms: C_9  and  C_10
REMARK    8  A    between atoms: C_9  and  C_11
REMARK                            x       y       z     vdW  Elec       q    Type
REMARK                         _______ _______ _______ _____ _____    ______ ____
ROOT
ATOM      1  C   UNL     1       7.954   5.656  19.270  0.00  0.00    +0.000 C 
ATOM      2  C   UNL     1       6.810   5.653  18.299  0.00  0.00    +0.000 A 
ATOM      3  C   UNL     1       5.776   4.792  18.280  0.00  0.00    +0.000 A 
ATOM      4  C   UNL     1       4.732   4.889  17.282  0.00  0.00    +0.000 A 
ATOM      5  C   UNL     1       4.830   5.869  16.377  0.00  0.00    +0.000 A 
ATOM      6  O   UNL     1       5.869   6.798  16.347  0.00  0.00    +0.000 OA
ATOM      7  C   UNL     1       6.874   6.732  17.274  0.00  0.00    +0.000 A 
ATOM      8  O   UNL     1       7.803   7.538  17.263  0.00  0.00    +0.000 OA
ENDROOT
BRANCH   3   9
ATOM      9  O   UNL     1       5.597   3.764  19.175  0.00  0.00    +0.000 OA
ATOM     10  H   UNL     1       4.704   3.398  19.097  0.00  0.00    +0.000 HD
ENDBRANCH   3   9
BRANCH   4  11
ATOM     11  C   UNL     1       3.582   3.910  17.272  0.00  0.00    +0.000 C 
BRANCH  11  12
ATOM     12  C   UNL     1       2.361   4.485  17.995  0.00  0.00    +0.000 C 
BRANCH  12  13
ATOM     13  C   UNL     1       1.467   3.391  18.587  0.00  0.00    +0.000 C 
BRANCH  13  14
ATOM     14  C   UNL     1       1.046   3.688  20.041  0.00  0.00    +0.000 C 
ATOM     15  C   UNL     1       1.549   2.625  21.022  0.00  0.00    +0.000 C 
ATOM     16  C   UNL     1       1.555   5.065  20.471  0.00  0.00    +0.000 C 
ENDBRANCH  13  14
ENDBRANCH  12  13
ENDBRANCH  11  12
ENDBRANCH   4  11
TORSDOF 5
ENDMDL
MODEL 2
REMARK VINA RESULT:      -6.6      0.772      1.174
REMARK  Name = 
REMARK  8 active torsions:
REMARK  status: ('A' for Active; 'I' for Inactive)
REMARK    1  A    between atoms: C_1  and  C_2
REMARK    2  A    between atoms: C_3  and  O_4
REMARK    3  A    between atoms: C_5  and  C_6
REMARK    4  A    between atoms: C_6  and  C_7
REMARK    5  A    between atoms: C_7  and  C_8
REMARK    6  A    between atoms: C_8  and  C_9
REMARK    7  A    between atoms: C_9  and  C_10
REMARK    8  A    between atoms: C_9  and  C_11
REMARK                            x       y       z     vdW  Elec       q    Type
REMARK                         _______ _______ _______ _____ _____    ______ ____
ROOT
ATOM      1  C   UNL     1       7.908   5.793  19.110  0.00  0.00    +0.000 C 
ATOM      2  C   UNL     1       6.841   5.426  18.122  0.00  0.00    +0.000 A 
ATOM      3  C   UNL     1       5.903   4.472  18.271  0.00  0.00    +0.000 A 
ATOM      4  C   UNL     1       4.926   4.207  17.236  0.00  0.00    +0.000 A 
ATOM      5  C   UNL     1       4.988   4.945  16.123  0.00  0.00    +0.000 A 
ATOM      6  O   UNL     1       5.927   5.953  15.909  0.00  0.00    +0.000 OA
ATOM      7  C   UNL     1       6.867   6.227  16.866  0.00  0.00    +0.000 A 
ATOM      8  O   UNL     1       7.708   7.108  16.697  0.00  0.00    +0.000 OA
ENDROOT
BRANCH   3   9
ATOM      9  O   UNL     1       5.767   3.675  19.383  0.00  0.00    +0.000 OA
ATOM     10  H   UNL     1       5.378   4.176  20.114  0.00  0.00    +0.000 HD
ENDBRANCH   3   9
BRANCH   4  11
ATOM     11  C   UNL     1       3.885   3.127  17.418  0.00  0.00    +0.000 C 
BRANCH  11  12
ATOM     12  C   UNL     1       2.500   3.620  16.989  0.00  0.00    +0.000 C 
BRANCH  12  13
ATOM     13  C   UNL     1       1.839   4.500  18.056  0.00  0.00    +0.000 C 
BRANCH  13  14
ATOM     14  C   UNL     1       2.065   3.971  19.487  0.00  0.00    +0.000 C 
ATOM     15  C   UNL     1       2.307   5.100  20.493  0.00  0.00    +0.000 C 
ATOM     16  C   UNL     1       0.868   3.132  19.937  0.00  0.00    +0.000 C 
ENDBRANCH  13  14
ENDBRANCH  12  13
ENDBRANCH  11  12
ENDBRANCH   4  11
TORSDOF 5
ENDMDL
MODEL 3
REMARK VINA RESULT:      -6.4      1.575      2.391
REMARK  Name = 
REMARK  8 active torsions:
REMARK  status: ('A' for Active; 'I' for Inactive)
REMARK    1  A    between atoms: C_1  and  C_2
REMARK    2  A    between atoms: C_3  and  O_4
REMARK    3  A    between atoms: C_5  and  C_6
REMARK    4  A    between atoms: C_6  and  C_7
REMARK    5  A    between atoms: C_7  and  C_8
REMARK    6  A    between atoms: C_8  and  C_9
REMARK    7  A    between atoms: C_9  and  C_10
REMARK    8  A    between atoms: C_9  and  C_11
REMARK                            x       y       z     vdW  Elec       q    Type
REMARK                         _______ _______ _______ _____ _____    ______ ____
ROOT
ATOM      1  C   UNL     1       7.219   5.183  16.020  0.00  0.00    +0.000 C 
ATOM      2  C   UNL     1       6.253   4.619  17.019  0.00  0.00    +0.000 A 
ATOM      3  C   UNL     1       5.027   4.128  16.760  0.00  0.00    +0.000 A 
ATOM      4  C   UNL     1       4.182   3.616  17.818  0.00  0.00    +0.000 A 
ATOM      5  C   UNL     1       4.663   3.647  19.065  0.00  0.00    +0.000 A 
ATOM      6  O   UNL     1       5.926   4.135  19.399  0.00  0.00    +0.000 OA
ATOM      7  C   UNL     1       6.749   4.630  18.424  0.00  0.00    +0.000 A 
ATOM      8  O   UNL     1       7.864   5.069  18.696  0.00  0.00    +0.000 OA
ENDROOT
BRANCH   3   9
ATOM      9  O   UNL     1       4.461   4.053  15.510  0.00  0.00    +0.000 OA
ATOM     10  H   UNL     1       4.847   3.323  15.006  0.00  0.00    +0.000 HD
ENDBRANCH   3   9
BRANCH   4  11
ATOM     11  C   UNL     1       2.805   3.074  17.510  0.00  0.00    +0.000 C 
BRANCH  11  12
ATOM     12  C   UNL     1       2.247   2.282  18.697  0.00  0.00    +0.000 C 
BRANCH  12  13
ATOM     13  C   UNL     1       0.922   2.857  19.208  0.00  0.00    +0.000 C 
BRANCH  13  14
ATOM     14  C   UNL     1       1.046   3.481  20.613  0.00  0.00    +0.000 C 
ATOM     15  C   UNL     1       2.010   2.702  21.513  0.00  0.00    +0.000 C 
ATOM     16  C   UNL     1       1.507   4.936  20.509  0.00  0.00    +0.000 C 
ENDBRANCH  13  14
ENDBRANCH  12  13
ENDBRANCH  11  12
ENDBRANCH   4  11
TORSDOF 5
ENDMDL
MODEL 4
REMARK VINA RESULT:      -6.3      1.569      1.800
REMARK  Name = 
REMARK  8 active torsions:
REMARK  status: ('A' for Active; 'I' for Inactive)
REMARK    1  A    between atoms: C_1  and  C_2
REMARK    2  A    between atoms: C_3  and  O_4
REMARK    3  A    between atoms: C_5  and  C_6
REMARK    4  A    between atoms: C_6  and  C_7
REMARK    5  A    between atoms: C_7  and  C_8
REMARK    6  A    between atoms: C_8  and  C_9
REMARK    7  A    between atoms: C_9  and  C_10
REMARK    8  A    between atoms: C_9  and  C_11
REMARK                            x       y       z     vdW  Elec       q    Type
REMARK                         _______ _______ _______ _____ _____    ______ ____
ROOT
ATOM      1  C   UNL     1       7.479   5.663  19.256  0.00  0.00    +0.000 C 
ATOM      2  C   UNL     1       6.385   5.218  18.331  0.00  0.00    +0.000 A 
ATOM      3  C   UNL     1       5.061   5.336  18.539  0.00  0.00    +0.000 A 
ATOM      4  C   UNL     1       4.100   4.859  17.568  0.00  0.00    +0.000 A 
ATOM      5  C   UNL     1       4.575   4.294  16.452  0.00  0.00    +0.000 A 
ATOM      6  O   UNL     1       5.933   4.148  16.172  0.00  0.00    +0.000 OA
ATOM      7  C   UNL     1       6.868   4.586  17.071  0.00  0.00    +0.000 A 
ATOM      8  O   UNL     1       8.071   4.463  16.847  0.00  0.00    +0.000 OA
ENDROOT
BRANCH   3   9
ATOM      9  O   UNL     1       4.491   5.908  19.652  0.00  0.00    +0.000 OA
ATOM     10  H   UNL     1       3.530   5.959  19.552  0.00  0.00    +0.000 HD
ENDBRANCH   3   9
BRANCH   4  11
ATOM     11  C   UNL     1       2.617   4.994  17.821  0.00  0.00    +0.000 C 
BRANCH  11  12
ATOM     12  C   UNL     1       1.986   3.635  18.140  0.00  0.00    +0.000 C 
BRANCH  12  13
ATOM     13  C   UNL     1       1.232   3.643  19.474  0.00  0.00    +0.000 C 
BRANCH  13  14
ATOM     14  C   UNL     1       2.143   3.314  20.675  0.00  0.00    +0.000 C 
ATOM     15  C   UNL     1       1.383   2.621  21.809  0.00  0.00    +0.000 C 
ATOM     16  C   UNL     1       3.312   2.434  20.229  0.00  0.00    +0.000 C 
ENDBRANCH  13  14
ENDBRANCH  12  13
ENDBRANCH  11  12
ENDBRANCH   4  11
TORSDOF 5
ENDMDL
MODEL 5
REMARK VINA RESULT:      -6.3      1.406      1.800
REMARK  Name = 
REMARK  8 active torsions:
REMARK  status: ('A' for Active; 'I' for Inactive)
REMARK    1  A    between atoms: C_1  and  C_2
REMARK    2  A    between atoms: C_3  and  O_4
REMARK    3  A    between atoms: C_5  and  C_6
REMARK    4  A    between atoms: C_6  and  C_7
REMARK    5  A    between atoms: C_7  and  C_8
REMARK    6  A    between atoms: C_8  and  C_9
REMARK    7  A    between atoms: C_9  and  C_10
REMARK    8  A    between atoms: C_9  and  C_11
REMARK                            x       y       z     vdW  Elec       q    Type
REMARK                         _______ _______ _______ _____ _____    ______ ____
ROOT
ATOM      1  C   UNL     1       7.397   6.754  17.754  0.00  0.00    +0.000 C 
ATOM      2  C   UNL     1       6.538   5.645  17.223  0.00  0.00    +0.000 A 
ATOM      3  C   UNL     1       5.554   5.007  17.883  0.00  0.00    +0.000 A 
ATOM      4  C   UNL     1       4.797   3.941  17.261  0.00  0.00    +0.000 A 
ATOM      5  C   UNL     1       5.111   3.611  16.003  0.00  0.00    +0.000 A 
ATOM      6  O   UNL     1       6.112   4.237  15.262  0.00  0.00    +0.000 OA
ATOM      7  C   UNL     1       6.849   5.246  15.822  0.00  0.00    +0.000 A 
ATOM      8  O   UNL     1       7.740   5.809  15.189  0.00  0.00    +0.000 OA
ENDROOT
BRANCH   3   9
ATOM      9  O   UNL     1       5.164   5.287  19.171  0.00  0.00    +0.000 OA
ATOM     10  H   UNL     1       5.537   6.132  19.462  0.00  0.00    +0.000 HD
ENDBRANCH   3   9
BRANCH   4  11
ATOM     11  C   UNL     1       3.700   3.231  18.019  0.00  0.00    +0.000 C 
BRANCH  11  12
ATOM     12  C   UNL     1       2.324   3.803  17.661  0.00  0.00    +0.000 C 
BRANCH  12  13
ATOM     13  C   UNL     1       1.306   3.619  18.791  0.00  0.00    +0.000 C 
BRANCH  13  14
ATOM     14  C   UNL     1       1.915   3.866  20.186  0.00  0.00    +0.000 C 
ATOM     15  C   UNL     1       1.776   5.325  20.632  0.00  0.00    +0.000 C 
ATOM     16  C   UNL     1       1.259   2.950  21.221  0.00  0.00    +0.000 C 
ENDBRANCH  13  14
ENDBRANCH  12  13
ENDBRANCH  11  12
ENDBRANCH   4  11
TORSDOF 5
ENDMDL
MODEL 6
REMARK VINA RESULT:      -6.2      1.704      2.839
REMARK  Name = 
REMARK  8 active torsions:
REMARK  status: ('A' for Active; 'I' for Inactive)
REMARK    1  A    between atoms: C_1  and  C_2
REMARK    2  A    between atoms: C_3  and  O_4
REMARK    3  A    between atoms: C_5  and  C_6
REMARK    4  A    between atoms: C_6  and  C_7
REMARK    5  A    between atoms: C_7  and  C_8
REMARK    6  A    between atoms: C_8  and  C_9
REMARK    7  A    between atoms: C_9  and  C_10
REMARK    8  A    between atoms: C_9  and  C_11
REMARK                            x       y       z     vdW  Elec       q    Type
REMARK                         _______ _______ _______ _____ _____    ______ ____
ROOT
ATOM      1  C   UNL     1       7.437   5.013  15.343  0.00  0.00    +0.000 C 
ATOM      2  C   UNL     1       6.637   5.203  16.597  0.00  0.00    +0.000 A 
ATOM      3  C   UNL     1       5.445   5.820  16.703  0.00  0.00    +0.000 A 
ATOM      4  C   UNL     1       4.773   5.947  17.978  0.00  0.00    +0.000 A 
ATOM      5  C   UNL     1       5.378   5.428  19.052  0.00  0.00    +0.000 A 
ATOM      6  O   UNL     1       6.606   4.769  19.009  0.00  0.00    +0.000 OA
ATOM      7  C   UNL     1       7.270   4.635  17.820  0.00  0.00    +0.000 A 
ATOM      8  O   UNL     1       8.357   4.063  17.760  0.00  0.00    +0.000 OA
ENDROOT
BRANCH   3   9
ATOM      9  O   UNL     1       4.754   6.374  15.651  0.00  0.00    +0.000 OA
ATOM     10  H   UNL     1       3.824   6.498  15.885  0.00  0.00    +0.000 HD
ENDBRANCH   3   9
BRANCH   4  11
ATOM     11  C   UNL     1       3.439   6.649  18.079  0.00  0.00    +0.000 C 
BRANCH  11  12
ATOM     12  C   UNL     1       2.372   5.722  18.669  0.00  0.00    +0.000 C 
BRANCH  12  13
ATOM     13  C   UNL     1       2.112   4.498  17.786  0.00  0.00    +0.000 C 
BRANCH  13  14
ATOM     14  C   UNL     1       2.236   3.169  18.558  0.00  0.00    +0.000 C 
ATOM     15  C   UNL     1       0.877   2.505  18.797  0.00  0.00    +0.000 C 
ATOM     16  C   UNL     1       3.153   2.202  17.806  0.00  0.00    +0.000 C 
ENDBRANCH  13  14
ENDBRANCH  12  13
ENDBRANCH  11  12
ENDBRANCH   4  11
TORSDOF 5
ENDMDL
MODEL 7
REMARK VINA RESULT:      -6.2      1.217      2.204
REMARK  Name = 
REMARK  8 active torsions:
REMARK  status: ('A' for Active; 'I' for Inactive)
REMARK    1  A    between atoms: C_1  and  C_2
REMARK    2  A    between atoms: C_3  and  O_4
REMARK    3  A    between atoms: C_5  and  C_6
REMARK    4  A    between atoms: C_6  and  C_7
REMARK    5  A    between atoms: C_7  and  C_8
REMARK    6  A    between atoms: C_8  and  C_9
REMARK    7  A    between atoms: C_9  and  C_10
REMARK    8  A    between atoms: C_9  and  C_11
REMARK                            x       y       z     vdW  Elec       q    Type
REMARK                         _______ _______ _______ _____ _____    ______ ____
ROOT
ATOM      1  C   UNL     1       7.685   7.297  17.618  0.00  0.00    +0.000 C 
ATOM      2  C   UNL     1       6.728   6.172  17.878  0.00  0.00    +0.000 A 
ATOM      3  C   UNL     1       5.687   5.809  17.105  0.00  0.00    +0.000 A 
ATOM      4  C   UNL     1       4.827   4.703  17.470  0.00  0.00    +0.000 A 
ATOM      5  C   UNL     1       5.103   4.052  18.605  0.00  0.00    +0.000 A 
ATOM      6  O   UNL     1       6.169   4.372  19.445  0.00  0.00    +0.000 OA
ATOM      7  C   UNL     1       7.000   5.414  19.131  0.00  0.00    +0.000 A 
ATOM      8  O   UNL     1       7.942   5.717  19.860  0.00  0.00    +0.000 OA
ENDROOT
BRANCH   3   9
ATOM      9  O   UNL     1       5.339   6.418  15.923  0.00  0.00    +0.000 OA
ATOM     10  H   UNL     1       5.105   7.345  16.076  0.00  0.00    +0.000 HD
ENDBRANCH   3   9
BRANCH   4  11
ATOM     11  C   UNL     1       3.660   4.314  16.594  0.00  0.00    +0.000 C 
BRANCH  11  12
ATOM     12  C   UNL     1       2.730   3.335  17.319  0.00  0.00    +0.000 C 
BRANCH  12  13
ATOM     13  C   UNL     1       1.528   4.040  17.956  0.00  0.00    +0.000 C 
BRANCH  13  14
ATOM     14  C   UNL     1       1.034   3.336  19.236  0.00  0.00    +0.000 C 
ATOM     15  C   UNL     1       1.815   2.053  19.533  0.00  0.00    +0.000 C 
ATOM     16  C   UNL     1       1.131   4.283  20.434  0.00  0.00    +0.000 C 
ENDBRANCH  13  14
ENDBRANCH  12  13
ENDBRANCH  11  12
ENDBRANCH   4  11
TORSDOF 5
ENDMDL
MODEL 8
REMARK VINA RESULT:      -6.2      1.685      2.155
REMARK  Name = 
REMARK  8 active torsions:
REMARK  status: ('A' for Active; 'I' for Inactive)
REMARK    1  A    between atoms: C_1  and  C_2
REMARK    2  A    between atoms: C_3  and  O_4
REMARK    3  A    between atoms: C_5  and  C_6
REMARK    4  A    between atoms: C_6  and  C_7
REMARK    5  A    between atoms: C_7  and  C_8
REMARK    6  A    between atoms: C_8  and  C_9
REMARK    7  A    between atoms: C_9  and  C_10
REMARK    8  A    between atoms: C_9  and  C_11
REMARK                            x       y       z     vdW  Elec       q    Type
REMARK                         _______ _______ _______ _____ _____    ______ ____
ROOT
ATOM      1  C   UNL     1       6.944   4.257  16.285  0.00  0.00    +0.000 C 
ATOM      2  C   UNL     1       5.808   4.984  16.941  0.00  0.00    +0.000 A 
ATOM      3  C   UNL     1       5.258   4.702  18.136  0.00  0.00    +0.000 A 
ATOM      4  C   UNL     1       4.154   5.478  18.660  0.00  0.00    +0.000 A 
ATOM      5  C   UNL     1       3.699   6.490  17.914  0.00  0.00    +0.000 A 
ATOM      6  O   UNL     1       4.229   6.840  16.673  0.00  0.00    +0.000 OA
ATOM      7  C   UNL     1       5.271   6.125  16.146  0.00  0.00    +0.000 A 
ATOM      8  O   UNL     1       5.750   6.413  15.052  0.00  0.00    +0.000 OA
ENDROOT
BRANCH   3   9
ATOM      9  O   UNL     1       5.669   3.686  18.966  0.00  0.00    +0.000 OA
ATOM     10  H   UNL     1       4.936   3.386  19.523  0.00  0.00    +0.000 HD
ENDBRANCH   3   9
BRANCH   4  11
ATOM     11  C   UNL     1       3.544   5.141  20.001  0.00  0.00    +0.000 C 
BRANCH  11  12
ATOM     12  C   UNL     1       2.152   5.764  20.145  0.00  0.00    +0.000 C 
BRANCH  12  13
ATOM     13  C   UNL     1       1.079   4.719  20.466  0.00  0.00    +0.000 C 
BRANCH  13  14
ATOM     14  C   UNL     1       1.593   3.273  20.324  0.00  0.00    +0.000 C 
ATOM     15  C   UNL     1       1.512   2.494  21.640  0.00  0.00    +0.000 C 
ATOM     16  C   UNL     1       0.806   2.532  19.242  0.00  0.00    +0.000 C 
ENDBRANCH  13  14
ENDBRANCH  12  13
ENDBRANCH  11  12
ENDBRANCH   4  11
TORSDOF 5
ENDMDL
MODEL 9
REMARK VINA RESULT:      -6.1      2.647      5.799
REMARK  Name = 
REMARK  8 active torsions:
REMARK  status: ('A' for Active; 'I' for Inactive)
REMARK    1  A    between atoms: C_1  and  C_2
REMARK    2  A    between atoms: C_3  and  O_4
REMARK    3  A    between atoms: C_5  and  C_6
REMARK    4  A    between atoms: C_6  and  C_7
REMARK    5  A    between atoms: C_7  and  C_8
REMARK    6  A    between atoms: C_8  and  C_9
REMARK    7  A    between atoms: C_9  and  C_10
REMARK    8  A    between atoms: C_9  and  C_11
REMARK                            x       y       z     vdW  Elec       q    Type
REMARK                         _______ _______ _______ _____ _____    ______ ____
ROOT
ATOM      1  C   UNL     1       1.207   2.859  21.330  0.00  0.00    +0.000 C 
ATOM      2  C   UNL     1       1.499   3.577  20.046  0.00  0.00    +0.000 A 
ATOM      3  C   UNL     1       2.196   4.719  19.906  0.00  0.00    +0.000 A 
ATOM      4  C   UNL     1       2.405   5.321  18.606  0.00  0.00    +0.000 A 
ATOM      5  C   UNL     1       1.879   4.700  17.545  0.00  0.00    +0.000 A 
ATOM      6  O   UNL     1       1.155   3.512  17.620  0.00  0.00    +0.000 OA
ATOM      7  C   UNL     1       0.936   2.918  18.834  0.00  0.00    +0.000 A 
ATOM      8  O   UNL     1       0.296   1.873  18.924  0.00  0.00    +0.000 OA
ENDROOT
BRANCH   3   9
ATOM      9  O   UNL     1       2.773   5.416  20.941  0.00  0.00    +0.000 OA
ATOM     10  H   UNL     1       2.246   5.325  21.747  0.00  0.00    +0.000 HD
ENDBRANCH   3   9
BRANCH   4  11
ATOM     11  C   UNL     1       3.185   6.608  18.469  0.00  0.00    +0.000 C 
BRANCH  11  12
ATOM     12  C   UNL     1       4.488   6.383  17.698  0.00  0.00    +0.000 C 
BRANCH  12  13
ATOM     13  C   UNL     1       5.512   5.580  18.508  0.00  0.00    +0.000 C 
BRANCH  13  14
ATOM     14  C   UNL     1       6.899   5.533  17.835  0.00  0.00    +0.000 C 
ATOM     15  C   UNL     1       6.806   5.543  16.307  0.00  0.00    +0.000 C 
ATOM     16  C   UNL     1       7.757   6.711  18.303  0.00  0.00    +0.000 C 
ENDBRANCH  13  14
ENDBRANCH  12  13
ENDBRANCH  11  12
ENDBRANCH   4  11
TORSDOF 5
ENDMDL
