MODEL 1
REMARK VINA RESULT:      -6.8      0.000      0.000
REMARK  Name = 
REMARK  12 active torsions:
REMARK  status: ('A' for Active; 'I' for Inactive)
REMARK    1  A    between atoms: C_1  and  C_2
REMARK    2  A    between atoms: C_2  and  C_3
REMARK    3  A    between atoms: C_3  and  C_4
REMARK    4  A    between atoms: C_3  and  O_6
REMARK    5  A    between atoms: C_4  and  C_5
REMARK    6  A    between atoms: O_6  and  C_7
REMARK    7  A    between atoms: C_9  and  C_10
REMARK    8  A    between atoms: N_13  and  C_14
REMARK    9  A    between atoms: C_15  and  C_16
REMARK   10  A    between atoms: C_18  and  C_19
REMARK   11  A    between atoms: C_21  and  C_22
REMARK   12  A    between atoms: C_23  and  C_24
REMARK                            x       y       z     vdW  Elec       q    Type
REMARK                         _______ _______ _______ _____ _____    ______ ____
ROOT
ATOM      1  C   UNL     1       1.819   7.821  20.062  0.00  0.00    +0.000 A 
ATOM      2  C   UNL     1       1.338   8.084  21.341  0.00  0.00    +0.000 A 
ATOM      3  C   UNL     1       0.585   9.220  21.554  0.00  0.00    +0.000 A 
ATOM      4  C   UNL     1       0.103   9.578  22.926  0.00  0.00    +0.000 C 
ATOM      5  N   UNL     1       0.323  10.098  20.574  0.00  0.00    +0.000 NA
ATOM      6  C   UNL     1       0.845   9.905  19.343  0.00  0.00    +0.000 A 
ATOM      7  N   UNL     1       0.682  10.945  18.388  0.00  0.00    +0.000 N 
ATOM      8  C   UNL     1       1.600   8.762  19.035  0.00  0.00    +0.000 A 
ATOM      9  C   UNL     1       2.194   8.546  17.670  0.00  0.00    +0.000 C 
ATOM     10  H   UNL     1       0.206  10.586  17.574  0.00  0.00    +0.000 HD
ENDROOT
BRANCH   7  11
ATOM     11  C   UNL     1       0.312  12.278  18.733  0.00  0.00    +0.000 A 
ATOM     12  C   UNL     1       1.297  13.284  18.899  0.00  0.00    +0.000 A 
ATOM     13  C   UNL     1       2.754  13.079  18.567  0.00  0.00    +0.000 C 
ATOM     14  C   UNL     1       0.945  14.534  19.435  0.00  0.00    +0.000 A 
ATOM     15  C   UNL     1      -0.375  14.832  19.763  0.00  0.00    +0.000 A 
ATOM     16  C   UNL     1      -0.727  16.137  20.412  0.00  0.00    +0.000 C 
ATOM     17  C   UNL     1      -1.366  13.886  19.491  0.00  0.00    +0.000 A 
ATOM     18  C   UNL     1      -1.043  12.613  18.974  0.00  0.00    +0.000 A 
ATOM     19  C   UNL     1      -2.168  11.644  18.736  0.00  0.00    +0.000 C 
ENDBRANCH   7  11
BRANCH   1  20
ATOM     20  O   UNL     1       2.539   6.699  19.729  0.00  0.00    +0.000 OA
BRANCH  20  21
ATOM     21  C   UNL     1       1.880   5.421  19.706  0.00  0.00    +0.000 C 
BRANCH  21  23
ATOM     22  C   UNL     1       3.486   5.072  17.746  0.00  0.00    +0.000 C 
ATOM     23  C   UNL     1       2.092   4.821  18.306  0.00  0.00    +0.000 C 
ENDBRANCH  21  23
BRANCH  21  24
ATOM     24  C   UNL     1       2.393   4.541  20.861  0.00  0.00    +0.000 C 
ATOM     25  C   UNL     1       1.551   3.304  21.137  0.00  0.00    +0.000 C 
ENDBRANCH  21  24
ENDBRANCH  20  21
ENDBRANCH   1  20
TORSDOF 5
ENDMDL
MODEL 2
REMARK VINA RESULT:      -6.7      4.235      7.416
REMARK  Name = 
REMARK  12 active torsions:
REMARK  status: ('A' for Active; 'I' for Inactive)
REMARK    1  A    between atoms: C_1  and  C_2
REMARK    2  A    between atoms: C_2  and  C_3
REMARK    3  A    between atoms: C_3  and  C_4
REMARK    4  A    between atoms: C_3  and  O_6
REMARK    5  A    between atoms: C_4  and  C_5
REMARK    6  A    between atoms: O_6  and  C_7
REMARK    7  A    between atoms: C_9  and  C_10
REMARK    8  A    between atoms: N_13  and  C_14
REMARK    9  A    between atoms: C_15  and  C_16
REMARK   10  A    between atoms: C_18  and  C_19
REMARK   11  A    between atoms: C_21  and  C_22
REMARK   12  A    between atoms: C_23  and  C_24
REMARK                            x       y       z     vdW  Elec       q    Type
REMARK                         _______ _______ _______ _____ _____    ______ ____
ROOT
ATOM      1  C   UNL     1       6.063   4.124  16.298  0.00  0.00    +0.000 A 
ATOM      2  C   UNL     1       6.993   4.697  17.160  0.00  0.00    +0.000 A 
ATOM      3  C   UNL     1       6.556   5.259  18.341  0.00  0.00    +0.000 A 
ATOM      4  C   UNL     1       7.511   5.947  19.267  0.00  0.00    +0.000 C 
ATOM      5  N   UNL     1       5.257   5.299  18.675  0.00  0.00    +0.000 NA
ATOM      6  C   UNL     1       4.329   4.819  17.820  0.00  0.00    +0.000 A 
ATOM      7  N   UNL     1       2.961   5.037  18.141  0.00  0.00    +0.000 N 
ATOM      8  C   UNL     1       4.690   4.206  16.610  0.00  0.00    +0.000 A 
ATOM      9  C   UNL     1       3.661   3.681  15.646  0.00  0.00    +0.000 C 
ATOM     10  H   UNL     1       2.481   4.151  18.197  0.00  0.00    +0.000 HD
ENDROOT
BRANCH   7  11
ATOM     11  C   UNL     1       2.523   5.993  19.103  0.00  0.00    +0.000 A 
ATOM     12  C   UNL     1       2.055   5.579  20.376  0.00  0.00    +0.000 A 
ATOM     13  C   UNL     1       2.139   4.156  20.867  0.00  0.00    +0.000 C 
ATOM     14  C   UNL     1       1.437   6.504  21.235  0.00  0.00    +0.000 A 
ATOM     15  C   UNL     1       1.320   7.847  20.885  0.00  0.00    +0.000 A 
ATOM     16  C   UNL     1       0.585   8.808  21.772  0.00  0.00    +0.000 C 
ATOM     17  C   UNL     1       1.884   8.281  19.684  0.00  0.00    +0.000 A 
ATOM     18  C   UNL     1       2.491   7.374  18.788  0.00  0.00    +0.000 A 
ATOM     19  C   UNL     1       3.050   7.922  17.504  0.00  0.00    +0.000 C 
ENDBRANCH   7  11
BRANCH   1  20
ATOM     20  O   UNL     1       6.392   3.496  15.121  0.00  0.00    +0.000 OA
BRANCH  20  21
ATOM     21  C   UNL     1       6.328   4.233  13.888  0.00  0.00    +0.000 C 
BRANCH  21  23
ATOM     22  C   UNL     1       7.958   5.527  12.402  0.00  0.00    +0.000 C 
ATOM     23  C   UNL     1       7.579   5.126  13.821  0.00  0.00    +0.000 C 
ENDBRANCH  21  23
BRANCH  21  24
ATOM     24  C   UNL     1       6.171   3.266  12.701  0.00  0.00    +0.000 C 
ATOM     25  C   UNL     1       4.843   3.375  11.965  0.00  0.00    +0.000 C 
ENDBRANCH  21  24
ENDBRANCH  20  21
ENDBRANCH   1  20
TORSDOF 5
ENDMDL
MODEL 3
REMARK VINA RESULT:      -6.6      0.377      1.816
REMARK  Name = 
REMARK  12 active torsions:
REMARK  status: ('A' for Active; 'I' for Inactive)
REMARK    1  A    between atoms: C_1  and  C_2
REMARK    2  A    between atoms: C_2  and  C_3
REMARK    3  A    between atoms: C_3  and  C_4
REMARK    4  A    between atoms: C_3  and  O_6
REMARK    5  A    between atoms: C_4  and  C_5
REMARK    6  A    between atoms: O_6  and  C_7
REMARK    7  A    between atoms: C_9  and  C_10
REMARK    8  A    between atoms: N_13  and  C_14
REMARK    9  A    between atoms: C_15  and  C_16
REMARK   10  A    between atoms: C_18  and  C_19
REMARK   11  A    between atoms: C_21  and  C_22
REMARK   12  A    between atoms: C_23  and  C_24
REMARK                            x       y       z     vdW  Elec       q    Type
REMARK                         _______ _______ _______ _____ _____    ______ ____
ROOT
ATOM      1  C   UNL     1       1.852   7.804  20.049  0.00  0.00    +0.000 A 
ATOM      2  C   UNL     1       1.393   8.088  21.331  0.00  0.00    +0.000 A 
ATOM      3  C   UNL     1       0.681   9.249  21.547  0.00  0.00    +0.000 A 
ATOM      4  C   UNL     1       0.225   9.629  22.922  0.00  0.00    +0.000 C 
ATOM      5  N   UNL     1       0.438  10.131  20.565  0.00  0.00    +0.000 NA
ATOM      6  C   UNL     1       0.940   9.916  19.330  0.00  0.00    +0.000 A 
ATOM      7  N   UNL     1       0.802  10.957  18.371  0.00  0.00    +0.000 N 
ATOM      8  C   UNL     1       1.653   8.747  19.019  0.00  0.00    +0.000 A 
ATOM      9  C   UNL     1       2.226   8.506  17.649  0.00  0.00    +0.000 C 
ATOM     10  H   UNL     1       0.306  10.610  17.564  0.00  0.00    +0.000 HD
ENDROOT
BRANCH   7  11
ATOM     11  C   UNL     1       0.480  12.303  18.714  0.00  0.00    +0.000 A 
ATOM     12  C   UNL     1      -0.858  12.679  18.994  0.00  0.00    +0.000 A 
ATOM     13  C   UNL     1      -1.988  11.688  19.118  0.00  0.00    +0.000 C 
ATOM     14  C   UNL     1      -1.195  14.036  19.129  0.00  0.00    +0.000 A 
ATOM     15  C   UNL     1      -0.225  15.032  19.045  0.00  0.00    +0.000 A 
ATOM     16  C   UNL     1      -0.608  16.481  19.107  0.00  0.00    +0.000 C 
ATOM     17  C   UNL     1       1.111  14.658  18.888  0.00  0.00    +0.000 A 
ATOM     18  C   UNL     1       1.480  13.305  18.727  0.00  0.00    +0.000 A 
ATOM     19  C   UNL     1       2.939  12.992  18.534  0.00  0.00    +0.000 C 
ENDBRANCH   7  11
BRANCH   1  20
ATOM     20  O   UNL     1       2.531   6.657  19.713  0.00  0.00    +0.000 OA
BRANCH  20  21
ATOM     21  C   UNL     1       1.841   5.396  19.745  0.00  0.00    +0.000 C 
BRANCH  21  23
ATOM     22  C   UNL     1       3.425   4.991  17.779  0.00  0.00    +0.000 C 
ATOM     23  C   UNL     1       2.051   4.723  18.377  0.00  0.00    +0.000 C 
ENDBRANCH  21  23
BRANCH  21  24
ATOM     24  C   UNL     1       2.321   4.561  20.946  0.00  0.00    +0.000 C 
ATOM     25  C   UNL     1       1.559   3.260  21.158  0.00  0.00    +0.000 C 
ENDBRANCH  21  24
ENDBRANCH  20  21
ENDBRANCH   1  20
TORSDOF 5
ENDMDL
MODEL 4
REMARK VINA RESULT:      -6.3      0.836      1.193
REMARK  Name = 
REMARK  12 active torsions:
REMARK  status: ('A' for Active; 'I' for Inactive)
REMARK    1  A    between atoms: C_1  and  C_2
REMARK    2  A    between atoms: C_2  and  C_3
REMARK    3  A    between atoms: C_3  and  C_4
REMARK    4  A    between atoms: C_3  and  O_6
REMARK    5  A    between atoms: C_4  and  C_5
REMARK    6  A    between atoms: O_6  and  C_7
REMARK    7  A    between atoms: C_9  and  C_10
REMARK    8  A    between atoms: N_13  and  C_14
REMARK    9  A    between atoms: C_15  and  C_16
REMARK   10  A    between atoms: C_18  and  C_19
REMARK   11  A    between atoms: C_21  and  C_22
REMARK   12  A    between atoms: C_23  and  C_24
REMARK                            x       y       z     vdW  Elec       q    Type
REMARK                         _______ _______ _______ _____ _____    ______ ____
ROOT
ATOM      1  C   UNL     1       2.107   7.620  19.811  0.00  0.00    +0.000 A 
ATOM      2  C   UNL     1       1.600   7.777  21.097  0.00  0.00    +0.000 A 
ATOM      3  C   UNL     1       0.733   8.817  21.354  0.00  0.00    +0.000 A 
ATOM      4  C   UNL     1       0.216   9.066  22.738  0.00  0.00    +0.000 C 
ATOM      5  N   UNL     1       0.381   9.704  20.411  0.00  0.00    +0.000 NA
ATOM      6  C   UNL     1       0.921   9.619  19.176  0.00  0.00    +0.000 A 
ATOM      7  N   UNL     1       0.651  10.676  18.264  0.00  0.00    +0.000 N 
ATOM      8  C   UNL     1       1.790   8.576  18.822  0.00  0.00    +0.000 A 
ATOM      9  C   UNL     1       2.404   8.480  17.453  0.00  0.00    +0.000 C 
ATOM     10  H   UNL     1       0.215  10.305  17.434  0.00  0.00    +0.000 HD
ENDROOT
BRANCH   7  11
ATOM     11  C   UNL     1       0.144  11.948  18.663  0.00  0.00    +0.000 A 
ATOM     12  C   UNL     1       1.024  13.023  18.946  0.00  0.00    +0.000 A 
ATOM     13  C   UNL     1       2.509  12.966  18.692  0.00  0.00    +0.000 C 
ATOM     14  C   UNL     1       0.531  14.201  19.533  0.00  0.00    +0.000 A 
ATOM     15  C   UNL     1      -0.826  14.362  19.797  0.00  0.00    +0.000 A 
ATOM     16  C   UNL     1      -1.329  15.588  20.499  0.00  0.00    +0.000 C 
ATOM     17  C   UNL     1      -1.711  13.353  19.411  0.00  0.00    +0.000 A 
ATOM     18  C   UNL     1      -1.247  12.148  18.841  0.00  0.00    +0.000 A 
ATOM     19  C   UNL     1      -2.266  11.102  18.480  0.00  0.00    +0.000 C 
ENDBRANCH   7  11
BRANCH   1  20
ATOM     20  O   UNL     1       2.939   6.594  19.433  0.00  0.00    +0.000 OA
BRANCH  20  21
ATOM     21  C   UNL     1       2.704   5.271  19.945  0.00  0.00    +0.000 C 
BRANCH  21  23
ATOM     22  C   UNL     1       1.694   4.414  17.757  0.00  0.00    +0.000 C 
ATOM     23  C   UNL     1       1.459   4.718  19.230  0.00  0.00    +0.000 C 
ENDBRANCH  21  23
BRANCH  21  24
ATOM     24  C   UNL     1       3.968   4.408  19.782  0.00  0.00    +0.000 C 
ATOM     25  C   UNL     1       5.175   5.150  19.226  0.00  0.00    +0.000 C 
ENDBRANCH  21  24
ENDBRANCH  20  21
ENDBRANCH   1  20
TORSDOF 5
ENDMDL
MODEL 5
REMARK VINA RESULT:      -6.2      0.716      1.520
REMARK  Name = 
REMARK  12 active torsions:
REMARK  status: ('A' for Active; 'I' for Inactive)
REMARK    1  A    between atoms: C_1  and  C_2
REMARK    2  A    between atoms: C_2  and  C_3
REMARK    3  A    between atoms: C_3  and  C_4
REMARK    4  A    between atoms: C_3  and  O_6
REMARK    5  A    between atoms: C_4  and  C_5
REMARK    6  A    between atoms: O_6  and  C_7
REMARK    7  A    between atoms: C_9  and  C_10
REMARK    8  A    between atoms: N_13  and  C_14
REMARK    9  A    between atoms: C_15  and  C_16
REMARK   10  A    between atoms: C_18  and  C_19
REMARK   11  A    between atoms: C_21  and  C_22
REMARK   12  A    between atoms: C_23  and  C_24
REMARK                            x       y       z     vdW  Elec       q    Type
REMARK                         _______ _______ _______ _____ _____    ______ ____
ROOT
ATOM      1  C   UNL     1       2.190   7.451  19.834  0.00  0.00    +0.000 A 
ATOM      2  C   UNL     1       1.614   7.643  21.086  0.00  0.00    +0.000 A 
ATOM      3  C   UNL     1       0.740   8.694  21.268  0.00  0.00    +0.000 A 
ATOM      4  C   UNL     1       0.149   8.980  22.614  0.00  0.00    +0.000 C 
ATOM      5  N   UNL     1       0.447   9.557  20.284  0.00  0.00    +0.000 NA
ATOM      6  C   UNL     1       1.053   9.438  19.083  0.00  0.00    +0.000 A 
ATOM      7  N   UNL     1       0.840  10.473  18.131  0.00  0.00    +0.000 N 
ATOM      8  C   UNL     1       1.935   8.382  18.805  0.00  0.00    +0.000 A 
ATOM      9  C   UNL     1       2.623   8.249  17.475  0.00  0.00    +0.000 C 
ATOM     10  H   UNL     1       0.448  10.081  17.288  0.00  0.00    +0.000 HD
ENDROOT
BRANCH   7  11
ATOM     11  C   UNL     1       0.319  11.756  18.469  0.00  0.00    +0.000 A 
ATOM     12  C   UNL     1       1.187  12.857  18.682  0.00  0.00    +0.000 A 
ATOM     13  C   UNL     1       2.669  12.809  18.411  0.00  0.00    +0.000 C 
ATOM     14  C   UNL     1       0.684  14.058  19.212  0.00  0.00    +0.000 A 
ATOM     15  C   UNL     1      -0.672  14.213  19.486  0.00  0.00    +0.000 A 
ATOM     16  C   UNL     1      -1.184  15.468  20.129  0.00  0.00    +0.000 C 
ATOM     17  C   UNL     1      -1.547  13.173  19.167  0.00  0.00    +0.000 A 
ATOM     18  C   UNL     1      -1.072  11.946  18.656  0.00  0.00    +0.000 A 
ATOM     19  C   UNL     1      -2.080  10.867  18.366  0.00  0.00    +0.000 C 
ENDBRANCH   7  11
BRANCH   1  20
ATOM     20  O   UNL     1       3.036   6.412  19.529  0.00  0.00    +0.000 OA
BRANCH  20  21
ATOM     21  C   UNL     1       2.507   5.078  19.431  0.00  0.00    +0.000 C 
BRANCH  21  23
ATOM     22  C   UNL     1       1.173   3.443  20.875  0.00  0.00    +0.000 C 
ATOM     23  C   UNL     1       1.493   4.901  20.573  0.00  0.00    +0.000 C 
ENDBRANCH  21  23
BRANCH  21  24
ATOM     24  C   UNL     1       1.930   4.841  18.023  0.00  0.00    +0.000 C 
ATOM     25  C   UNL     1       2.456   3.596  17.323  0.00  0.00    +0.000 C 
ENDBRANCH  21  24
ENDBRANCH  20  21
ENDBRANCH   1  20
TORSDOF 5
ENDMDL
MODEL 6
REMARK VINA RESULT:      -6.0      0.817      2.134
REMARK  Name = 
REMARK  12 active torsions:
REMARK  status: ('A' for Active; 'I' for Inactive)
REMARK    1  A    between atoms: C_1  and  C_2
REMARK    2  A    between atoms: C_2  and  C_3
REMARK    3  A    between atoms: C_3  and  C_4
REMARK    4  A    between atoms: C_3  and  O_6
REMARK    5  A    between atoms: C_4  and  C_5
REMARK    6  A    between atoms: O_6  and  C_7
REMARK    7  A    between atoms: C_9  and  C_10
REMARK    8  A    between atoms: N_13  and  C_14
REMARK    9  A    between atoms: C_15  and  C_16
REMARK   10  A    between atoms: C_18  and  C_19
REMARK   11  A    between atoms: C_21  and  C_22
REMARK   12  A    between atoms: C_23  and  C_24
REMARK                            x       y       z     vdW  Elec       q    Type
REMARK                         _______ _______ _______ _____ _____    ______ ____
ROOT
ATOM      1  C   UNL     1       2.042   7.643  19.692  0.00  0.00    +0.000 A 
ATOM      2  C   UNL     1       1.656   7.852  21.013  0.00  0.00    +0.000 A 
ATOM      3  C   UNL     1       0.925   8.977  21.328  0.00  0.00    +0.000 A 
ATOM      4  C   UNL     1       0.546   9.278  22.745  0.00  0.00    +0.000 C 
ATOM      5  N   UNL     1       0.596   9.896  20.407  0.00  0.00    +0.000 NA
ATOM      6  C   UNL     1       1.026   9.755  19.135  0.00  0.00    +0.000 A 
ATOM      7  N   UNL     1       0.799  10.835  18.238  0.00  0.00    +0.000 N 
ATOM      8  C   UNL     1       1.752   8.626  18.724  0.00  0.00    +0.000 A 
ATOM      9  C   UNL     1       2.244   8.468  17.312  0.00  0.00    +0.000 C 
ATOM     10  H   UNL     1       0.263  10.512  17.447  0.00  0.00    +0.000 HD
ENDROOT
BRANCH   7  11
ATOM     11  C   UNL     1       0.460  12.153  18.666  0.00  0.00    +0.000 A 
ATOM     12  C   UNL     1      -0.875  12.481  19.013  0.00  0.00    +0.000 A 
ATOM     13  C   UNL     1      -1.978  11.459  19.121  0.00  0.00    +0.000 C 
ATOM     14  C   UNL     1      -1.236  13.821  19.233  0.00  0.00    +0.000 A 
ATOM     15  C   UNL     1      -0.292  14.843  19.171  0.00  0.00    +0.000 A 
ATOM     16  C   UNL     1      -0.704  16.277  19.325  0.00  0.00    +0.000 C 
ATOM     17  C   UNL     1       1.045  14.510  18.946  0.00  0.00    +0.000 A 
ATOM     18  C   UNL     1       1.438  13.177  18.698  0.00  0.00    +0.000 A 
ATOM     19  C   UNL     1       2.895  12.909  18.438  0.00  0.00    +0.000 C 
ENDBRANCH   7  11
BRANCH   1  20
ATOM     20  O   UNL     1       2.731   6.535  19.260  0.00  0.00    +0.000 OA
BRANCH  20  21
ATOM     21  C   UNL     1       2.594   5.296  19.977  0.00  0.00    +0.000 C 
BRANCH  21  23
ATOM     22  C   UNL     1       1.511   4.404  17.839  0.00  0.00    +0.000 C 
ATOM     23  C   UNL     1       1.413   4.533  19.353  0.00  0.00    +0.000 C 
ENDBRANCH  21  23
BRANCH  21  24
ATOM     24  C   UNL     1       3.927   4.527  19.963  0.00  0.00    +0.000 C 
ATOM     25  C   UNL     1       5.072   5.254  19.273  0.00  0.00    +0.000 C 
ENDBRANCH  21  24
ENDBRANCH  20  21
ENDBRANCH   1  20
TORSDOF 5
ENDMDL
MODEL 7
REMARK VINA RESULT:      -6.0      4.369      7.326
REMARK  Name = 
REMARK  12 active torsions:
REMARK  status: ('A' for Active; 'I' for Inactive)
REMARK    1  A    between atoms: C_1  and  C_2
REMARK    2  A    between atoms: C_2  and  C_3
REMARK    3  A    between atoms: C_3  and  C_4
REMARK    4  A    between atoms: C_3  and  O_6
REMARK    5  A    between atoms: C_4  and  C_5
REMARK    6  A    between atoms: O_6  and  C_7
REMARK    7  A    between atoms: C_9  and  C_10
REMARK    8  A    between atoms: N_13  and  C_14
REMARK    9  A    between atoms: C_15  and  C_16
REMARK   10  A    between atoms: C_18  and  C_19
REMARK   11  A    between atoms: C_21  and  C_22
REMARK   12  A    between atoms: C_23  and  C_24
REMARK                            x       y       z     vdW  Elec       q    Type
REMARK                         _______ _______ _______ _____ _____    ______ ____
ROOT
ATOM      1  C   UNL     1       6.189   4.213  16.362  0.00  0.00    +0.000 A 
ATOM      2  C   UNL     1       7.023   4.752  17.337  0.00  0.00    +0.000 A 
ATOM      3  C   UNL     1       6.464   5.262  18.490  0.00  0.00    +0.000 A 
ATOM      4  C   UNL     1       7.316   5.913  19.537  0.00  0.00    +0.000 C 
ATOM      5  N   UNL     1       5.138   5.281  18.694  0.00  0.00    +0.000 NA
ATOM      6  C   UNL     1       4.305   4.835  17.729  0.00  0.00    +0.000 A 
ATOM      7  N   UNL     1       2.910   5.033  17.920  0.00  0.00    +0.000 N 
ATOM      8  C   UNL     1       4.791   4.276  16.537  0.00  0.00    +0.000 A 
ATOM      9  C   UNL     1       3.869   3.789  15.453  0.00  0.00    +0.000 C 
ATOM     10  H   UNL     1       2.434   4.144  17.889  0.00  0.00    +0.000 HD
ENDROOT
BRANCH   7  11
ATOM     11  C   UNL     1       2.369   5.946  18.872  0.00  0.00    +0.000 A 
ATOM     12  C   UNL     1       2.370   7.341  18.621  0.00  0.00    +0.000 A 
ATOM     13  C   UNL     1       2.771   7.944  17.299  0.00  0.00    +0.000 C 
ATOM     14  C   UNL     1       2.026   8.242  19.643  0.00  0.00    +0.000 A 
ATOM     15  C   UNL     1       1.627   7.789  20.899  0.00  0.00    +0.000 A 
ATOM     16  C   UNL     1       1.343   8.760  22.007  0.00  0.00    +0.000 C 
ATOM     17  C   UNL     1       1.511   6.415  21.113  0.00  0.00    +0.000 A 
ATOM     18  C   UNL     1       1.871   5.484  20.115  0.00  0.00    +0.000 A 
ATOM     19  C   UNL     1       1.742   4.020  20.439  0.00  0.00    +0.000 C 
ENDBRANCH   7  11
BRANCH   1  20
ATOM     20  O   UNL     1       6.641   3.638  15.199  0.00  0.00    +0.000 OA
BRANCH  20  21
ATOM     21  C   UNL     1       6.415   4.310  13.948  0.00  0.00    +0.000 C 
BRANCH  21  23
ATOM     22  C   UNL     1       7.943   5.552  12.316  0.00  0.00    +0.000 C 
ATOM     23  C   UNL     1       7.542   5.341  13.770  0.00  0.00    +0.000 C 
ENDBRANCH  21  23
BRANCH  21  24
ATOM     24  C   UNL     1       6.307   3.281  12.807  0.00  0.00    +0.000 C 
ATOM     25  C   UNL     1       5.037   3.388  11.975  0.00  0.00    +0.000 C 
ENDBRANCH  21  24
ENDBRANCH  20  21
ENDBRANCH   1  20
TORSDOF 5
ENDMDL
MODEL 8
REMARK VINA RESULT:      -5.8      3.986      7.278
REMARK  Name = 
REMARK  12 active torsions:
REMARK  status: ('A' for Active; 'I' for Inactive)
REMARK    1  A    between atoms: C_1  and  C_2
REMARK    2  A    between atoms: C_2  and  C_3
REMARK    3  A    between atoms: C_3  and  C_4
REMARK    4  A    between atoms: C_3  and  O_6
REMARK    5  A    between atoms: C_4  and  C_5
REMARK    6  A    between atoms: O_6  and  C_7
REMARK    7  A    between atoms: C_9  and  C_10
REMARK    8  A    between atoms: N_13  and  C_14
REMARK    9  A    between atoms: C_15  and  C_16
REMARK   10  A    between atoms: C_18  and  C_19
REMARK   11  A    between atoms: C_21  and  C_22
REMARK   12  A    between atoms: C_23  and  C_24
REMARK                            x       y       z     vdW  Elec       q    Type
REMARK                         _______ _______ _______ _____ _____    ______ ____
ROOT
ATOM      1  C   UNL     1       5.871   4.058  16.228  0.00  0.00    +0.000 A 
ATOM      2  C   UNL     1       6.834   4.863  16.828  0.00  0.00    +0.000 A 
ATOM      3  C   UNL     1       6.489   5.609  17.936  0.00  0.00    +0.000 A 
ATOM      4  C   UNL     1       7.473   6.541  18.574  0.00  0.00    +0.000 C 
ATOM      5  N   UNL     1       5.246   5.606  18.440  0.00  0.00    +0.000 NA
ATOM      6  C   UNL     1       4.275   4.894  17.829  0.00  0.00    +0.000 A 
ATOM      7  N   UNL     1       2.942   5.057  18.297  0.00  0.00    +0.000 N 
ATOM      8  C   UNL     1       4.546   4.087  16.713  0.00  0.00    +0.000 A 
ATOM      9  C   UNL     1       3.469   3.300  16.019  0.00  0.00    +0.000 C 
ATOM     10  H   UNL     1       2.572   4.164  18.583  0.00  0.00    +0.000 HD
ENDROOT
BRANCH   7  11
ATOM     11  C   UNL     1       2.527   6.145  19.120  0.00  0.00    +0.000 A 
ATOM     12  C   UNL     1       2.082   5.921  20.447  0.00  0.00    +0.000 A 
ATOM     13  C   UNL     1       2.169   4.581  21.135  0.00  0.00    +0.000 C 
ATOM     14  C   UNL     1       1.485   6.963  21.176  0.00  0.00    +0.000 A 
ATOM     15  C   UNL     1       1.367   8.243  20.640  0.00  0.00    +0.000 A 
ATOM     16  C   UNL     1       0.654   9.326  21.393  0.00  0.00    +0.000 C 
ATOM     17  C   UNL     1       1.910   8.496  19.379  0.00  0.00    +0.000 A 
ATOM     18  C   UNL     1       2.496   7.466  18.612  0.00  0.00    +0.000 A 
ATOM     19  C   UNL     1       3.032   7.820  17.251  0.00  0.00    +0.000 C 
ENDBRANCH   7  11
BRANCH   1  20
ATOM     20  O   UNL     1       6.116   3.241  15.151  0.00  0.00    +0.000 OA
BRANCH  20  21
ATOM     21  C   UNL     1       6.456   3.829  13.884  0.00  0.00    +0.000 C 
BRANCH  21  23
ATOM     22  C   UNL     1       5.117   3.106  11.828  0.00  0.00    +0.000 C 
ATOM     23  C   UNL     1       5.152   3.972  13.080  0.00  0.00    +0.000 C 
ENDBRANCH  21  23
BRANCH  21  24
ATOM     24  C   UNL     1       7.218   5.149  14.100  0.00  0.00    +0.000 C 
ATOM     25  C   UNL     1       8.138   5.546  12.954  0.00  0.00    +0.000 C 
ENDBRANCH  21  24
ENDBRANCH  20  21
ENDBRANCH   1  20
TORSDOF 5
ENDMDL
MODEL 9
REMARK VINA RESULT:      -5.6      0.774      2.357
REMARK  Name = 
REMARK  12 active torsions:
REMARK  status: ('A' for Active; 'I' for Inactive)
REMARK    1  A    between atoms: C_1  and  C_2
REMARK    2  A    between atoms: C_2  and  C_3
REMARK    3  A    between atoms: C_3  and  C_4
REMARK    4  A    between atoms: C_3  and  O_6
REMARK    5  A    between atoms: C_4  and  C_5
REMARK    6  A    between atoms: O_6  and  C_7
REMARK    7  A    between atoms: C_9  and  C_10
REMARK    8  A    between atoms: N_13  and  C_14
REMARK    9  A    between atoms: C_15  and  C_16
REMARK   10  A    between atoms: C_18  and  C_19
REMARK   11  A    between atoms: C_21  and  C_22
REMARK   12  A    between atoms: C_23  and  C_24
REMARK                            x       y       z     vdW  Elec       q    Type
REMARK                         _______ _______ _______ _____ _____    ______ ____
ROOT
ATOM      1  C   UNL     1       2.264   7.459  19.774  0.00  0.00    +0.000 A 
ATOM      2  C   UNL     1       1.744   7.669  21.048  0.00  0.00    +0.000 A 
ATOM      3  C   UNL     1       0.943   8.768  21.273  0.00  0.00    +0.000 A 
ATOM      4  C   UNL     1       0.417   9.071  22.642  0.00  0.00    +0.000 C 
ATOM      5  N   UNL     1       0.670   9.662  20.310  0.00  0.00    +0.000 NA
ATOM      6  C   UNL     1       1.226   9.523  19.087  0.00  0.00    +0.000 A 
ATOM      7  N   UNL     1       1.046  10.582  18.156  0.00  0.00    +0.000 N 
ATOM      8  C   UNL     1       2.032   8.419  18.767  0.00  0.00    +0.000 A 
ATOM      9  C   UNL     1       2.665   8.262  17.411  0.00  0.00    +0.000 C 
ATOM     10  H   UNL     1       0.602  10.227  17.322  0.00  0.00    +0.000 HD
ENDROOT
BRANCH   7  11
ATOM     11  C   UNL     1       0.616  11.890  18.527  0.00  0.00    +0.000 A 
ATOM     12  C   UNL     1      -0.753  12.160  18.774  0.00  0.00    +0.000 A 
ATOM     13  C   UNL     1      -1.812  11.088  18.832  0.00  0.00    +0.000 C 
ATOM     14  C   UNL     1      -1.192  13.485  18.937  0.00  0.00    +0.000 A 
ATOM     15  C   UNL     1      -0.294  14.550  18.914  0.00  0.00    +0.000 A 
ATOM     16  C   UNL     1      -0.783  15.965  19.005  0.00  0.00    +0.000 C 
ATOM     17  C   UNL     1       1.069  14.278  18.789  0.00  0.00    +0.000 A 
ATOM     18  C   UNL     1       1.540  12.960  18.601  0.00  0.00    +0.000 A 
ATOM     19  C   UNL     1       3.023  12.759  18.446  0.00  0.00    +0.000 C 
ENDBRANCH   7  11
BRANCH   1  20
ATOM     20  O   UNL     1       3.034   6.375  19.428  0.00  0.00    +0.000 OA
BRANCH  20  21
ATOM     21  C   UNL     1       2.426   5.073  19.359  0.00  0.00    +0.000 C 
BRANCH  21  23
ATOM     22  C   UNL     1       1.152   3.536  20.957  0.00  0.00    +0.000 C 
ATOM     23  C   UNL     1       1.428   4.970  20.524  0.00  0.00    +0.000 C 
ENDBRANCH  21  23
BRANCH  21  24
ATOM     24  C   UNL     1       1.806   4.853  17.967  0.00  0.00    +0.000 C 
ATOM     25  C   UNL     1       2.222   3.558  17.285  0.00  0.00    +0.000 C 
ENDBRANCH  21  24
ENDBRANCH  20  21
ENDBRANCH   1  20
TORSDOF 5
ENDMDL
