MODEL 1
REMARK VINA RESULT:      -6.3      0.000      0.000
REMARK  Name = 
REMARK  0 active torsions:
REMARK  status: ('A' for Active; 'I' for Inactive)
REMARK                            x       y       z     vdW  Elec       q    Type
REMARK                         _______ _______ _______ _____ _____    ______ ____
ROOT
ATOM      1  O   UNL     1       2.459   7.245  19.838  0.00  0.00    +0.000 OA
ATOM      2  C   UNL     1       2.513   6.040  19.621  0.00  0.00    +0.000 C 
ATOM      3  C   UNL     1       1.662   5.051  20.370  0.00  0.00    +0.000 C 
ATOM      4  C   UNL     1       2.491   3.827  20.698  0.00  0.00    +0.000 C 
ATOM      5 CL   UNL     1       1.499   2.664  21.615  0.00  0.00    +0.000 Cl
ATOM      6  C   UNL     1       3.019   3.190  19.425  0.00  0.00    +0.000 C 
ATOM      7  O   UNL     1       3.085   1.984  19.217  0.00  0.00    +0.000 OA
ATOM      8  C   UNL     1       3.579   4.128  18.420  0.00  0.00    +0.000 A 
ATOM      9  C   UNL     1       4.349   3.630  17.361  0.00  0.00    +0.000 A 
ATOM     10  C   UNL     1       4.925   4.510  16.443  0.00  0.00    +0.000 A 
ATOM     11  C   UNL     1       4.738   5.886  16.580  0.00  0.00    +0.000 A 
ATOM     12  C   UNL     1       3.962   6.386  17.627  0.00  0.00    +0.000 A 
ATOM     13  C   UNL     1       3.375   5.504  18.543  0.00  0.00    +0.000 A 
ENDROOT
TORSDOF 0
ENDMDL
MODEL 2
REMARK VINA RESULT:      -6.3      3.709      4.739
REMARK  Name = 
REMARK  0 active torsions:
REMARK  status: ('A' for Active; 'I' for Inactive)
REMARK                            x       y       z     vdW  Elec       q    Type
REMARK                         _______ _______ _______ _____ _____    ______ ____
ROOT
ATOM      1  O   UNL     1       5.204   6.185  15.176  0.00  0.00    +0.000 OA
ATOM      2  C   UNL     1       5.538   6.066  16.349  0.00  0.00    +0.000 C 
ATOM      3  C   UNL     1       6.409   7.079  17.043  0.00  0.00    +0.000 C 
ATOM      4  C   UNL     1       7.410   6.357  17.919  0.00  0.00    +0.000 C 
ATOM      5 CL   UNL     1       8.468   7.547  18.720  0.00  0.00    +0.000 Cl
ATOM      6  C   UNL     1       6.691   5.505  18.951  0.00  0.00    +0.000 C 
ATOM      7  O   UNL     1       7.035   5.376  20.120  0.00  0.00    +0.000 OA
ATOM      8  C   UNL     1       5.548   4.705  18.442  0.00  0.00    +0.000 A 
ATOM      9  C   UNL     1       5.016   3.678  19.232  0.00  0.00    +0.000 A 
ATOM     10  C   UNL     1       3.978   2.885  18.738  0.00  0.00    +0.000 A 
ATOM     11  C   UNL     1       3.471   3.113  17.458  0.00  0.00    +0.000 A 
ATOM     12  C   UNL     1       3.992   4.142  16.673  0.00  0.00    +0.000 A 
ATOM     13  C   UNL     1       5.025   4.945  17.170  0.00  0.00    +0.000 A 
ENDROOT
TORSDOF 0
ENDMDL
MODEL 3
REMARK VINA RESULT:      -6.3      2.739      4.281
REMARK  Name = 
REMARK  0 active torsions:
REMARK  status: ('A' for Active; 'I' for Inactive)
REMARK                            x       y       z     vdW  Elec       q    Type
REMARK                         _______ _______ _______ _____ _____    ______ ____
ROOT
ATOM      1  O   UNL     1       0.907   4.346  17.188  0.00  0.00    +0.000 OA
ATOM      2  C   UNL     1       1.983   4.257  17.767  0.00  0.00    +0.000 C 
ATOM      3  C   UNL     1       3.255   4.819  17.189  0.00  0.00    +0.000 C 
ATOM      4  C   UNL     1       4.387   3.844  17.436  0.00  0.00    +0.000 C 
ATOM      5 CL   UNL     1       5.890   4.485  16.726  0.00  0.00    +0.000 Cl
ATOM      6  C   UNL     1       4.562   3.605  18.926  0.00  0.00    +0.000 C 
ATOM      7  O   UNL     1       5.640   3.502  19.499  0.00  0.00    +0.000 OA
ATOM      8  C   UNL     1       3.311   3.385  19.694  0.00  0.00    +0.000 A 
ATOM      9  C   UNL     1       3.378   2.869  20.994  0.00  0.00    +0.000 A 
ATOM     10  C   UNL     1       2.204   2.607  21.703  0.00  0.00    +0.000 A 
ATOM     11  C   UNL     1       0.962   2.857  21.116  0.00  0.00    +0.000 A 
ATOM     12  C   UNL     1       0.891   3.382  19.825  0.00  0.00    +0.000 A 
ATOM     13  C   UNL     1       2.067   3.655  19.117  0.00  0.00    +0.000 A 
ENDROOT
TORSDOF 0
ENDMDL
MODEL 4
REMARK VINA RESULT:      -6.3      2.176      2.760
REMARK  Name = 
REMARK  0 active torsions:
REMARK  status: ('A' for Active; 'I' for Inactive)
REMARK                            x       y       z     vdW  Elec       q    Type
REMARK                         _______ _______ _______ _____ _____    ______ ____
ROOT
ATOM      1  O   UNL     1       6.613   5.341  19.765  0.00  0.00    +0.000 OA
ATOM      2  C   UNL     1       5.640   5.049  19.079  0.00  0.00    +0.000 C 
ATOM      3  C   UNL     1       4.233   5.121  19.610  0.00  0.00    +0.000 C 
ATOM      4  C   UNL     1       3.453   3.922  19.116  0.00  0.00    +0.000 C 
ATOM      5 CL   UNL     1       1.794   3.981  19.766  0.00  0.00    +0.000 Cl
ATOM      6  C   UNL     1       3.428   3.897  17.597  0.00  0.00    +0.000 C 
ATOM      7  O   UNL     1       2.458   3.590  16.914  0.00  0.00    +0.000 OA
ATOM      8  C   UNL     1       4.724   4.173  16.928  0.00  0.00    +0.000 A 
ATOM      9  C   UNL     1       4.875   3.886  15.565  0.00  0.00    +0.000 A 
ATOM     10  C   UNL     1       6.108   4.091  14.941  0.00  0.00    +0.000 A 
ATOM     11  C   UNL     1       7.190   4.580  15.674  0.00  0.00    +0.000 A 
ATOM     12  C   UNL     1       7.040   4.879  17.029  0.00  0.00    +0.000 A 
ATOM     13  C   UNL     1       5.803   4.683  17.654  0.00  0.00    +0.000 A 
ENDROOT
TORSDOF 0
ENDMDL
MODEL 5
REMARK VINA RESULT:      -6.2      3.194      4.872
REMARK  Name = 
REMARK  0 active torsions:
REMARK  status: ('A' for Active; 'I' for Inactive)
REMARK                            x       y       z     vdW  Elec       q    Type
REMARK                         _______ _______ _______ _____ _____    ______ ____
ROOT
ATOM      1  O   UNL     1       5.212   3.554  19.358  0.00  0.00    +0.000 OA
ATOM      2  C   UNL     1       5.089   4.286  18.383  0.00  0.00    +0.000 C 
ATOM      3  C   UNL     1       5.743   3.980  17.062  0.00  0.00    +0.000 C 
ATOM      4  C   UNL     1       6.291   5.261  16.469  0.00  0.00    +0.000 C 
ATOM      5 CL   UNL     1       7.097   4.903  14.920  0.00  0.00    +0.000 Cl
ATOM      6  C   UNL     1       5.174   6.270  16.268  0.00  0.00    +0.000 C 
ATOM      7  O   UNL     1       5.063   7.011  15.298  0.00  0.00    +0.000 OA
ATOM      8  C   UNL     1       4.222   6.410  17.397  0.00  0.00    +0.000 A 
ATOM      9  C   UNL     1       3.348   7.505  17.435  0.00  0.00    +0.000 A 
ATOM     10  C   UNL     1       2.488   7.674  18.522  0.00  0.00    +0.000 A 
ATOM     11  C   UNL     1       2.498   6.754  19.572  0.00  0.00    +0.000 A 
ATOM     12  C   UNL     1       3.359   5.657  19.533  0.00  0.00    +0.000 A 
ATOM     13  C   UNL     1       4.215   5.480  18.440  0.00  0.00    +0.000 A 
ENDROOT
TORSDOF 0
ENDMDL
MODEL 6
REMARK VINA RESULT:      -6.1      3.090      3.947
REMARK  Name = 
REMARK  0 active torsions:
REMARK  status: ('A' for Active; 'I' for Inactive)
REMARK                            x       y       z     vdW  Elec       q    Type
REMARK                         _______ _______ _______ _____ _____    ______ ____
ROOT
ATOM      1  O   UNL     1       5.169   6.718  15.264  0.00  0.00    +0.000 OA
ATOM      2  C   UNL     1       5.279   5.896  16.166  0.00  0.00    +0.000 C 
ATOM      3  C   UNL     1       4.521   4.595  16.162  0.00  0.00    +0.000 C 
ATOM      4  C   UNL     1       4.026   4.304  17.563  0.00  0.00    +0.000 C 
ATOM      5 CL   UNL     1       3.098   2.782  17.563  0.00  0.00    +0.000 Cl
ATOM      6  C   UNL     1       5.195   4.215  18.529  0.00  0.00    +0.000 C 
ATOM      7  O   UNL     1       5.294   3.401  19.439  0.00  0.00    +0.000 OA
ATOM      8  C   UNL     1       6.226   5.274  18.391  0.00  0.00    +0.000 A 
ATOM      9  C   UNL     1       7.173   5.454  19.407  0.00  0.00    +0.000 A 
ATOM     10  C   UNL     1       8.112   6.484  19.310  0.00  0.00    +0.000 A 
ATOM     11  C   UNL     1       8.106   7.335  18.204  0.00  0.00    +0.000 A 
ATOM     12  C   UNL     1       7.171   7.151  17.185  0.00  0.00    +0.000 A 
ATOM     13  C   UNL     1       6.236   6.114  17.275  0.00  0.00    +0.000 A 
ENDROOT
TORSDOF 0
ENDMDL
MODEL 7
REMARK VINA RESULT:      -6.1      2.060      2.956
REMARK  Name = 
REMARK  0 active torsions:
REMARK  status: ('A' for Active; 'I' for Inactive)
REMARK                            x       y       z     vdW  Elec       q    Type
REMARK                         _______ _______ _______ _____ _____    ______ ____
ROOT
ATOM      1  O   UNL     1       5.171   2.217  20.243  0.00  0.00    +0.000 OA
ATOM      2  C   UNL     1       4.261   2.817  19.684  0.00  0.00    +0.000 C 
ATOM      3  C   UNL     1       2.818   2.424  19.851  0.00  0.00    +0.000 C 
ATOM      4  C   UNL     1       2.115   2.527  18.515  0.00  0.00    +0.000 C 
ATOM      5 CL   UNL     1       0.413   2.030  18.696  0.00  0.00    +0.000 Cl
ATOM      6  C   UNL     1       2.202   3.946  17.980  0.00  0.00    +0.000 C 
ATOM      7  O   UNL     1       1.294   4.538  17.409  0.00  0.00    +0.000 OA
ATOM      8  C   UNL     1       3.532   4.594  18.088  0.00  0.00    +0.000 A 
ATOM      9  C   UNL     1       3.791   5.768  17.369  0.00  0.00    +0.000 A 
ATOM     10  C   UNL     1       5.058   6.354  17.421  0.00  0.00    +0.000 A 
ATOM     11  C   UNL     1       6.068   5.769  18.188  0.00  0.00    +0.000 A 
ATOM     12  C   UNL     1       5.810   4.606  18.914  0.00  0.00    +0.000 A 
ATOM     13  C   UNL     1       4.539   4.024  18.871  0.00  0.00    +0.000 A 
ENDROOT
TORSDOF 0
ENDMDL
MODEL 8
REMARK VINA RESULT:      -6.1      0.935      1.037
REMARK  Name = 
REMARK  0 active torsions:
REMARK  status: ('A' for Active; 'I' for Inactive)
REMARK                            x       y       z     vdW  Elec       q    Type
REMARK                         _______ _______ _______ _____ _____    ______ ____
ROOT
ATOM      1  O   UNL     1       2.583   6.999  19.405  0.00  0.00    +0.000 OA
ATOM      2  C   UNL     1       2.708   5.863  18.962  0.00  0.00    +0.000 C 
ATOM      3  C   UNL     1       1.834   4.724  19.413  0.00  0.00    +0.000 C 
ATOM      4  C   UNL     1       2.681   3.480  19.573  0.00  0.00    +0.000 C 
ATOM      5 CL   UNL     1       1.660   2.133  20.139  0.00  0.00    +0.000 Cl
ATOM      6  C   UNL     1       3.350   3.123  18.257  0.00  0.00    +0.000 C 
ATOM      7  O   UNL     1       3.487   1.985  17.824  0.00  0.00    +0.000 OA
ATOM      8  C   UNL     1       3.960   4.256  17.517  0.00  0.00    +0.000 A 
ATOM      9  C   UNL     1       4.845   3.999  16.462  0.00  0.00    +0.000 A 
ATOM     10  C   UNL     1       5.466   5.058  15.798  0.00  0.00    +0.000 A 
ATOM     11  C   UNL     1       5.208   6.374  16.185  0.00  0.00    +0.000 A 
ATOM     12  C   UNL     1       4.319   6.635  17.228  0.00  0.00    +0.000 A 
ATOM     13  C   UNL     1       3.688   5.575  17.889  0.00  0.00    +0.000 A 
ENDROOT
TORSDOF 0
ENDMDL
MODEL 9
REMARK VINA RESULT:      -6.1      1.193      3.081
REMARK  Name = 
REMARK  0 active torsions:
REMARK  status: ('A' for Active; 'I' for Inactive)
REMARK                            x       y       z     vdW  Elec       q    Type
REMARK                         _______ _______ _______ _____ _____    ______ ____
ROOT
ATOM      1  O   UNL     1       3.725   1.826  17.566  0.00  0.00    +0.000 OA
ATOM      2  C   UNL     1       3.561   2.961  17.999  0.00  0.00    +0.000 C 
ATOM      3  C   UNL     1       2.870   3.228  19.309  0.00  0.00    +0.000 C 
ATOM      4  C   UNL     1       1.964   4.431  19.158  0.00  0.00    +0.000 C 
ATOM      5 CL   UNL     1       1.115   4.736  20.695  0.00  0.00    +0.000 Cl
ATOM      6  C   UNL     1       2.770   5.651  18.745  0.00  0.00    +0.000 C 
ATOM      7  O   UNL     1       2.594   6.787  19.169  0.00  0.00    +0.000 OA
ATOM      8  C   UNL     1       3.770   5.428  17.671  0.00  0.00    +0.000 A 
ATOM      9  C   UNL     1       4.346   6.527  17.021  0.00  0.00    +0.000 A 
ATOM     10  C   UNL     1       5.245   6.325  15.972  0.00  0.00    +0.000 A 
ATOM     11  C   UNL     1       5.572   5.029  15.570  0.00  0.00    +0.000 A 
ATOM     12  C   UNL     1       5.009   3.931  16.223  0.00  0.00    +0.000 A 
ATOM     13  C   UNL     1       4.115   4.131  17.280  0.00  0.00    +0.000 A 
ENDROOT
TORSDOF 0
ENDMDL
