MODEL 1
REMARK VINA RESULT:      -9.4      0.000      0.000
REMARK  Name = 
REMARK  3 active torsions:
REMARK  status: ('A' for Active; 'I' for Inactive)
REMARK    1  A    between atoms: C_1  and  C_2
REMARK    2  A    between atoms: C_6  and  C_8
REMARK    3  A    between atoms: C_8  and  N_9
REMARK                            x       y       z     vdW  Elec       q    Type
REMARK                         _______ _______ _______ _____ _____    ______ ____
ROOT
ATOM      1  N   UNL     1       5.002   5.637  18.437  0.00  0.00    +0.000 N 
ATOM      2  C   UNL     1       3.852   6.284  18.115  0.00  0.00    +0.000 C 
ATOM      3  O   UNL     1       3.716   7.453  17.785  0.00  0.00    +0.000 OA
ATOM      4  N   UNL     1       2.797   5.428  18.319  0.00  0.00    +0.000 N 
ATOM      5  C   UNL     1       3.184   4.265  19.089  0.00  0.00    +0.000 C 
ATOM      6  C   UNL     1       2.624   4.362  20.514  0.00  0.00    +0.000 C 
ATOM      7  C   UNL     1       1.102   4.181  20.526  0.00  0.00    +0.000 C 
ATOM      8  C   UNL     1       0.671   2.895  19.824  0.00  0.00    +0.000 C 
ATOM      9  C   UNL     1       1.261   2.768  18.420  0.00  0.00    +0.000 C 
ATOM     10  C   UNL     1       2.778   2.954  18.418  0.00  0.00    +0.000 C 
ATOM     11  C   UNL     1       4.717   4.460  19.071  0.00  0.00    +0.000 C 
ATOM     12  O   UNL     1       5.547   3.718  19.575  0.00  0.00    +0.000 OA
ATOM     13  H   UNL     1       1.853   5.788  18.244  0.00  0.00    +0.000 HD
ENDROOT
BRANCH   1  14
ATOM     14  C   UNL     1       6.327   6.203  18.325  0.00  0.00    +0.000 C 
BRANCH  14  20
ATOM     15  C   UNL     1       6.485   3.034  11.605  0.00  0.00    +0.000 C 
ATOM     16  C   UNL     1       6.585   3.785  12.867  0.00  0.00    +0.000 A 
ATOM     17  C   UNL     1       5.950   3.737  14.085  0.00  0.00    +0.000 A 
ATOM     18  C   UNL     1       6.557   4.765  14.854  0.00  0.00    +0.000 A 
ATOM     19  N   UNL     1       6.225   5.078  16.163  0.00  0.00    +0.000 N 
ATOM     20  C   UNL     1       6.834   6.090  16.887  0.00  0.00    +0.000 C 
ATOM     21  O   UNL     1       7.670   6.887  16.466  0.00  0.00    +0.000 OA
ATOM     22  N   UNL     1       7.502   5.378  14.131  0.00  0.00    +0.000 NA
ATOM     23  O   UNL     1       7.513   4.775  12.898  0.00  0.00    +0.000 OA
ATOM     24  H   UNL     1       5.446   4.573  16.570  0.00  0.00    +0.000 HD
ENDBRANCH  14  20
ENDBRANCH   1  14
TORSDOF 2
ENDMDL
MODEL 2
REMARK VINA RESULT:      -9.1      0.799      1.973
REMARK  Name = 
REMARK  3 active torsions:
REMARK  status: ('A' for Active; 'I' for Inactive)
REMARK    1  A    between atoms: C_1  and  C_2
REMARK    2  A    between atoms: C_6  and  C_8
REMARK    3  A    between atoms: C_8  and  N_9
REMARK                            x       y       z     vdW  Elec       q    Type
REMARK                         _______ _______ _______ _____ _____    ______ ____
ROOT
ATOM      1  N   UNL     1       4.877   5.881  18.546  0.00  0.00    +0.000 N 
ATOM      2  C   UNL     1       5.223   4.645  18.992  0.00  0.00    +0.000 C 
ATOM      3  O   UNL     1       6.328   4.123  18.975  0.00  0.00    +0.000 OA
ATOM      4  N   UNL     1       4.083   3.991  19.393  0.00  0.00    +0.000 N 
ATOM      5  C   UNL     1       2.885   4.660  18.934  0.00  0.00    +0.000 C 
ATOM      6  C   UNL     1       2.238   3.866  17.792  0.00  0.00    +0.000 C 
ATOM      7  C   UNL     1       1.621   2.560  18.302  0.00  0.00    +0.000 C 
ATOM      8  C   UNL     1       0.652   2.797  19.460  0.00  0.00    +0.000 C 
ATOM      9  C   UNL     1       1.273   3.625  20.583  0.00  0.00    +0.000 C 
ATOM     10  C   UNL     1       1.889   4.923  20.063  0.00  0.00    +0.000 C 
ATOM     11  C   UNL     1       3.519   5.972  18.421  0.00  0.00    +0.000 C 
ATOM     12  O   UNL     1       2.923   6.924  17.937  0.00  0.00    +0.000 OA
ATOM     13  H   UNL     1       4.143   3.010  19.640  0.00  0.00    +0.000 HD
ENDROOT
BRANCH   1  14
ATOM     14  C   UNL     1       5.810   6.876  18.068  0.00  0.00    +0.000 C 
BRANCH  14  20
ATOM     15  C   UNL     1       5.990   2.866  11.814  0.00  0.00    +0.000 C 
ATOM     16  C   UNL     1       6.129   3.726  13.001  0.00  0.00    +0.000 A 
ATOM     17  C   UNL     1       5.326   4.053  14.068  0.00  0.00    +0.000 A 
ATOM     18  C   UNL     1       6.107   4.946  14.850  0.00  0.00    +0.000 A 
ATOM     19  N   UNL     1       5.691   5.534  16.035  0.00  0.00    +0.000 N 
ATOM     20  C   UNL     1       6.475   6.404  16.775  0.00  0.00    +0.000 C 
ATOM     21  O   UNL     1       7.583   6.834  16.461  0.00  0.00    +0.000 OA
ATOM     22  N   UNL     1       7.303   5.127  14.279  0.00  0.00    +0.000 NA
ATOM     23  O   UNL     1       7.313   4.376  13.130  0.00  0.00    +0.000 OA
ATOM     24  H   UNL     1       4.735   5.357  16.321  0.00  0.00    +0.000 HD
ENDBRANCH  14  20
ENDBRANCH   1  14
TORSDOF 2
ENDMDL
MODEL 3
REMARK VINA RESULT:      -8.5      3.663      5.762
REMARK  Name = 
REMARK  3 active torsions:
REMARK  status: ('A' for Active; 'I' for Inactive)
REMARK    1  A    between atoms: C_1  and  C_2
REMARK    2  A    between atoms: C_6  and  C_8
REMARK    3  A    between atoms: C_8  and  N_9
REMARK                            x       y       z     vdW  Elec       q    Type
REMARK                         _______ _______ _______ _____ _____    ______ ____
ROOT
ATOM      1  N   UNL     1       6.462   5.851  17.393  0.00  0.00    +0.000 N 
ATOM      2  C   UNL     1       6.992   4.627  17.649  0.00  0.00    +0.000 C 
ATOM      3  O   UNL     1       8.091   4.202  17.325  0.00  0.00    +0.000 OA
ATOM      4  N   UNL     1       6.036   3.857  18.267  0.00  0.00    +0.000 N 
ATOM      5  C   UNL     1       4.718   4.447  18.165  0.00  0.00    +0.000 C 
ATOM      6  C   UNL     1       3.863   3.664  17.160  0.00  0.00    +0.000 C 
ATOM      7  C   UNL     1       3.483   2.284  17.709  0.00  0.00    +0.000 C 
ATOM      8  C   UNL     1       2.820   2.375  19.082  0.00  0.00    +0.000 C 
ATOM      9  C   UNL     1       3.643   3.191  20.077  0.00  0.00    +0.000 C 
ATOM     10  C   UNL     1       4.019   4.564  19.518  0.00  0.00    +0.000 C 
ATOM     11  C   UNL     1       5.112   5.833  17.610  0.00  0.00    +0.000 C 
ATOM     12  O   UNL     1       4.351   6.756  17.357  0.00  0.00    +0.000 OA
ATOM     13  H   UNL     1       6.223   2.874  18.420  0.00  0.00    +0.000 HD
ENDROOT
BRANCH   1  14
ATOM     14  C   UNL     1       7.176   6.945  16.776  0.00  0.00    +0.000 C 
BRANCH  14  20
ATOM     15  C   UNL     1      10.043  13.276  19.408  0.00  0.00    +0.000 C 
ATOM     16  C   UNL     1       9.536  11.941  19.051  0.00  0.00    +0.000 A 
ATOM     17  C   UNL     1       8.815  11.418  18.004  0.00  0.00    +0.000 A 
ATOM     18  C   UNL     1       8.682  10.037  18.306  0.00  0.00    +0.000 A 
ATOM     19  N   UNL     1       8.021   9.111  17.513  0.00  0.00    +0.000 N 
ATOM     20  C   UNL     1       7.907   7.769  17.836  0.00  0.00    +0.000 C 
ATOM     21  O   UNL     1       8.287   7.234  18.875  0.00  0.00    +0.000 OA
ATOM     22  N   UNL     1       9.299   9.761  19.461  0.00  0.00    +0.000 NA
ATOM     23  O   UNL     1       9.821  10.943  19.925  0.00  0.00    +0.000 OA
ATOM     24  H   UNL     1       7.546   9.469  16.693  0.00  0.00    +0.000 HD
ENDBRANCH  14  20
ENDBRANCH   1  14
TORSDOF 2
ENDMDL
MODEL 4
REMARK VINA RESULT:      -8.4      2.546      4.240
REMARK  Name = 
REMARK  3 active torsions:
REMARK  status: ('A' for Active; 'I' for Inactive)
REMARK    1  A    between atoms: C_1  and  C_2
REMARK    2  A    between atoms: C_6  and  C_8
REMARK    3  A    between atoms: C_8  and  N_9
REMARK                            x       y       z     vdW  Elec       q    Type
REMARK                         _______ _______ _______ _____ _____    ______ ____
ROOT
ATOM      1  N   UNL     1       5.309   4.461  17.764  0.00  0.00    +0.000 N 
ATOM      2  C   UNL     1       4.346   5.292  17.286  0.00  0.00    +0.000 C 
ATOM      3  O   UNL     1       4.487   6.261  16.555  0.00  0.00    +0.000 OA
ATOM      4  N   UNL     1       3.144   4.937  17.849  0.00  0.00    +0.000 N 
ATOM      5  C   UNL     1       3.316   4.041  18.973  0.00  0.00    +0.000 C 
ATOM      6  C   UNL     1       3.047   4.784  20.289  0.00  0.00    +0.000 C 
ATOM      7  C   UNL     1       1.559   5.111  20.449  0.00  0.00    +0.000 C 
ATOM      8  C   UNL     1       0.679   3.872  20.297  0.00  0.00    +0.000 C 
ATOM      9  C   UNL     1       0.970   3.101  19.011  0.00  0.00    +0.000 C 
ATOM     10  C   UNL     1       2.458   2.783  18.859  0.00  0.00    +0.000 C 
ATOM     11  C   UNL     1       4.817   3.721  18.803  0.00  0.00    +0.000 C 
ATOM     12  O   UNL     1       5.481   2.969  19.501  0.00  0.00    +0.000 OA
ATOM     13  H   UNL     1       2.338   5.531  17.697  0.00  0.00    +0.000 HD
ENDROOT
BRANCH   1  14
ATOM     14  C   UNL     1       6.701   4.505  17.379  0.00  0.00    +0.000 C 
BRANCH  14  20
ATOM     15  C   UNL     1       9.098  11.489  18.222  0.00  0.00    +0.000 C 
ATOM     16  C   UNL     1       8.706  10.069  18.226  0.00  0.00    +0.000 A 
ATOM     17  C   UNL     1       7.957   9.261  17.404  0.00  0.00    +0.000 A 
ATOM     18  C   UNL     1       7.998   7.980  18.017  0.00  0.00    +0.000 A 
ATOM     19  N   UNL     1       7.373   6.845  17.525  0.00  0.00    +0.000 N 
ATOM     20  C   UNL     1       7.430   5.608  18.146  0.00  0.00    +0.000 C 
ATOM     21  O   UNL     1       7.954   5.361  19.230  0.00  0.00    +0.000 OA
ATOM     22  N   UNL     1       8.738   8.031  19.131  0.00  0.00    +0.000 NA
ATOM     23  O   UNL     1       9.170   9.327  19.263  0.00  0.00    +0.000 OA
ATOM     24  H   UNL     1       6.793   6.964  16.702  0.00  0.00    +0.000 HD
ENDBRANCH  14  20
ENDBRANCH   1  14
TORSDOF 2
ENDMDL
MODEL 5
REMARK VINA RESULT:      -8.3      3.395      5.397
REMARK  Name = 
REMARK  3 active torsions:
REMARK  status: ('A' for Active; 'I' for Inactive)
REMARK    1  A    between atoms: C_1  and  C_2
REMARK    2  A    between atoms: C_6  and  C_8
REMARK    3  A    between atoms: C_8  and  N_9
REMARK                            x       y       z     vdW  Elec       q    Type
REMARK                         _______ _______ _______ _____ _____    ______ ____
ROOT
ATOM      1  N   UNL     1       5.733   5.963  17.792  0.00  0.00    +0.000 N 
ATOM      2  C   UNL     1       5.885   4.820  18.511  0.00  0.00    +0.000 C 
ATOM      3  O   UNL     1       6.851   4.073  18.537  0.00  0.00    +0.000 OA
ATOM      4  N   UNL     1       4.703   4.553  19.159  0.00  0.00    +0.000 N 
ATOM      5  C   UNL     1       3.610   5.350  18.644  0.00  0.00    +0.000 C 
ATOM      6  C   UNL     1       2.669   4.479  17.802  0.00  0.00    +0.000 C 
ATOM      7  C   UNL     1       1.880   3.502  18.681  0.00  0.00    +0.000 C 
ATOM      8  C   UNL     1       1.145   4.215  19.815  0.00  0.00    +0.000 C 
ATOM      9  C   UNL     1       2.066   5.120  20.632  0.00  0.00    +0.000 C 
ATOM     10  C   UNL     1       2.850   6.087  19.745  0.00  0.00    +0.000 C 
ATOM     11  C   UNL     1       4.416   6.327  17.760  0.00  0.00    +0.000 C 
ATOM     12  O   UNL     1       3.961   7.249  17.099  0.00  0.00    +0.000 OA
ATOM     13  H   UNL     1       4.601   3.670  19.645  0.00  0.00    +0.000 HD
ENDROOT
BRANCH   1  14
ATOM     14  C   UNL     1       6.771   6.582  16.998  0.00  0.00    +0.000 C 
BRANCH  14  20
ATOM     15  C   UNL     1       9.875  13.071  18.863  0.00  0.00    +0.000 C 
ATOM     16  C   UNL     1       9.354  11.712  18.646  0.00  0.00    +0.000 A 
ATOM     17  C   UNL     1       8.466  11.135  17.769  0.00  0.00    +0.000 A 
ATOM     18  C   UNL     1       8.437   9.762  18.129  0.00  0.00    +0.000 A 
ATOM     19  N   UNL     1       7.669   8.793  17.502  0.00  0.00    +0.000 N 
ATOM     20  C   UNL     1       7.661   7.460  17.878  0.00  0.00    +0.000 C 
ATOM     21  O   UNL     1       8.247   6.970  18.842  0.00  0.00    +0.000 OA
ATOM     22  N   UNL     1       9.269   9.542  19.155  0.00  0.00    +0.000 NA
ATOM     23  O   UNL     1       9.830  10.751  19.479  0.00  0.00    +0.000 OA
ATOM     24  H   UNL     1       7.037   9.110  16.777  0.00  0.00    +0.000 HD
ENDBRANCH  14  20
ENDBRANCH   1  14
TORSDOF 2
ENDMDL
MODEL 6
REMARK VINA RESULT:      -8.1      2.962      4.762
REMARK  Name = 
REMARK  3 active torsions:
REMARK  status: ('A' for Active; 'I' for Inactive)
REMARK    1  A    between atoms: C_1  and  C_2
REMARK    2  A    between atoms: C_6  and  C_8
REMARK    3  A    between atoms: C_8  and  N_9
REMARK                            x       y       z     vdW  Elec       q    Type
REMARK                         _______ _______ _______ _____ _____    ______ ____
ROOT
ATOM      1  N   UNL     1       6.120   4.472  17.730  0.00  0.00    +0.000 N 
ATOM      2  C   UNL     1       5.516   3.902  16.655  0.00  0.00    +0.000 C 
ATOM      3  O   UNL     1       5.926   3.849  15.505  0.00  0.00    +0.000 OA
ATOM      4  N   UNL     1       4.272   3.462  17.036  0.00  0.00    +0.000 N 
ATOM      5  C   UNL     1       3.874   4.005  18.317  0.00  0.00    +0.000 C 
ATOM      6  C   UNL     1       2.793   5.077  18.126  0.00  0.00    +0.000 C 
ATOM      7  C   UNL     1       1.463   4.454  17.689  0.00  0.00    +0.000 C 
ATOM      8  C   UNL     1       1.011   3.343  18.635  0.00  0.00    +0.000 C 
ATOM      9  C   UNL     1       2.097   2.294  18.867  0.00  0.00    +0.000 C 
ATOM     10  C   UNL     1       3.420   2.926  19.298  0.00  0.00    +0.000 C 
ATOM     11  C   UNL     1       5.219   4.631  18.746  0.00  0.00    +0.000 C 
ATOM     12  O   UNL     1       5.445   5.216  19.796  0.00  0.00    +0.000 OA
ATOM     13  H   UNL     1       3.635   3.119  16.326  0.00  0.00    +0.000 HD
ENDROOT
BRANCH   1  14
ATOM     14  C   UNL     1       7.455   5.027  17.728  0.00  0.00    +0.000 C 
BRANCH  14  20
ATOM     15  C   UNL     1       9.347  12.094  19.033  0.00  0.00    +0.000 C 
ATOM     16  C   UNL     1       8.867  10.763  18.627  0.00  0.00    +0.000 A 
ATOM     17  C   UNL     1       9.104   9.473  19.039  0.00  0.00    +0.000 A 
ATOM     18  C   UNL     1       8.290   8.667  18.198  0.00  0.00    +0.000 A 
ATOM     19  N   UNL     1       8.209   7.285  18.261  0.00  0.00    +0.000 N 
ATOM     20  C   UNL     1       7.407   6.525  17.426  0.00  0.00    +0.000 C 
ATOM     21  O   UNL     1       6.736   6.941  16.483  0.00  0.00    +0.000 OA
ATOM     22  N   UNL     1       7.607   9.441  17.346  0.00  0.00    +0.000 NA
ATOM     23  O   UNL     1       7.971  10.738  17.608  0.00  0.00    +0.000 OA
ATOM     24  H   UNL     1       8.829   6.820  18.915  0.00  0.00    +0.000 HD
ENDBRANCH  14  20
ENDBRANCH   1  14
TORSDOF 2
ENDMDL
MODEL 7
REMARK VINA RESULT:      -8.1      2.699      4.443
REMARK  Name = 
REMARK  3 active torsions:
REMARK  status: ('A' for Active; 'I' for Inactive)
REMARK    1  A    between atoms: C_1  and  C_2
REMARK    2  A    between atoms: C_6  and  C_8
REMARK    3  A    between atoms: C_8  and  N_9
REMARK                            x       y       z     vdW  Elec       q    Type
REMARK                         _______ _______ _______ _____ _____    ______ ____
ROOT
ATOM      1  N   UNL     1       5.625   4.294  17.747  0.00  0.00    +0.000 N 
ATOM      2  C   UNL     1       4.482   4.020  17.066  0.00  0.00    +0.000 C 
ATOM      3  O   UNL     1       4.281   4.122  15.865  0.00  0.00    +0.000 OA
ATOM      4  N   UNL     1       3.502   3.692  17.972  0.00  0.00    +0.000 N 
ATOM      5  C   UNL     1       3.878   4.041  19.326  0.00  0.00    +0.000 C 
ATOM      6  C   UNL     1       3.086   5.267  19.796  0.00  0.00    +0.000 C 
ATOM      7  C   UNL     1       1.609   4.924  20.021  0.00  0.00    +0.000 C 
ATOM      8  C   UNL     1       1.434   3.731  20.959  0.00  0.00    +0.000 C 
ATOM      9  C   UNL     1       2.254   2.518  20.524  0.00  0.00    +0.000 C 
ATOM     10  C   UNL     1       3.724   2.873  20.298  0.00  0.00    +0.000 C 
ATOM     11  C   UNL     1       5.364   4.387  19.086  0.00  0.00    +0.000 C 
ATOM     12  O   UNL     1       6.173   4.732  19.934  0.00  0.00    +0.000 OA
ATOM     13  H   UNL     1       2.551   3.576  17.643  0.00  0.00    +0.000 HD
ENDROOT
BRANCH   1  14
ATOM     14  C   UNL     1       6.884   4.652  17.134  0.00  0.00    +0.000 C 
BRANCH  14  20
ATOM     15  C   UNL     1       9.467  11.264  19.333  0.00  0.00    +0.000 C 
ATOM     16  C   UNL     1       8.864  10.051  18.757  0.00  0.00    +0.000 A 
ATOM     17  C   UNL     1       8.948   8.703  19.013  0.00  0.00    +0.000 A 
ATOM     18  C   UNL     1       8.083   8.097  18.063  0.00  0.00    +0.000 A 
ATOM     19  N   UNL     1       7.854   6.734  17.955  0.00  0.00    +0.000 N 
ATOM     20  C   UNL     1       7.006   6.171  17.016  0.00  0.00    +0.000 C 
ATOM     21  O   UNL     1       6.416   6.767  16.117  0.00  0.00    +0.000 OA
ATOM     22  N   UNL     1       7.516   9.036  17.298  0.00  0.00    +0.000 NA
ATOM     23  O   UNL     1       8.005  10.246  17.723  0.00  0.00    +0.000 OA
ATOM     24  H   UNL     1       8.399   6.130  18.560  0.00  0.00    +0.000 HD
ENDBRANCH  14  20
ENDBRANCH   1  14
TORSDOF 2
ENDMDL
MODEL 8
REMARK VINA RESULT:      -7.9      2.838      4.737
REMARK  Name = 
REMARK  3 active torsions:
REMARK  status: ('A' for Active; 'I' for Inactive)
REMARK    1  A    between atoms: C_1  and  C_2
REMARK    2  A    between atoms: C_6  and  C_8
REMARK    3  A    between atoms: C_8  and  N_9
REMARK                            x       y       z     vdW  Elec       q    Type
REMARK                         _______ _______ _______ _____ _____    ______ ____
ROOT
ATOM      1  N   UNL     1       5.762   4.568  17.776  0.00  0.00    +0.000 N 
ATOM      2  C   UNL     1       5.453   4.554  19.099  0.00  0.00    +0.000 C 
ATOM      3  O   UNL     1       6.196   4.767  20.046  0.00  0.00    +0.000 OA
ATOM      4  N   UNL     1       4.148   4.148  19.239  0.00  0.00    +0.000 N 
ATOM      5  C   UNL     1       3.627   3.572  18.017  0.00  0.00    +0.000 C 
ATOM      6  C   UNL     1       3.504   2.049  18.159  0.00  0.00    +0.000 C 
ATOM      7  C   UNL     1       2.373   1.671  19.122  0.00  0.00    +0.000 C 
ATOM      8  C   UNL     1       1.047   2.322  18.735  0.00  0.00    +0.000 C 
ATOM      9  C   UNL     1       1.170   3.833  18.548  0.00  0.00    +0.000 C 
ATOM     10  C   UNL     1       2.302   4.200  17.589  0.00  0.00    +0.000 C 
ATOM     11  C   UNL     1       4.774   3.957  17.056  0.00  0.00    +0.000 C 
ATOM     12  O   UNL     1       4.825   3.722  15.858  0.00  0.00    +0.000 OA
ATOM     13  H   UNL     1       3.789   3.964  20.167  0.00  0.00    +0.000 HD
ENDROOT
BRANCH   1  14
ATOM     14  C   UNL     1       7.039   4.970  17.232  0.00  0.00    +0.000 C 
BRANCH  14  20
ATOM     15  C   UNL     1       9.519  11.677  19.256  0.00  0.00    +0.000 C 
ATOM     16  C   UNL     1       8.926  10.441  18.719  0.00  0.00    +0.000 A 
ATOM     17  C   UNL     1       9.067   9.099  18.978  0.00  0.00    +0.000 A 
ATOM     18  C   UNL     1       8.174   8.458  18.078  0.00  0.00    +0.000 A 
ATOM     19  N   UNL     1       7.984   7.088  17.990  0.00  0.00    +0.000 N 
ATOM     20  C   UNL     1       7.106   6.492  17.100  0.00  0.00    +0.000 C 
ATOM     21  O   UNL     1       6.450   7.062  16.230  0.00  0.00    +0.000 OA
ATOM     22  N   UNL     1       7.537   9.374  17.339  0.00  0.00    +0.000 NA
ATOM     23  O   UNL     1       8.009  10.601  17.731  0.00  0.00    +0.000 OA
ATOM     24  H   UNL     1       8.578   6.506  18.569  0.00  0.00    +0.000 HD
ENDBRANCH  14  20
ENDBRANCH   1  14
TORSDOF 2
ENDMDL
MODEL 9
REMARK VINA RESULT:      -7.9      1.594      6.247
REMARK  Name = 
REMARK  3 active torsions:
REMARK  status: ('A' for Active; 'I' for Inactive)
REMARK    1  A    between atoms: C_1  and  C_2
REMARK    2  A    between atoms: C_6  and  C_8
REMARK    3  A    between atoms: C_8  and  N_9
REMARK                            x       y       z     vdW  Elec       q    Type
REMARK                         _______ _______ _______ _____ _____    ______ ____
ROOT
ATOM      1  N   UNL     1       6.455   5.964  16.715  0.00  0.00    +0.000 N 
ATOM      2  C   UNL     1       5.520   6.452  15.858  0.00  0.00    +0.000 C 
ATOM      3  O   UNL     1       4.520   7.100  16.128  0.00  0.00    +0.000 OA
ATOM      4  N   UNL     1       5.815   6.008  14.591  0.00  0.00    +0.000 N 
ATOM      5  C   UNL     1       6.793   4.941  14.605  0.00  0.00    +0.000 C 
ATOM      6  C   UNL     1       6.119   3.600  14.288  0.00  0.00    +0.000 C 
ATOM      7  C   UNL     1       5.686   3.530  12.819  0.00  0.00    +0.000 C 
ATOM      8  C   UNL     1       6.839   3.835  11.865  0.00  0.00    +0.000 C 
ATOM      9  C   UNL     1       7.545   5.147  12.201  0.00  0.00    +0.000 C 
ATOM     10  C   UNL     1       7.969   5.209  13.669  0.00  0.00    +0.000 C 
ATOM     11  C   UNL     1       7.220   5.020  16.088  0.00  0.00    +0.000 C 
ATOM     12  O   UNL     1       8.066   4.329  16.636  0.00  0.00    +0.000 OA
ATOM     13  H   UNL     1       5.151   6.178  13.846  0.00  0.00    +0.000 HD
ENDROOT
BRANCH   1  14
ATOM     14  C   UNL     1       6.496   6.239  18.133  0.00  0.00    +0.000 C 
BRANCH  14  20
ATOM     15  C   UNL     1       0.406   2.088  19.081  0.00  0.00    +0.000 C 
ATOM     16  C   UNL     1       1.677   2.830  19.057  0.00  0.00    +0.000 A 
ATOM     17  C   UNL     1       2.280   3.705  18.185  0.00  0.00    +0.000 A 
ATOM     18  C   UNL     1       3.513   4.043  18.803  0.00  0.00    +0.000 A 
ATOM     19  N   UNL     1       4.455   4.910  18.271  0.00  0.00    +0.000 N 
ATOM     20  C   UNL     1       5.652   5.219  18.897  0.00  0.00    +0.000 C 
ATOM     21  O   UNL     1       6.080   4.723  19.938  0.00  0.00    +0.000 OA
ATOM     22  N   UNL     1       3.625   3.409  19.976  0.00  0.00    +0.000 NA
ATOM     23  O   UNL     1       2.490   2.652  20.129  0.00  0.00    +0.000 OA
ATOM     24  H   UNL     1       4.269   5.274  17.344  0.00  0.00    +0.000 HD
ENDBRANCH  14  20
ENDBRANCH   1  14
TORSDOF 2
ENDMDL
