MODEL 1
REMARK VINA RESULT:      -8.5      0.000      0.000
REMARK  Name = 
REMARK  3 active torsions:
REMARK  status: ('A' for Active; 'I' for Inactive)
REMARK    1  A    between atoms: C_2  and  C_4
REMARK    2  A    between atoms: C_9  and  C_10
REMARK    3  A    between atoms: C_17  and  N_18
REMARK                            x       y       z     vdW  Elec       q    Type
REMARK                         _______ _______ _______ _____ _____    ______ ____
ROOT
ATOM      1  C   UNL     1       6.050   4.311  16.082  0.00  0.00    +0.000 A 
ATOM      2  C   UNL     1       4.669   4.123  16.087  0.00  0.00    +0.000 A 
ATOM      3  C   UNL     1       4.002   3.943  17.303  0.00  0.00    +0.000 A 
ATOM      4  C   UNL     1       2.625   3.703  17.353  0.00  0.00    +0.000 A 
ATOM      5  C   UNL     1       2.009   3.524  18.584  0.00  0.00    +0.000 A 
ATOM      6  C   UNL     1       2.787   3.605  19.734  0.00  0.00    +0.000 A 
ATOM      7  N   UNL     1       4.132   3.837  19.676  0.00  0.00    +0.000 NA
ATOM      8  C   UNL     1       4.736   3.994  18.498  0.00  0.00    +0.000 A 
ATOM      9  N   UNL     1       6.057   4.193  18.486  0.00  0.00    +0.000 NA
ATOM     10  C   UNL     1       6.703   4.345  17.311  0.00  0.00    +0.000 A 
ENDROOT
BRANCH   1  12
ATOM     11  N   UNL     1       6.336   3.581  13.775  0.00  0.00    +0.000 N 
ATOM     12  C   UNL     1       6.717   4.441  14.764  0.00  0.00    +0.000 C 
ATOM     13  O   UNL     1       7.547   5.316  14.557  0.00  0.00    +0.000 OA
ATOM     14  H   UNL     1       6.705   3.727  12.845  0.00  0.00    +0.000 HD
ATOM     15  H   UNL     1       5.571   2.926  13.908  0.00  0.00    +0.000 HD
ENDBRANCH   1  12
BRANCH   6  16
ATOM     16  C   UNL     1       2.134   3.441  21.101  0.00  0.00    +0.000 C 
ATOM     17  F   UNL     1       2.571   2.331  21.771  0.00  0.00    +0.000 F 
ATOM     18  F   UNL     1       2.374   4.485  21.943  0.00  0.00    +0.000 F 
ATOM     19  F   UNL     1       0.780   3.307  21.034  0.00  0.00    +0.000 F 
ENDBRANCH   6  16
BRANCH  10  20
ATOM     20  N   UNL     1       8.087   4.509  17.438  0.00  0.00    +0.000 N 
ATOM     21  H   UNL     1       8.367   5.181  16.722  0.00  0.00    +0.000 HD
ATOM     22  H   UNL     1       8.574   3.624  17.320  0.00  0.00    +0.000 HD
ENDBRANCH  10  20
TORSDOF 3
ENDMDL
MODEL 2
REMARK VINA RESULT:      -8.2      1.272      1.513
REMARK  Name = 
REMARK  3 active torsions:
REMARK  status: ('A' for Active; 'I' for Inactive)
REMARK    1  A    between atoms: C_2  and  C_4
REMARK    2  A    between atoms: C_9  and  C_10
REMARK    3  A    between atoms: C_17  and  N_18
REMARK                            x       y       z     vdW  Elec       q    Type
REMARK                         _______ _______ _______ _____ _____    ______ ____
ROOT
ATOM      1  C   UNL     1       5.997   4.954  15.782  0.00  0.00    +0.000 A 
ATOM      2  C   UNL     1       4.829   4.205  15.916  0.00  0.00    +0.000 A 
ATOM      3  C   UNL     1       4.042   4.353  17.062  0.00  0.00    +0.000 A 
ATOM      4  C   UNL     1       2.889   3.587  17.262  0.00  0.00    +0.000 A 
ATOM      5  C   UNL     1       2.145   3.766  18.420  0.00  0.00    +0.000 A 
ATOM      6  C   UNL     1       2.567   4.718  19.342  0.00  0.00    +0.000 A 
ATOM      7  N   UNL     1       3.697   5.461  19.140  0.00  0.00    +0.000 NA
ATOM      8  C   UNL     1       4.428   5.285  18.039  0.00  0.00    +0.000 A 
ATOM      9  N   UNL     1       5.538   6.012  17.894  0.00  0.00    +0.000 NA
ATOM     10  C   UNL     1       6.309   5.854  16.798  0.00  0.00    +0.000 A 
ENDROOT
BRANCH   1  12
ATOM     11  N   UNL     1       6.497   3.658  13.780  0.00  0.00    +0.000 N 
ATOM     12  C   UNL     1       6.824   4.719  14.574  0.00  0.00    +0.000 C 
ATOM     13  O   UNL     1       7.740   5.475  14.276  0.00  0.00    +0.000 OA
ATOM     14  H   UNL     1       6.985   3.550  12.901  0.00  0.00    +0.000 HD
ATOM     15  H   UNL     1       5.672   3.095  13.962  0.00  0.00    +0.000 HD
ENDBRANCH   1  12
BRANCH   6  16
ATOM     16  C   UNL     1       1.755   4.957  20.608  0.00  0.00    +0.000 C 
ATOM     17  F   UNL     1       0.551   4.306  20.601  0.00  0.00    +0.000 F 
ATOM     18  F   UNL     1       2.384   4.533  21.740  0.00  0.00    +0.000 F 
ATOM     19  F   UNL     1       1.451   6.269  20.809  0.00  0.00    +0.000 F 
ENDBRANCH   6  16
BRANCH  10  20
ATOM     20  N   UNL     1       7.460   6.650  16.789  0.00  0.00    +0.000 N 
ATOM     21  H   UNL     1       7.768   6.725  17.759  0.00  0.00    +0.000 HD
ATOM     22  H   UNL     1       7.268   7.567  16.393  0.00  0.00    +0.000 HD
ENDBRANCH  10  20
TORSDOF 3
ENDMDL
MODEL 3
REMARK VINA RESULT:      -7.9      1.261      1.614
REMARK  Name = 
REMARK  3 active torsions:
REMARK  status: ('A' for Active; 'I' for Inactive)
REMARK    1  A    between atoms: C_2  and  C_4
REMARK    2  A    between atoms: C_9  and  C_10
REMARK    3  A    between atoms: C_17  and  N_18
REMARK                            x       y       z     vdW  Elec       q    Type
REMARK                         _______ _______ _______ _____ _____    ______ ____
ROOT
ATOM      1  C   UNL     1       5.824   4.783  15.945  0.00  0.00    +0.000 A 
ATOM      2  C   UNL     1       4.976   3.714  16.227  0.00  0.00    +0.000 A 
ATOM      3  C   UNL     1       4.147   3.770  17.352  0.00  0.00    +0.000 A 
ATOM      4  C   UNL     1       3.315   2.700  17.701  0.00  0.00    +0.000 A 
ATOM      5  C   UNL     1       2.516   2.801  18.831  0.00  0.00    +0.000 A 
ATOM      6  C   UNL     1       2.559   3.976  19.575  0.00  0.00    +0.000 A 
ATOM      7  N   UNL     1       3.377   5.015  19.228  0.00  0.00    +0.000 NA
ATOM      8  C   UNL     1       4.161   4.922  18.154  0.00  0.00    +0.000 A 
ATOM      9  N   UNL     1       4.964   5.949  17.866  0.00  0.00    +0.000 NA
ATOM     10  C   UNL     1       5.779   5.887  16.792  0.00  0.00    +0.000 A 
ENDROOT
BRANCH   1  12
ATOM     11  N   UNL     1       6.406   3.710  13.836  0.00  0.00    +0.000 N 
ATOM     12  C   UNL     1       6.723   4.651  14.773  0.00  0.00    +0.000 C 
ATOM     13  O   UNL     1       7.689   5.388  14.628  0.00  0.00    +0.000 OA
ATOM     14  H   UNL     1       6.948   3.681  12.983  0.00  0.00    +0.000 HD
ATOM     15  H   UNL     1       5.546   3.172  13.895  0.00  0.00    +0.000 HD
ENDBRANCH   1  12
BRANCH   6  16
ATOM     16  C   UNL     1       1.672   4.126  20.804  0.00  0.00    +0.000 C 
ATOM     17  F   UNL     1       0.957   5.292  20.807  0.00  0.00    +0.000 F 
ATOM     18  F   UNL     1       0.743   3.136  20.923  0.00  0.00    +0.000 F 
ATOM     19  F   UNL     1       2.374   4.134  21.972  0.00  0.00    +0.000 F 
ENDBRANCH   6  16
BRANCH  10  20
ATOM     20  N   UNL     1       6.592   7.013  16.626  0.00  0.00    +0.000 N 
ATOM     21  H   UNL     1       7.504   6.774  17.019  0.00  0.00    +0.000 HD
ATOM     22  H   UNL     1       6.195   7.825  17.093  0.00  0.00    +0.000 HD
ENDBRANCH  10  20
TORSDOF 3
ENDMDL
MODEL 4
REMARK VINA RESULT:      -7.8      0.853      1.277
REMARK  Name = 
REMARK  3 active torsions:
REMARK  status: ('A' for Active; 'I' for Inactive)
REMARK    1  A    between atoms: C_2  and  C_4
REMARK    2  A    between atoms: C_9  and  C_10
REMARK    3  A    between atoms: C_17  and  N_18
REMARK                            x       y       z     vdW  Elec       q    Type
REMARK                         _______ _______ _______ _____ _____    ______ ____
ROOT
ATOM      1  C   UNL     1       6.032   4.362  16.154  0.00  0.00    +0.000 A 
ATOM      2  C   UNL     1       4.642   4.282  16.100  0.00  0.00    +0.000 A 
ATOM      3  C   UNL     1       3.917   4.081  17.279  0.00  0.00    +0.000 A 
ATOM      4  C   UNL     1       2.524   3.945  17.266  0.00  0.00    +0.000 A 
ATOM      5  C   UNL     1       1.850   3.739  18.462  0.00  0.00    +0.000 A 
ATOM      6  C   UNL     1       2.586   3.691  19.641  0.00  0.00    +0.000 A 
ATOM      7  N   UNL     1       3.947   3.822  19.644  0.00  0.00    +0.000 NA
ATOM      8  C   UNL     1       4.606   4.002  18.500  0.00  0.00    +0.000 A 
ATOM      9  N   UNL     1       5.937   4.099  18.544  0.00  0.00    +0.000 NA
ATOM     10  C   UNL     1       6.638   4.272  17.404  0.00  0.00    +0.000 A 
ENDROOT
BRANCH   1  12
ATOM     11  N   UNL     1       7.665   5.535  14.777  0.00  0.00    +0.000 N 
ATOM     12  C   UNL     1       6.757   4.520  14.870  0.00  0.00    +0.000 C 
ATOM     13  O   UNL     1       6.579   3.742  13.942  0.00  0.00    +0.000 OA
ATOM     14  H   UNL     1       8.241   5.589  13.948  0.00  0.00    +0.000 HD
ATOM     15  H   UNL     1       7.896   6.113  15.579  0.00  0.00    +0.000 HD
ENDBRANCH   1  12
BRANCH   6  16
ATOM     16  C   UNL     1       1.871   3.495  20.972  0.00  0.00    +0.000 C 
ATOM     17  F   UNL     1       1.375   4.662  21.488  0.00  0.00    +0.000 F 
ATOM     18  F   UNL     1       0.800   2.656  20.890  0.00  0.00    +0.000 F 
ATOM     19  F   UNL     1       2.679   2.989  21.945  0.00  0.00    +0.000 F 
ENDBRANCH   6  16
BRANCH  10  20
ATOM     20  N   UNL     1       8.024   4.321  17.589  0.00  0.00    +0.000 N 
ATOM     21  H   UNL     1       8.290   3.439  18.029  0.00  0.00    +0.000 HD
ATOM     22  H   UNL     1       8.290   5.114  18.169  0.00  0.00    +0.000 HD
ENDBRANCH  10  20
TORSDOF 3
ENDMDL
MODEL 5
REMARK VINA RESULT:      -7.6      2.320      2.434
REMARK  Name = 
REMARK  3 active torsions:
REMARK  status: ('A' for Active; 'I' for Inactive)
REMARK    1  A    between atoms: C_2  and  C_4
REMARK    2  A    between atoms: C_9  and  C_10
REMARK    3  A    between atoms: C_17  and  N_18
REMARK                            x       y       z     vdW  Elec       q    Type
REMARK                         _______ _______ _______ _____ _____    ______ ____
ROOT
ATOM      1  C   UNL     1       6.426   6.254  18.026  0.00  0.00    +0.000 A 
ATOM      2  C   UNL     1       5.123   6.254  17.533  0.00  0.00    +0.000 A 
ATOM      3  C   UNL     1       4.152   5.458  18.150  0.00  0.00    +0.000 A 
ATOM      4  C   UNL     1       2.844   5.389  17.660  0.00  0.00    +0.000 A 
ATOM      5  C   UNL     1       1.918   4.579  18.303  0.00  0.00    +0.000 A 
ATOM      6  C   UNL     1       2.323   3.870  19.429  0.00  0.00    +0.000 A 
ATOM      7  N   UNL     1       3.604   3.941  19.899  0.00  0.00    +0.000 NA
ATOM      8  C   UNL     1       4.506   4.703  19.280  0.00  0.00    +0.000 A 
ATOM      9  N   UNL     1       5.753   4.723  19.756  0.00  0.00    +0.000 NA
ATOM     10  C   UNL     1       6.694   5.475  19.148  0.00  0.00    +0.000 A 
ENDROOT
BRANCH   1  12
ATOM     11  N   UNL     1       7.813   8.252  17.871  0.00  0.00    +0.000 N 
ATOM     12  C   UNL     1       7.430   7.072  17.303  0.00  0.00    +0.000 C 
ATOM     13  O   UNL     1       7.929   6.682  16.254  0.00  0.00    +0.000 OA
ATOM     14  H   UNL     1       8.571   8.766  17.443  0.00  0.00    +0.000 HD
ATOM     15  H   UNL     1       7.485   8.526  18.792  0.00  0.00    +0.000 HD
ENDBRANCH   1  12
BRANCH   6  16
ATOM     16  C   UNL     1       1.322   2.995  20.173  0.00  0.00    +0.000 C 
ATOM     17  F   UNL     1       1.836   1.777  20.525  0.00  0.00    +0.000 F 
ATOM     18  F   UNL     1       0.881   3.549  21.337  0.00  0.00    +0.000 F 
ATOM     19  F   UNL     1       0.209   2.714  19.438  0.00  0.00    +0.000 F 
ENDBRANCH   6  16
BRANCH  10  20
ATOM     20  N   UNL     1       7.965   5.377  19.727  0.00  0.00    +0.000 N 
ATOM     21  H   UNL     1       8.476   6.215  19.448  0.00  0.00    +0.000 HD
ATOM     22  H   UNL     1       8.445   4.535  19.418  0.00  0.00    +0.000 HD
ENDBRANCH  10  20
TORSDOF 3
ENDMDL
MODEL 6
REMARK VINA RESULT:      -7.6      1.989      2.401
REMARK  Name = 
REMARK  3 active torsions:
REMARK  status: ('A' for Active; 'I' for Inactive)
REMARK    1  A    between atoms: C_2  and  C_4
REMARK    2  A    between atoms: C_9  and  C_10
REMARK    3  A    between atoms: C_17  and  N_18
REMARK                            x       y       z     vdW  Elec       q    Type
REMARK                         _______ _______ _______ _____ _____    ______ ____
ROOT
ATOM      1  C   UNL     1       6.259   5.994  17.615  0.00  0.00    +0.000 A 
ATOM      2  C   UNL     1       4.916   6.365  17.621  0.00  0.00    +0.000 A 
ATOM      3  C   UNL     1       3.969   5.517  18.205  0.00  0.00    +0.000 A 
ATOM      4  C   UNL     1       2.605   5.825  18.191  0.00  0.00    +0.000 A 
ATOM      5  C   UNL     1       1.703   4.948  18.778  0.00  0.00    +0.000 A 
ATOM      6  C   UNL     1       2.193   3.792  19.377  0.00  0.00    +0.000 A 
ATOM      7  N   UNL     1       3.528   3.498  19.384  0.00  0.00    +0.000 NA
ATOM      8  C   UNL     1       4.400   4.325  18.809  0.00  0.00    +0.000 A 
ATOM      9  N   UNL     1       5.692   3.986  18.815  0.00  0.00    +0.000 NA
ATOM     10  C   UNL     1       6.603   4.794  18.233  0.00  0.00    +0.000 A 
ENDROOT
BRANCH   1  12
ATOM     11  N   UNL     1       7.361   8.160  17.441  0.00  0.00    +0.000 N 
ATOM     12  C   UNL     1       7.215   6.901  16.935  0.00  0.00    +0.000 C 
ATOM     13  O   UNL     1       7.881   6.520  15.980  0.00  0.00    +0.000 OA
ATOM     14  H   UNL     1       8.084   8.751  17.053  0.00  0.00    +0.000 HD
ATOM     15  H   UNL     1       6.895   8.444  18.296  0.00  0.00    +0.000 HD
ENDBRANCH   1  12
BRANCH   6  16
ATOM     16  C   UNL     1       1.230   2.825  20.054  0.00  0.00    +0.000 C 
ATOM     17  F   UNL     1       0.041   2.703  19.388  0.00  0.00    +0.000 F 
ATOM     18  F   UNL     1       1.719   1.557  20.151  0.00  0.00    +0.000 F 
ATOM     19  F   UNL     1       0.894   3.203  21.319  0.00  0.00    +0.000 F 
ENDBRANCH   6  16
BRANCH  10  20
ATOM     20  N   UNL     1       7.913   4.304  18.279  0.00  0.00    +0.000 N 
ATOM     21  H   UNL     1       7.883   3.449  18.836  0.00  0.00    +0.000 HD
ATOM     22  H   UNL     1       8.546   4.986  18.689  0.00  0.00    +0.000 HD
ENDBRANCH  10  20
TORSDOF 3
ENDMDL
MODEL 7
REMARK VINA RESULT:      -7.6      2.203      2.461
REMARK  Name = 
REMARK  3 active torsions:
REMARK  status: ('A' for Active; 'I' for Inactive)
REMARK    1  A    between atoms: C_2  and  C_4
REMARK    2  A    between atoms: C_9  and  C_10
REMARK    3  A    between atoms: C_17  and  N_18
REMARK                            x       y       z     vdW  Elec       q    Type
REMARK                         _______ _______ _______ _____ _____    ______ ____
ROOT
ATOM      1  C   UNL     1       6.427   6.152  18.073  0.00  0.00    +0.000 A 
ATOM      2  C   UNL     1       5.160   6.089  17.497  0.00  0.00    +0.000 A 
ATOM      3  C   UNL     1       4.171   5.299  18.092  0.00  0.00    +0.000 A 
ATOM      4  C   UNL     1       2.900   5.166  17.523  0.00  0.00    +0.000 A 
ATOM      5  C   UNL     1       1.955   4.364  18.147  0.00  0.00    +0.000 A 
ATOM      6  C   UNL     1       2.302   3.727  19.334  0.00  0.00    +0.000 A 
ATOM      7  N   UNL     1       3.548   3.860  19.882  0.00  0.00    +0.000 NA
ATOM      8  C   UNL     1       4.468   4.614  19.282  0.00  0.00    +0.000 A 
ATOM      9  N   UNL     1       5.680   4.695  19.836  0.00  0.00    +0.000 NA
ATOM     10  C   UNL     1       6.640   5.441  19.251  0.00  0.00    +0.000 A 
ENDROOT
BRANCH   1  12
ATOM     11  N   UNL     1       7.790   6.593  16.102  0.00  0.00    +0.000 N 
ATOM     12  C   UNL     1       7.455   6.960  17.373  0.00  0.00    +0.000 C 
ATOM     13  O   UNL     1       7.954   7.946  17.900  0.00  0.00    +0.000 OA
ATOM     14  H   UNL     1       8.410   7.195  15.577  0.00  0.00    +0.000 HD
ATOM     15  H   UNL     1       7.301   5.845  15.620  0.00  0.00    +0.000 HD
ENDBRANCH   1  12
BRANCH   6  16
ATOM     16  C   UNL     1       1.277   2.864  20.057  0.00  0.00    +0.000 C 
ATOM     17  F   UNL     1       0.149   2.639  19.315  0.00  0.00    +0.000 F 
ATOM     18  F   UNL     1       1.745   1.625  20.380  0.00  0.00    +0.000 F 
ATOM     19  F   UNL     1       0.834   3.420  21.220  0.00  0.00    +0.000 F 
ENDBRANCH   6  16
BRANCH  10  20
ATOM     20  N   UNL     1       7.871   5.411  19.915  0.00  0.00    +0.000 N 
ATOM     21  H   UNL     1       8.461   4.753  19.403  0.00  0.00    +0.000 HD
ATOM     22  H   UNL     1       7.758   5.123  20.884  0.00  0.00    +0.000 HD
ENDBRANCH  10  20
TORSDOF 3
ENDMDL
MODEL 8
REMARK VINA RESULT:      -7.6      1.613      1.694
REMARK  Name = 
REMARK  3 active torsions:
REMARK  status: ('A' for Active; 'I' for Inactive)
REMARK    1  A    between atoms: C_2  and  C_4
REMARK    2  A    between atoms: C_9  and  C_10
REMARK    3  A    between atoms: C_17  and  N_18
REMARK                            x       y       z     vdW  Elec       q    Type
REMARK                         _______ _______ _______ _____ _____    ______ ____
ROOT
ATOM      1  C   UNL     1       6.293   5.583  17.457  0.00  0.00    +0.000 A 
ATOM      2  C   UNL     1       5.045   5.281  16.918  0.00  0.00    +0.000 A 
ATOM      3  C   UNL     1       4.069   4.689  17.726  0.00  0.00    +0.000 A 
ATOM      4  C   UNL     1       2.819   4.323  17.215  0.00  0.00    +0.000 A 
ATOM      5  C   UNL     1       1.887   3.732  18.056  0.00  0.00    +0.000 A 
ATOM      6  C   UNL     1       2.225   3.535  19.391  0.00  0.00    +0.000 A 
ATOM      7  N   UNL     1       3.450   3.893  19.881  0.00  0.00    +0.000 NA
ATOM      8  C   UNL     1       4.358   4.446  19.079  0.00  0.00    +0.000 A 
ATOM      9  N   UNL     1       5.552   4.756  19.592  0.00  0.00    +0.000 NA
ATOM     10  C   UNL     1       6.500   5.308  18.806  0.00  0.00    +0.000 A 
ENDROOT
BRANCH   1  12
ATOM     11  N   UNL     1       7.585   5.478  15.394  0.00  0.00    +0.000 N 
ATOM     12  C   UNL     1       7.310   6.159  16.545  0.00  0.00    +0.000 C 
ATOM     13  O   UNL     1       7.852   7.228  16.793  0.00  0.00    +0.000 OA
ATOM     14  H   UNL     1       8.197   5.912  14.715  0.00  0.00    +0.000 HD
ATOM     15  H   UNL     1       7.060   4.650  15.131  0.00  0.00    +0.000 HD
ENDBRANCH   1  12
BRANCH   6  16
ATOM     16  C   UNL     1       1.212   2.914  20.344  0.00  0.00    +0.000 C 
ATOM     17  F   UNL     1       1.664   1.762  20.928  0.00  0.00    +0.000 F 
ATOM     18  F   UNL     1       0.874   3.732  21.381  0.00  0.00    +0.000 F 
ATOM     19  F   UNL     1       0.043   2.570  19.733  0.00  0.00    +0.000 F 
ENDBRANCH   6  16
BRANCH  10  20
ATOM     20  N   UNL     1       7.713   5.549  19.460  0.00  0.00    +0.000 N 
ATOM     21  H   UNL     1       7.478   5.862  20.404  0.00  0.00    +0.000 HD
ATOM     22  H   UNL     1       8.262   6.250  18.969  0.00  0.00    +0.000 HD
ENDBRANCH  10  20
TORSDOF 3
ENDMDL
MODEL 9
REMARK VINA RESULT:      -7.3      1.699      1.858
REMARK  Name = 
REMARK  3 active torsions:
REMARK  status: ('A' for Active; 'I' for Inactive)
REMARK    1  A    between atoms: C_2  and  C_4
REMARK    2  A    between atoms: C_9  and  C_10
REMARK    3  A    between atoms: C_17  and  N_18
REMARK                            x       y       z     vdW  Elec       q    Type
REMARK                         _______ _______ _______ _____ _____    ______ ____
ROOT
ATOM      1  C   UNL     1       5.425   4.679  15.715  0.00  0.00    +0.000 A 
ATOM      2  C   UNL     1       4.998   3.484  16.291  0.00  0.00    +0.000 A 
ATOM      3  C   UNL     1       4.160   3.519  17.410  0.00  0.00    +0.000 A 
ATOM      4  C   UNL     1       3.746   2.346  18.050  0.00  0.00    +0.000 A 
ATOM      5  C   UNL     1       2.919   2.433  19.162  0.00  0.00    +0.000 A 
ATOM      6  C   UNL     1       2.516   3.692  19.595  0.00  0.00    +0.000 A 
ATOM      7  N   UNL     1       2.928   4.833  18.965  0.00  0.00    +0.000 NA
ATOM      8  C   UNL     1       3.735   4.761  17.907  0.00  0.00    +0.000 A 
ATOM      9  N   UNL     1       4.134   5.901  17.337  0.00  0.00    +0.000 NA
ATOM     10  C   UNL     1       4.960   5.868  16.271  0.00  0.00    +0.000 A 
ENDROOT
BRANCH   1  12
ATOM     11  N   UNL     1       7.574   5.195  14.688  0.00  0.00    +0.000 N 
ATOM     12  C   UNL     1       6.357   4.588  14.566  0.00  0.00    +0.000 C 
ATOM     13  O   UNL     1       6.063   3.956  13.559  0.00  0.00    +0.000 OA
ATOM     14  H   UNL     1       8.256   5.051  13.956  0.00  0.00    +0.000 HD
ATOM     15  H   UNL     1       7.865   5.626  15.560  0.00  0.00    +0.000 HD
ENDBRANCH   1  12
BRANCH   6  16
ATOM     16  C   UNL     1       1.586   3.817  20.795  0.00  0.00    +0.000 C 
ATOM     17  F   UNL     1       2.258   3.965  21.978  0.00  0.00    +0.000 F 
ATOM     18  F   UNL     1       0.751   4.891  20.720  0.00  0.00    +0.000 F 
ATOM     19  F   UNL     1       0.790   2.725  20.970  0.00  0.00    +0.000 F 
ENDBRANCH   6  16
BRANCH  10  20
ATOM     20  N   UNL     1       5.329   7.131  15.795  0.00  0.00    +0.000 N 
ATOM     21  H   UNL     1       4.685   7.355  15.034  0.00  0.00    +0.000 HD
ATOM     22  H   UNL     1       6.293   7.134  15.471  0.00  0.00    +0.000 HD
ENDBRANCH  10  20
TORSDOF 3
ENDMDL
