MODEL 1
REMARK VINA RESULT:      -8.2      0.000      0.000
REMARK  Name = 
REMARK  6 active torsions:
REMARK  status: ('A' for Active; 'I' for Inactive)
REMARK    1  A    between atoms: C_1  and  C_2
REMARK    2  A    between atoms: C_2  and  C_3
REMARK    3  A    between atoms: C_5  and  N_6
REMARK    4  A    between atoms: N_6  and  C_7
REMARK    5  A    between atoms: C_7  and  N_9
REMARK    6  A    between atoms: N_9  and  C_10
REMARK                            x       y       z     vdW  Elec       q    Type
REMARK                         _______ _______ _______ _____ _____    ______ ____
ROOT
ATOM      1  C   UNL     1       7.772   6.659  17.869  0.00  0.00    +0.000 C 
ATOM      2  C   UNL     1       6.839   6.054  16.809  0.00  0.00    +0.000 C 
ATOM      3  C   UNL     1       5.699   7.054  16.554  0.00  0.00    +0.000 C 
ATOM      4  C   UNL     1       6.385   4.680  17.314  0.00  0.00    +0.000 C 
ATOM      5  C   UNL     1       5.480   3.960  16.311  0.00  0.00    +0.000 C 
ATOM      6  C   UNL     1       6.041   4.145  14.913  0.00  0.00    +0.000 A 
ATOM      7  C   UNL     1       5.571   3.358  13.849  0.00  0.00    +0.000 A 
ATOM      8  C   UNL     1       6.164   3.456  12.589  0.00  0.00    +0.000 A 
ATOM      9 CL   UNL     1       5.589   2.471  11.296  0.00  0.00    +0.000 Cl
ATOM     10  C   UNL     1       7.223   4.331  12.363  0.00  0.00    +0.000 A 
ATOM     11  C   UNL     1       7.680   5.134  13.405  0.00  0.00    +0.000 A 
ATOM     12  C   UNL     1       7.083   5.056  14.667  0.00  0.00    +0.000 A 
ATOM     13  O   UNL     1       7.610   5.901  15.607  0.00  0.00    +0.000 OA
ENDROOT
BRANCH   5  14
ATOM     14  N   UNL     1       4.072   4.372  16.408  0.00  0.00    +0.000 N 
ATOM     15  H   UNL     1       3.710   4.909  15.630  0.00  0.00    +0.000 HD
BRANCH  14  16
ATOM     16  C   UNL     1       3.320   4.444  17.572  0.00  0.00    +0.000 C 
ATOM     17  S   UNL     1       2.674   5.839  18.235  0.00  0.00    +0.000 S 
BRANCH  16  18
ATOM     18  N   UNL     1       3.246   3.202  18.182  0.00  0.00    +0.000 N 
ATOM     19  H   UNL     1       3.920   2.530  17.838  0.00  0.00    +0.000 HD
BRANCH  18  20
ATOM     20  C   UNL     1       2.688   2.937  19.456  0.00  0.00    +0.000 A 
ATOM     21  C   UNL     1       1.315   3.082  19.650  0.00  0.00    +0.000 A 
ATOM     22  C   UNL     1       0.774   2.880  20.919  0.00  0.00    +0.000 A 
ATOM     23  C   UNL     1       1.629   2.570  21.964  0.00  0.00    +0.000 A 
ATOM     24  N   UNL     1       2.964   2.438  21.821  0.00  0.00    +0.000 NA
ATOM     25  C   UNL     1       3.460   2.615  20.570  0.00  0.00    +0.000 A 
ENDBRANCH  18  20
ENDBRANCH  16  18
ENDBRANCH  14  16
ENDBRANCH   5  14
TORSDOF 4
ENDMDL
MODEL 2
REMARK VINA RESULT:      -8.1      1.887      2.317
REMARK  Name = 
REMARK  6 active torsions:
REMARK  status: ('A' for Active; 'I' for Inactive)
REMARK    1  A    between atoms: C_1  and  C_2
REMARK    2  A    between atoms: C_2  and  C_3
REMARK    3  A    between atoms: C_5  and  N_6
REMARK    4  A    between atoms: N_6  and  C_7
REMARK    5  A    between atoms: C_7  and  N_9
REMARK    6  A    between atoms: N_9  and  C_10
REMARK                            x       y       z     vdW  Elec       q    Type
REMARK                         _______ _______ _______ _____ _____    ______ ____
ROOT
ATOM      1  C   UNL     1       7.734   6.693  17.817  0.00  0.00    +0.000 C 
ATOM      2  C   UNL     1       6.815   6.005  16.796  0.00  0.00    +0.000 C 
ATOM      3  C   UNL     1       5.575   6.894  16.600  0.00  0.00    +0.000 C 
ATOM      4  C   UNL     1       6.516   4.593  17.310  0.00  0.00    +0.000 C 
ATOM      5  C   UNL     1       5.638   3.794  16.342  0.00  0.00    +0.000 C 
ATOM      6  C   UNL     1       6.116   4.036  14.923  0.00  0.00    +0.000 A 
ATOM      7  C   UNL     1       5.675   3.212  13.875  0.00  0.00    +0.000 A 
ATOM      8  C   UNL     1       6.197   3.370  12.590  0.00  0.00    +0.000 A 
ATOM      9 CL   UNL     1       5.660   2.340  11.317  0.00  0.00    +0.000 Cl
ATOM     10  C   UNL     1       7.158   4.342  12.323  0.00  0.00    +0.000 A 
ATOM     11  C   UNL     1       7.584   5.181  13.351  0.00  0.00    +0.000 A 
ATOM     12  C   UNL     1       7.055   5.042  14.637  0.00  0.00    +0.000 A 
ATOM     13  O   UNL     1       7.542   5.930  15.559  0.00  0.00    +0.000 OA
ENDROOT
BRANCH   5  14
ATOM     14  N   UNL     1       4.203   4.071  16.506  0.00  0.00    +0.000 N 
ATOM     15  H   UNL     1       3.865   4.930  16.091  0.00  0.00    +0.000 HD
BRANCH  14  16
ATOM     16  C   UNL     1       3.366   3.510  17.459  0.00  0.00    +0.000 C 
ATOM     17  S   UNL     1       3.606   2.043  18.230  0.00  0.00    +0.000 S 
BRANCH  16  18
ATOM     18  N   UNL     1       2.232   4.287  17.630  0.00  0.00    +0.000 N 
ATOM     19  H   UNL     1       1.376   3.845  17.319  0.00  0.00    +0.000 HD
BRANCH  18  20
ATOM     20  C   UNL     1       2.091   5.356  18.547  0.00  0.00    +0.000 A 
ATOM     21  C   UNL     1       2.333   6.662  18.125  0.00  0.00    +0.000 A 
ATOM     22  C   UNL     1       2.253   7.709  19.042  0.00  0.00    +0.000 A 
ATOM     23  C   UNL     1       1.963   7.412  20.364  0.00  0.00    +0.000 A 
ATOM     24  N   UNL     1       1.740   6.161  20.816  0.00  0.00    +0.000 NA
ATOM     25  C   UNL     1       1.799   5.164  19.896  0.00  0.00    +0.000 A 
ENDBRANCH  18  20
ENDBRANCH  16  18
ENDBRANCH  14  16
ENDBRANCH   5  14
TORSDOF 4
ENDMDL
MODEL 3
REMARK VINA RESULT:      -8.0      1.951      2.408
REMARK  Name = 
REMARK  6 active torsions:
REMARK  status: ('A' for Active; 'I' for Inactive)
REMARK    1  A    between atoms: C_1  and  C_2
REMARK    2  A    between atoms: C_2  and  C_3
REMARK    3  A    between atoms: C_5  and  N_6
REMARK    4  A    between atoms: N_6  and  C_7
REMARK    5  A    between atoms: C_7  and  N_9
REMARK    6  A    between atoms: N_9  and  C_10
REMARK                            x       y       z     vdW  Elec       q    Type
REMARK                         _______ _______ _______ _____ _____    ______ ____
ROOT
ATOM      1  C   UNL     1       7.696   6.681  17.899  0.00  0.00    +0.000 C 
ATOM      2  C   UNL     1       6.788   6.006  16.861  0.00  0.00    +0.000 C 
ATOM      3  C   UNL     1       5.556   6.903  16.653  0.00  0.00    +0.000 C 
ATOM      4  C   UNL     1       6.473   4.592  17.360  0.00  0.00    +0.000 C 
ATOM      5  C   UNL     1       5.605   3.805  16.375  0.00  0.00    +0.000 C 
ATOM      6  C   UNL     1       6.104   4.054  14.964  0.00  0.00    +0.000 A 
ATOM      7  C   UNL     1       5.673   3.240  13.904  0.00  0.00    +0.000 A 
ATOM      8  C   UNL     1       6.215   3.403  12.628  0.00  0.00    +0.000 A 
ATOM      9 CL   UNL     1       5.690   2.385  11.340  0.00  0.00    +0.000 Cl
ATOM     10  C   UNL     1       7.186   4.372  12.382  0.00  0.00    +0.000 A 
ATOM     11  C   UNL     1       7.601   5.201  13.421  0.00  0.00    +0.000 A 
ATOM     12  C   UNL     1       7.053   5.057  14.699  0.00  0.00    +0.000 A 
ATOM     13  O   UNL     1       7.532   5.935  15.634  0.00  0.00    +0.000 OA
ENDROOT
BRANCH   5  14
ATOM     14  N   UNL     1       4.169   4.089  16.520  0.00  0.00    +0.000 N 
ATOM     15  H   UNL     1       3.839   4.944  16.090  0.00  0.00    +0.000 HD
BRANCH  14  16
ATOM     16  C   UNL     1       3.320   3.544  17.471  0.00  0.00    +0.000 C 
ATOM     17  S   UNL     1       3.497   2.045  18.196  0.00  0.00    +0.000 S 
BRANCH  16  18
ATOM     18  N   UNL     1       2.230   4.372  17.685  0.00  0.00    +0.000 N 
ATOM     19  H   UNL     1       1.342   3.966  17.419  0.00  0.00    +0.000 HD
BRANCH  18  20
ATOM     20  C   UNL     1       2.179   5.456  18.594  0.00  0.00    +0.000 A 
ATOM     21  C   UNL     1       1.858   5.220  19.930  0.00  0.00    +0.000 A 
ATOM     22  C   UNL     1       1.749   6.294  20.812  0.00  0.00    +0.000 A 
ATOM     23  C   UNL     1       1.933   7.577  20.323  0.00  0.00    +0.000 A 
ATOM     24  N   UNL     1       2.227   7.848  19.035  0.00  0.00    +0.000 NA
ATOM     25  C   UNL     1       2.352   6.783  18.203  0.00  0.00    +0.000 A 
ENDBRANCH  18  20
ENDBRANCH  16  18
ENDBRANCH  14  16
ENDBRANCH   5  14
TORSDOF 4
ENDMDL
MODEL 4
REMARK VINA RESULT:      -7.9      2.783      3.409
REMARK  Name = 
REMARK  6 active torsions:
REMARK  status: ('A' for Active; 'I' for Inactive)
REMARK    1  A    between atoms: C_1  and  C_2
REMARK    2  A    between atoms: C_2  and  C_3
REMARK    3  A    between atoms: C_5  and  N_6
REMARK    4  A    between atoms: N_6  and  C_7
REMARK    5  A    between atoms: C_7  and  N_9
REMARK    6  A    between atoms: N_9  and  C_10
REMARK                            x       y       z     vdW  Elec       q    Type
REMARK                         _______ _______ _______ _____ _____    ______ ____
ROOT
ATOM      1  C   UNL     1       7.987   6.068  18.846  0.00  0.00    +0.000 C 
ATOM      2  C   UNL     1       6.960   5.863  17.722  0.00  0.00    +0.000 C 
ATOM      3  C   UNL     1       6.216   7.192  17.510  0.00  0.00    +0.000 C 
ATOM      4  C   UNL     1       6.065   4.683  18.114  0.00  0.00    +0.000 C 
ATOM      5  C   UNL     1       5.026   4.356  17.038  0.00  0.00    +0.000 C 
ATOM      6  C   UNL     1       5.683   4.432  15.673  0.00  0.00    +0.000 A 
ATOM      7  C   UNL     1       5.036   3.906  14.543  0.00  0.00    +0.000 A 
ATOM      8  C   UNL     1       5.689   3.882  13.309  0.00  0.00    +0.000 A 
ATOM      9 CL   UNL     1       4.890   3.216  11.934  0.00  0.00    +0.000 Cl
ATOM     10  C   UNL     1       6.983   4.378  13.174  0.00  0.00    +0.000 A 
ATOM     11  C   UNL     1       7.623   4.925  14.283  0.00  0.00    +0.000 A 
ATOM     12  C   UNL     1       6.973   4.969  15.520  0.00  0.00    +0.000 A 
ATOM     13  O   UNL     1       7.698   5.540  16.532  0.00  0.00    +0.000 OA
ENDROOT
BRANCH   5  14
ATOM     14  N   UNL     1       3.822   5.196  17.128  0.00  0.00    +0.000 N 
ATOM     15  H   UNL     1       3.863   6.086  16.648  0.00  0.00    +0.000 HD
BRANCH  14  16
ATOM     16  C   UNL     1       2.819   5.087  18.081  0.00  0.00    +0.000 C 
ATOM     17  S   UNL     1       1.534   4.016  18.031  0.00  0.00    +0.000 S 
BRANCH  16  18
ATOM     18  N   UNL     1       2.965   6.062  19.055  0.00  0.00    +0.000 N 
ATOM     19  H   UNL     1       3.834   6.006  19.571  0.00  0.00    +0.000 HD
BRANCH  18  20
ATOM     20  C   UNL     1       2.293   7.308  19.088  0.00  0.00    +0.000 A 
ATOM     21  C   UNL     1       2.161   8.049  17.915  0.00  0.00    +0.000 A 
ATOM     22  C   UNL     1       1.553   9.304  17.958  0.00  0.00    +0.000 A 
ATOM     23  C   UNL     1       1.123   9.791  19.182  0.00  0.00    +0.000 A 
ATOM     24  N   UNL     1       1.248   9.112  20.340  0.00  0.00    +0.000 NA
ATOM     25  C   UNL     1       1.821   7.884  20.266  0.00  0.00    +0.000 A 
ENDBRANCH  18  20
ENDBRANCH  16  18
ENDBRANCH  14  16
ENDBRANCH   5  14
TORSDOF 4
ENDMDL
MODEL 5
REMARK VINA RESULT:      -7.8      2.734      3.397
REMARK  Name = 
REMARK  6 active torsions:
REMARK  status: ('A' for Active; 'I' for Inactive)
REMARK    1  A    between atoms: C_1  and  C_2
REMARK    2  A    between atoms: C_2  and  C_3
REMARK    3  A    between atoms: C_5  and  N_6
REMARK    4  A    between atoms: N_6  and  C_7
REMARK    5  A    between atoms: C_7  and  N_9
REMARK    6  A    between atoms: N_9  and  C_10
REMARK                            x       y       z     vdW  Elec       q    Type
REMARK                         _______ _______ _______ _____ _____    ______ ____
ROOT
ATOM      1  C   UNL     1       7.909   6.010  18.864  0.00  0.00    +0.000 C 
ATOM      2  C   UNL     1       6.887   5.795  17.737  0.00  0.00    +0.000 C 
ATOM      3  C   UNL     1       6.097   7.102  17.557  0.00  0.00    +0.000 C 
ATOM      4  C   UNL     1       6.033   4.577  18.105  0.00  0.00    +0.000 C 
ATOM      5  C   UNL     1       5.002   4.239  17.024  0.00  0.00    +0.000 C 
ATOM      6  C   UNL     1       5.653   4.368  15.659  0.00  0.00    +0.000 A 
ATOM      7  C   UNL     1       5.022   3.845  14.519  0.00  0.00    +0.000 A 
ATOM      8  C   UNL     1       5.671   3.871  13.284  0.00  0.00    +0.000 A 
ATOM      9 CL   UNL     1       4.892   3.209  11.895  0.00  0.00    +0.000 Cl
ATOM     10  C   UNL     1       6.948   4.413  13.157  0.00  0.00    +0.000 A 
ATOM     11  C   UNL     1       7.572   4.957  14.277  0.00  0.00    +0.000 A 
ATOM     12  C   UNL     1       6.924   4.952  15.516  0.00  0.00    +0.000 A 
ATOM     13  O   UNL     1       7.632   5.524  16.540  0.00  0.00    +0.000 OA
ENDROOT
BRANCH   5  14
ATOM     14  N   UNL     1       3.771   5.035  17.135  0.00  0.00    +0.000 N 
ATOM     15  H   UNL     1       3.723   5.864  16.555  0.00  0.00    +0.000 HD
BRANCH  14  16
ATOM     16  C   UNL     1       2.867   5.000  18.187  0.00  0.00    +0.000 C 
ATOM     17  S   UNL     1       1.578   3.943  18.333  0.00  0.00    +0.000 S 
BRANCH  16  18
ATOM     18  N   UNL     1       3.114   6.034  19.076  0.00  0.00    +0.000 N 
ATOM     19  H   UNL     1       4.033   6.007  19.498  0.00  0.00    +0.000 HD
BRANCH  18  20
ATOM     20  C   UNL     1       2.445   7.282  19.102  0.00  0.00    +0.000 A 
ATOM     21  C   UNL     1       1.812   7.699  20.272  0.00  0.00    +0.000 A 
ATOM     22  C   UNL     1       1.102   8.899  20.280  0.00  0.00    +0.000 A 
ATOM     23  C   UNL     1       1.022   9.631  19.106  0.00  0.00    +0.000 A 
ATOM     24  N   UNL     1       1.605   9.253  17.951  0.00  0.00    +0.000 NA
ATOM     25  C   UNL     1       2.310   8.093  17.978  0.00  0.00    +0.000 A 
ENDBRANCH  18  20
ENDBRANCH  16  18
ENDBRANCH  14  16
ENDBRANCH   5  14
TORSDOF 4
ENDMDL
MODEL 6
REMARK VINA RESULT:      -7.5      1.567      1.726
REMARK  Name = 
REMARK  6 active torsions:
REMARK  status: ('A' for Active; 'I' for Inactive)
REMARK    1  A    between atoms: C_1  and  C_2
REMARK    2  A    between atoms: C_2  and  C_3
REMARK    3  A    between atoms: C_5  and  N_6
REMARK    4  A    between atoms: N_6  and  C_7
REMARK    5  A    between atoms: C_7  and  N_9
REMARK    6  A    between atoms: N_9  and  C_10
REMARK                            x       y       z     vdW  Elec       q    Type
REMARK                         _______ _______ _______ _____ _____    ______ ____
ROOT
ATOM      1  C   UNL     1       7.938   5.921  19.154  0.00  0.00    +0.000 C 
ATOM      2  C   UNL     1       6.975   5.947  17.957  0.00  0.00    +0.000 C 
ATOM      3  C   UNL     1       6.707   7.418  17.596  0.00  0.00    +0.000 C 
ATOM      4  C   UNL     1       5.729   5.144  18.339  0.00  0.00    +0.000 C 
ATOM      5  C   UNL     1       4.713   5.063  17.196  0.00  0.00    +0.000 C 
ATOM      6  C   UNL     1       5.449   4.811  15.894  0.00  0.00    +0.000 A 
ATOM      7  C   UNL     1       4.746   4.415  14.745  0.00  0.00    +0.000 A 
ATOM      8  C   UNL     1       5.437   4.081  13.579  0.00  0.00    +0.000 A 
ATOM      9 CL   UNL     1       4.562   3.578  12.181  0.00  0.00    +0.000 Cl
ATOM     10  C   UNL     1       6.828   4.136  13.531  0.00  0.00    +0.000 A 
ATOM     11  C   UNL     1       7.534   4.553  14.657  0.00  0.00    +0.000 A 
ATOM     12  C   UNL     1       6.851   4.905  15.825  0.00  0.00    +0.000 A 
ATOM     13  O   UNL     1       7.650   5.309  16.861  0.00  0.00    +0.000 OA
ENDROOT
BRANCH   5  14
ATOM     14  N   UNL     1       3.834   6.240  17.124  0.00  0.00    +0.000 N 
ATOM     15  H   UNL     1       4.234   7.069  16.704  0.00  0.00    +0.000 HD
BRANCH  14  16
ATOM     16  C   UNL     1       2.697   6.458  17.887  0.00  0.00    +0.000 C 
ATOM     17  S   UNL     1       2.324   7.870  18.707  0.00  0.00    +0.000 S 
BRANCH  16  18
ATOM     18  N   UNL     1       1.933   5.305  17.965  0.00  0.00    +0.000 N 
ATOM     19  H   UNL     1       1.654   4.930  17.067  0.00  0.00    +0.000 HD
BRANCH  18  20
ATOM     20  C   UNL     1       1.898   4.406  19.059  0.00  0.00    +0.000 A 
ATOM     21  C   UNL     1       2.184   4.872  20.341  0.00  0.00    +0.000 A 
ATOM     22  C   UNL     1       2.209   3.976  21.410  0.00  0.00    +0.000 A 
ATOM     23  C   UNL     1       1.979   2.633  21.155  0.00  0.00    +0.000 A 
ATOM     24  N   UNL     1       1.717   2.141  19.927  0.00  0.00    +0.000 NA
ATOM     25  C   UNL     1       1.673   3.039  18.910  0.00  0.00    +0.000 A 
ENDBRANCH  18  20
ENDBRANCH  16  18
ENDBRANCH  14  16
ENDBRANCH   5  14
TORSDOF 4
ENDMDL
MODEL 7
REMARK VINA RESULT:      -7.4      1.581      1.701
REMARK  Name = 
REMARK  6 active torsions:
REMARK  status: ('A' for Active; 'I' for Inactive)
REMARK    1  A    between atoms: C_1  and  C_2
REMARK    2  A    between atoms: C_2  and  C_3
REMARK    3  A    between atoms: C_5  and  N_6
REMARK    4  A    between atoms: N_6  and  C_7
REMARK    5  A    between atoms: C_7  and  N_9
REMARK    6  A    between atoms: N_9  and  C_10
REMARK                            x       y       z     vdW  Elec       q    Type
REMARK                         _______ _______ _______ _____ _____    ______ ____
ROOT
ATOM      1  C   UNL     1       8.028   5.807  19.177  0.00  0.00    +0.000 C 
ATOM      2  C   UNL     1       7.068   5.893  17.980  0.00  0.00    +0.000 C 
ATOM      3  C   UNL     1       6.903   7.377  17.610  0.00  0.00    +0.000 C 
ATOM      4  C   UNL     1       5.769   5.181  18.368  0.00  0.00    +0.000 C 
ATOM      5  C   UNL     1       4.749   5.165  17.227  0.00  0.00    +0.000 C 
ATOM      6  C   UNL     1       5.464   4.854  15.925  0.00  0.00    +0.000 A 
ATOM      7  C   UNL     1       4.733   4.500  14.780  0.00  0.00    +0.000 A 
ATOM      8  C   UNL     1       5.397   4.112  13.615  0.00  0.00    +0.000 A 
ATOM      9 CL   UNL     1       4.487   3.663  12.222  0.00  0.00    +0.000 Cl
ATOM     10  C   UNL     1       6.789   4.069  13.566  0.00  0.00    +0.000 A 
ATOM     11  C   UNL     1       7.523   4.442  14.689  0.00  0.00    +0.000 A 
ATOM     12  C   UNL     1       6.868   4.848  15.855  0.00  0.00    +0.000 A 
ATOM     13  O   UNL     1       7.695   5.202  16.888  0.00  0.00    +0.000 OA
ENDROOT
BRANCH   5  14
ATOM     14  N   UNL     1       3.955   6.400  17.148  0.00  0.00    +0.000 N 
ATOM     15  H   UNL     1       4.453   7.233  16.861  0.00  0.00    +0.000 HD
BRANCH  14  16
ATOM     16  C   UNL     1       2.737   6.631  17.772  0.00  0.00    +0.000 C 
ATOM     17  S   UNL     1       2.214   8.098  18.385  0.00  0.00    +0.000 S 
BRANCH  16  18
ATOM     18  N   UNL     1       2.029   5.448  17.912  0.00  0.00    +0.000 N 
ATOM     19  H   UNL     1       1.777   5.009  17.036  0.00  0.00    +0.000 HD
BRANCH  18  20
ATOM     20  C   UNL     1       2.029   4.613  19.056  0.00  0.00    +0.000 A 
ATOM     21  C   UNL     1       1.374   3.383  19.010  0.00  0.00    +0.000 A 
ATOM     22  C   UNL     1       1.322   2.588  20.155  0.00  0.00    +0.000 A 
ATOM     23  C   UNL     1       1.901   3.064  21.321  0.00  0.00    +0.000 A 
ATOM     24  N   UNL     1       2.528   4.254  21.410  0.00  0.00    +0.000 NA
ATOM     25  C   UNL     1       2.586   4.996  20.275  0.00  0.00    +0.000 A 
ENDBRANCH  18  20
ENDBRANCH  16  18
ENDBRANCH  14  16
ENDBRANCH   5  14
TORSDOF 4
ENDMDL
MODEL 8
REMARK VINA RESULT:      -7.4      3.878      7.231
REMARK  Name = 
REMARK  6 active torsions:
REMARK  status: ('A' for Active; 'I' for Inactive)
REMARK    1  A    between atoms: C_1  and  C_2
REMARK    2  A    between atoms: C_2  and  C_3
REMARK    3  A    between atoms: C_5  and  N_6
REMARK    4  A    between atoms: N_6  and  C_7
REMARK    5  A    between atoms: C_7  and  N_9
REMARK    6  A    between atoms: N_9  and  C_10
REMARK                            x       y       z     vdW  Elec       q    Type
REMARK                         _______ _______ _______ _____ _____    ______ ____
ROOT
ATOM      1  C   UNL     1       2.167   3.332  21.948  0.00  0.00    +0.000 C 
ATOM      2  C   UNL     1       2.093   4.276  20.738  0.00  0.00    +0.000 C 
ATOM      3  C   UNL     1       1.120   3.663  19.717  0.00  0.00    +0.000 C 
ATOM      4  C   UNL     1       3.519   4.484  20.217  0.00  0.00    +0.000 C 
ATOM      5  C   UNL     1       3.572   5.451  19.031  0.00  0.00    +0.000 C 
ATOM      6  C   UNL     1       2.649   6.624  19.304  0.00  0.00    +0.000 A 
ATOM      7  C   UNL     1       2.723   7.784  18.517  0.00  0.00    +0.000 A 
ATOM      8  C   UNL     1       1.948   8.900  18.837  0.00  0.00    +0.000 A 
ATOM      9 CL   UNL     1       2.062  10.325  17.874  0.00  0.00    +0.000 Cl
ATOM     10  C   UNL     1       1.090   8.884  19.935  0.00  0.00    +0.000 A 
ATOM     11  C   UNL     1       0.991   7.729  20.707  0.00  0.00    +0.000 A 
ATOM     12  C   UNL     1       1.750   6.601  20.385  0.00  0.00    +0.000 A 
ATOM     13  O   UNL     1       1.559   5.523  21.209  0.00  0.00    +0.000 OA
ENDROOT
BRANCH   5  14
ATOM     14  N   UNL     1       3.284   4.799  17.745  0.00  0.00    +0.000 N 
ATOM     15  H   UNL     1       2.465   5.130  17.251  0.00  0.00    +0.000 HD
BRANCH  14  16
ATOM     16  C   UNL     1       3.760   3.564  17.330  0.00  0.00    +0.000 C 
ATOM     17  S   UNL     1       2.845   2.175  17.141  0.00  0.00    +0.000 S 
BRANCH  16  18
ATOM     18  N   UNL     1       5.137   3.599  17.177  0.00  0.00    +0.000 N 
ATOM     19  H   UNL     1       5.635   2.929  17.751  0.00  0.00    +0.000 HD
BRANCH  18  20
ATOM     20  C   UNL     1       5.833   4.105  16.053  0.00  0.00    +0.000 A 
ATOM     21  C   UNL     1       5.553   3.599  14.785  0.00  0.00    +0.000 A 
ATOM     22  C   UNL     1       6.280   4.053  13.685  0.00  0.00    +0.000 A 
ATOM     23  C   UNL     1       7.290   4.979  13.895  0.00  0.00    +0.000 A 
ATOM     24  N   UNL     1       7.603   5.479  15.107  0.00  0.00    +0.000 NA
ATOM     25  C   UNL     1       6.863   5.038  16.156  0.00  0.00    +0.000 A 
ENDBRANCH  18  20
ENDBRANCH  16  18
ENDBRANCH  14  16
ENDBRANCH   5  14
TORSDOF 4
ENDMDL
MODEL 9
REMARK VINA RESULT:      -7.3      4.980      6.162
REMARK  Name = 
REMARK  6 active torsions:
REMARK  status: ('A' for Active; 'I' for Inactive)
REMARK    1  A    between atoms: C_1  and  C_2
REMARK    2  A    between atoms: C_2  and  C_3
REMARK    3  A    between atoms: C_5  and  N_6
REMARK    4  A    between atoms: N_6  and  C_7
REMARK    5  A    between atoms: C_7  and  N_9
REMARK    6  A    between atoms: N_9  and  C_10
REMARK                            x       y       z     vdW  Elec       q    Type
REMARK                         _______ _______ _______ _____ _____    ______ ____
ROOT
ATOM      1  C   UNL     1       1.704   2.616  18.479  0.00  0.00    +0.000 C 
ATOM      2  C   UNL     1       2.629   3.815  18.737  0.00  0.00    +0.000 C 
ATOM      3  C   UNL     1       2.809   3.956  20.258  0.00  0.00    +0.000 C 
ATOM      4  C   UNL     1       2.014   5.038  18.049  0.00  0.00    +0.000 C 
ATOM      5  C   UNL     1       2.881   6.290  18.203  0.00  0.00    +0.000 C 
ATOM      6  C   UNL     1       4.337   5.915  18.000  0.00  0.00    +0.000 A 
ATOM      7  C   UNL     1       5.307   6.912  17.806  0.00  0.00    +0.000 A 
ATOM      8  C   UNL     1       6.626   6.560  17.514  0.00  0.00    +0.000 A 
ATOM      9 CL   UNL     1       7.803   7.793  17.260  0.00  0.00    +0.000 Cl
ATOM     10  C   UNL     1       7.004   5.223  17.412  0.00  0.00    +0.000 A 
ATOM     11  C   UNL     1       6.055   4.227  17.628  0.00  0.00    +0.000 A 
ATOM     12  C   UNL     1       4.735   4.568  17.937  0.00  0.00    +0.000 A 
ATOM     13  O   UNL     1       3.897   3.504  18.139  0.00  0.00    +0.000 OA
ENDROOT
BRANCH   5  14
ATOM     14  N   UNL     1       2.656   6.993  19.475  0.00  0.00    +0.000 N 
ATOM     15  H   UNL     1       2.893   6.481  20.315  0.00  0.00    +0.000 HD
BRANCH  14  16
ATOM     16  C   UNL     1       1.823   8.085  19.669  0.00  0.00    +0.000 C 
ATOM     17  S   UNL     1       1.353   9.178  18.491  0.00  0.00    +0.000 S 
BRANCH  16  18
ATOM     18  N   UNL     1       1.495   8.217  21.009  0.00  0.00    +0.000 N 
ATOM     19  H   UNL     1       2.076   7.672  21.633  0.00  0.00    +0.000 HD
BRANCH  18  20
ATOM     20  C   UNL     1       0.797   9.305  21.587  0.00  0.00    +0.000 A 
ATOM     21  C   UNL     1      -0.202   9.058  22.527  0.00  0.00    +0.000 A 
ATOM     22  C   UNL     1      -0.932  10.125  23.053  0.00  0.00    +0.000 A 
ATOM     23  C   UNL     1      -0.659  11.404  22.596  0.00  0.00    +0.000 A 
ATOM     24  N   UNL     1       0.287  11.681  21.675  0.00  0.00    +0.000 NA
ATOM     25  C   UNL     1       0.998  10.628  21.200  0.00  0.00    +0.000 A 
ENDBRANCH  18  20
ENDBRANCH  16  18
ENDBRANCH  14  16
ENDBRANCH   5  14
TORSDOF 4
ENDMDL
