MODEL 1
REMARK VINA RESULT:      -8.3      0.000      0.000
REMARK  Name = 
REMARK  8 active torsions:
REMARK  status: ('A' for Active; 'I' for Inactive)
REMARK    1  A    between atoms: C_1  and  N_2
REMARK    2  A    between atoms: C_4  and  C_5
REMARK    3  A    between atoms: C_9  and  C_10
REMARK    4  A    between atoms: C_10  and  O_11
REMARK    5  A    between atoms: O_11  and  C_12
REMARK    6  A    between atoms: C_12  and  C_14
REMARK    7  A    between atoms: C_21  and  O_22
REMARK    8  A    between atoms: O_22  and  C_23
REMARK                            x       y       z     vdW  Elec       q    Type
REMARK                         _______ _______ _______ _____ _____    ______ ____
ROOT
ATOM      1  C   UNL     1       4.267   0.949  18.348  0.00  0.00    +0.000 C 
ATOM      2  N   UNL     1       3.765   2.232  18.783  0.00  0.00    +0.000 N 
ATOM      3  N   UNL     1       2.812   2.212  19.733  0.00  0.00    +0.000 NA
ATOM      4  C   UNL     1       2.598   3.503  20.043  0.00  0.00    +0.000 A 
ATOM      5  C   UNL     1       3.393   4.350  19.216  0.00  0.00    +0.000 A 
ATOM      6  C   UNL     1       4.112   3.502  18.384  0.00  0.00    +0.000 A 
ENDROOT
BRANCH   4   7
ATOM      7  C   UNL     1       1.609   3.921  21.105  0.00  0.00    +0.000 C 
ATOM      8  F   UNL     1       0.547   4.612  20.610  0.00  0.00    +0.000 F 
ATOM      9  F   UNL     1       1.098   2.869  21.789  0.00  0.00    +0.000 F 
ATOM     10  F   UNL     1       2.201   4.730  22.027  0.00  0.00    +0.000 F 
ENDBRANCH   4   7
BRANCH   5  11
ATOM     11  C   UNL     1       3.445   5.844  19.235  0.00  0.00    +0.000 C 
BRANCH  11  12
ATOM     12  O   UNL     1       2.240   6.425  18.712  0.00  0.00    +0.000 OA
BRANCH  12  13
ATOM     13  C   UNL     1       2.306   7.753  18.467  0.00  0.00    +0.000 C 
ATOM     14  O   UNL     1       2.916   8.291  17.559  0.00  0.00    +0.000 OA
BRANCH  13  15
ATOM     15  C   UNL     1       1.559   8.506  19.503  0.00  0.00    +0.000 A 
ATOM     16  C   UNL     1       1.451   8.051  20.825  0.00  0.00    +0.000 A 
ATOM     17  C   UNL     1       0.738   8.801  21.765  0.00  0.00    +0.000 A 
ATOM     18  C   UNL     1       0.130   9.997  21.382  0.00  0.00    +0.000 A 
ATOM     19 CL   UNL     1      -0.740  10.919  22.544  0.00  0.00    +0.000 Cl
ATOM     20  C   UNL     1       0.224  10.451  20.068  0.00  0.00    +0.000 A 
ATOM     21  C   UNL     1       0.935   9.703  19.126  0.00  0.00    +0.000 A 
ENDBRANCH  13  15
ENDBRANCH  12  13
ENDBRANCH  11  12
ENDBRANCH   5  11
BRANCH   6  22
ATOM     22  O   UNL     1       5.032   3.854  17.477  0.00  0.00    +0.000 OA
BRANCH  22  23
ATOM     23  C   UNL     1       5.890   4.918  17.599  0.00  0.00    +0.000 A 
ATOM     24  C   UNL     1       6.985   4.931  18.463  0.00  0.00    +0.000 A 
ATOM     25  C   UNL     1       7.727   6.104  18.624  0.00  0.00    +0.000 A 
ATOM     26  C   UNL     1       7.431   7.225  17.852  0.00  0.00    +0.000 A 
ATOM     27 CL   UNL     1       8.318   8.679  18.084  0.00  0.00    +0.000 Cl
ATOM     28  C   UNL     1       6.416   7.175  16.898  0.00  0.00    +0.000 A 
ATOM     29  C   UNL     1       5.642   6.019  16.774  0.00  0.00    +0.000 A 
ENDBRANCH  22  23
ENDBRANCH   6  22
TORSDOF 7
ENDMDL
MODEL 2
REMARK VINA RESULT:      -8.3      3.620      5.205
REMARK  Name = 
REMARK  8 active torsions:
REMARK  status: ('A' for Active; 'I' for Inactive)
REMARK    1  A    between atoms: C_1  and  N_2
REMARK    2  A    between atoms: C_4  and  C_5
REMARK    3  A    between atoms: C_9  and  C_10
REMARK    4  A    between atoms: C_10  and  O_11
REMARK    5  A    between atoms: O_11  and  C_12
REMARK    6  A    between atoms: C_12  and  C_14
REMARK    7  A    between atoms: C_21  and  O_22
REMARK    8  A    between atoms: O_22  and  C_23
REMARK                            x       y       z     vdW  Elec       q    Type
REMARK                         _______ _______ _______ _____ _____    ______ ____
ROOT
ATOM      1  C   UNL     1       6.256   4.038  14.092  0.00  0.00    +0.000 C 
ATOM      2  N   UNL     1       6.132   4.672  15.384  0.00  0.00    +0.000 N 
ATOM      3  N   UNL     1       7.048   5.612  15.682  0.00  0.00    +0.000 NA
ATOM      4  C   UNL     1       6.656   6.122  16.863  0.00  0.00    +0.000 A 
ATOM      5  C   UNL     1       5.502   5.435  17.341  0.00  0.00    +0.000 A 
ATOM      6  C   UNL     1       5.205   4.477  16.381  0.00  0.00    +0.000 A 
ENDROOT
BRANCH   4   7
ATOM      7  C   UNL     1       7.409   7.241  17.544  0.00  0.00    +0.000 C 
ATOM      8  F   UNL     1       8.032   6.853  18.689  0.00  0.00    +0.000 F 
ATOM      9  F   UNL     1       8.363   7.788  16.753  0.00  0.00    +0.000 F 
ATOM     10  F   UNL     1       6.564   8.254  17.887  0.00  0.00    +0.000 F 
ENDBRANCH   4   7
BRANCH   5  11
ATOM     11  C   UNL     1       4.760   5.690  18.614  0.00  0.00    +0.000 C 
BRANCH  11  12
ATOM     12  O   UNL     1       3.799   6.748  18.467  0.00  0.00    +0.000 OA
BRANCH  12  13
ATOM     13  C   UNL     1       2.871   6.817  19.449  0.00  0.00    +0.000 C 
ATOM     14  O   UNL     1       2.715   6.016  20.354  0.00  0.00    +0.000 OA
BRANCH  13  15
ATOM     15  C   UNL     1       2.003   8.003  19.253  0.00  0.00    +0.000 A 
ATOM     16  C   UNL     1       1.890   8.650  18.015  0.00  0.00    +0.000 A 
ATOM     17  C   UNL     1       1.054   9.764  17.883  0.00  0.00    +0.000 A 
ATOM     18  C   UNL     1       0.340  10.230  18.988  0.00  0.00    +0.000 A 
ATOM     19 CL   UNL     1      -0.692  11.596  18.818  0.00  0.00    +0.000 Cl
ATOM     20  C   UNL     1       0.456   9.599  20.224  0.00  0.00    +0.000 A 
ATOM     21  C   UNL     1       1.291   8.487  20.359  0.00  0.00    +0.000 A 
ENDBRANCH  13  15
ENDBRANCH  12  13
ENDBRANCH  11  12
ENDBRANCH   5  11
BRANCH   6  22
ATOM     22  O   UNL     1       4.166   3.633  16.382  0.00  0.00    +0.000 OA
BRANCH  22  23
ATOM     23  C   UNL     1       3.381   3.351  17.472  0.00  0.00    +0.000 A 
ATOM     24  C   UNL     1       2.066   3.793  17.611  0.00  0.00    +0.000 A 
ATOM     25  C   UNL     1       1.385   3.576  18.811  0.00  0.00    +0.000 A 
ATOM     26  C   UNL     1       1.986   2.838  19.828  0.00  0.00    +0.000 A 
ATOM     27 CL   UNL     1       1.162   2.609  21.319  0.00  0.00    +0.000 Cl
ATOM     28  C   UNL     1       3.254   2.289  19.645  0.00  0.00    +0.000 A 
ATOM     29  C   UNL     1       3.954   2.550  18.464  0.00  0.00    +0.000 A 
ENDBRANCH  22  23
ENDBRANCH   6  22
TORSDOF 7
ENDMDL
MODEL 3
REMARK VINA RESULT:      -8.2      0.379      1.207
REMARK  Name = 
REMARK  8 active torsions:
REMARK  status: ('A' for Active; 'I' for Inactive)
REMARK    1  A    between atoms: C_1  and  N_2
REMARK    2  A    between atoms: C_4  and  C_5
REMARK    3  A    between atoms: C_9  and  C_10
REMARK    4  A    between atoms: C_10  and  O_11
REMARK    5  A    between atoms: O_11  and  C_12
REMARK    6  A    between atoms: C_12  and  C_14
REMARK    7  A    between atoms: C_21  and  O_22
REMARK    8  A    between atoms: O_22  and  C_23
REMARK                            x       y       z     vdW  Elec       q    Type
REMARK                         _______ _______ _______ _____ _____    ______ ____
ROOT
ATOM      1  C   UNL     1       4.011   1.090  17.884  0.00  0.00    +0.000 C 
ATOM      2  N   UNL     1       3.621   2.337  18.501  0.00  0.00    +0.000 N 
ATOM      3  N   UNL     1       2.707   2.260  19.486  0.00  0.00    +0.000 NA
ATOM      4  C   UNL     1       2.601   3.512  19.965  0.00  0.00    +0.000 A 
ATOM      5  C   UNL     1       3.423   4.402  19.214  0.00  0.00    +0.000 A 
ATOM      6  C   UNL     1       4.044   3.621  18.248  0.00  0.00    +0.000 A 
ENDROOT
BRANCH   4   7
ATOM      7  C   UNL     1       1.687   3.856  21.117  0.00  0.00    +0.000 C 
ATOM      8  F   UNL     1       2.309   4.544  22.112  0.00  0.00    +0.000 F 
ATOM      9  F   UNL     1       0.624   4.606  20.738  0.00  0.00    +0.000 F 
ATOM     10  F   UNL     1       1.180   2.727  21.687  0.00  0.00    +0.000 F 
ENDBRANCH   4   7
BRANCH   5  11
ATOM     11  C   UNL     1       3.586   5.874  19.418  0.00  0.00    +0.000 C 
BRANCH  11  12
ATOM     12  O   UNL     1       2.323   6.523  19.638  0.00  0.00    +0.000 OA
BRANCH  12  13
ATOM     13  C   UNL     1       2.204   7.747  19.075  0.00  0.00    +0.000 C 
ATOM     14  O   UNL     1       2.693   8.108  18.019  0.00  0.00    +0.000 OA
BRANCH  13  15
ATOM     15  C   UNL     1       1.417   8.644  19.956  0.00  0.00    +0.000 A 
ATOM     16  C   UNL     1       0.934   9.885  19.519  0.00  0.00    +0.000 A 
ATOM     17  C   UNL     1       0.194  10.692  20.388  0.00  0.00    +0.000 A 
ATOM     18  C   UNL     1      -0.055  10.261  21.692  0.00  0.00    +0.000 A 
ATOM     19 CL   UNL     1      -0.971  11.255  22.756  0.00  0.00    +0.000 Cl
ATOM     20  C   UNL     1       0.431   9.033  22.137  0.00  0.00    +0.000 A 
ATOM     21  C   UNL     1       1.171   8.226  21.270  0.00  0.00    +0.000 A 
ENDBRANCH  13  15
ENDBRANCH  12  13
ENDBRANCH  11  12
ENDBRANCH   5  11
BRANCH   6  22
ATOM     22  O   UNL     1       4.952   4.024  17.349  0.00  0.00    +0.000 OA
BRANCH  22  23
ATOM     23  C   UNL     1       5.871   5.023  17.552  0.00  0.00    +0.000 A 
ATOM     24  C   UNL     1       6.966   4.901  18.407  0.00  0.00    +0.000 A 
ATOM     25  C   UNL     1       7.776   6.011  18.659  0.00  0.00    +0.000 A 
ATOM     26  C   UNL     1       7.544   7.207  17.983  0.00  0.00    +0.000 A 
ATOM     27 CL   UNL     1       8.516   8.583  18.327  0.00  0.00    +0.000 Cl
ATOM     28  C   UNL     1       6.526   7.296  17.035  0.00  0.00    +0.000 A 
ATOM     29  C   UNL     1       5.686   6.200  16.822  0.00  0.00    +0.000 A 
ENDBRANCH  22  23
ENDBRANCH   6  22
TORSDOF 7
ENDMDL
MODEL 4
REMARK VINA RESULT:      -8.0      1.852      2.181
REMARK  Name = 
REMARK  8 active torsions:
REMARK  status: ('A' for Active; 'I' for Inactive)
REMARK    1  A    between atoms: C_1  and  N_2
REMARK    2  A    between atoms: C_4  and  C_5
REMARK    3  A    between atoms: C_9  and  C_10
REMARK    4  A    between atoms: C_10  and  O_11
REMARK    5  A    between atoms: O_11  and  C_12
REMARK    6  A    between atoms: C_12  and  C_14
REMARK    7  A    between atoms: C_21  and  O_22
REMARK    8  A    between atoms: O_22  and  C_23
REMARK                            x       y       z     vdW  Elec       q    Type
REMARK                         _______ _______ _______ _____ _____    ______ ____
ROOT
ATOM      1  C   UNL     1       5.294   1.870  20.415  0.00  0.00    +0.000 C 
ATOM      2  N   UNL     1       4.291   2.812  19.975  0.00  0.00    +0.000 N 
ATOM      3  N   UNL     1       3.023   2.559  20.352  0.00  0.00    +0.000 NA
ATOM      4  C   UNL     1       2.313   3.618  19.925  0.00  0.00    +0.000 A 
ATOM      5  C   UNL     1       3.150   4.521  19.208  0.00  0.00    +0.000 A 
ATOM      6  C   UNL     1       4.418   3.957  19.223  0.00  0.00    +0.000 A 
ENDROOT
BRANCH   4   7
ATOM      7  C   UNL     1       0.828   3.742  20.177  0.00  0.00    +0.000 C 
ATOM      8  F   UNL     1       0.449   4.992  20.556  0.00  0.00    +0.000 F 
ATOM      9  F   UNL     1       0.084   3.428  19.089  0.00  0.00    +0.000 F 
ATOM     10  F   UNL     1       0.433   2.900  21.172  0.00  0.00    +0.000 F 
ENDBRANCH   4   7
BRANCH   5  11
ATOM     11  C   UNL     1       2.750   5.811  18.566  0.00  0.00    +0.000 C 
BRANCH  11  12
ATOM     12  O   UNL     1       2.565   6.852  19.538  0.00  0.00    +0.000 OA
BRANCH  12  13
ATOM     13  C   UNL     1       2.085   8.017  19.044  0.00  0.00    +0.000 C 
ATOM     14  O   UNL     1       2.283   8.464  17.928  0.00  0.00    +0.000 OA
BRANCH  13  15
ATOM     15  C   UNL     1       1.303   8.732  20.081  0.00  0.00    +0.000 A 
ATOM     16  C   UNL     1       1.251   8.297  21.412  0.00  0.00    +0.000 A 
ATOM     17  C   UNL     1       0.501   9.010  22.352  0.00  0.00    +0.000 A 
ATOM     18  C   UNL     1      -0.201  10.150  21.958  0.00  0.00    +0.000 A 
ATOM     19 CL   UNL     1      -1.117  11.028  23.120  0.00  0.00    +0.000 Cl
ATOM     20  C   UNL     1      -0.163  10.584  20.634  0.00  0.00    +0.000 A 
ATOM     21  C   UNL     1       0.586   9.872  19.693  0.00  0.00    +0.000 A 
ENDBRANCH  13  15
ENDBRANCH  12  13
ENDBRANCH  11  12
ENDBRANCH   5  11
BRANCH   6  22
ATOM     22  O   UNL     1       5.540   4.484  18.717  0.00  0.00    +0.000 OA
BRANCH  22  23
ATOM     23  C   UNL     1       5.929   4.393  17.404  0.00  0.00    +0.000 A 
ATOM     24  C   UNL     1       7.166   4.830  16.932  0.00  0.00    +0.000 A 
ATOM     25  C   UNL     1       7.428   4.824  15.560  0.00  0.00    +0.000 A 
ATOM     26  C   UNL     1       6.490   4.293  14.677  0.00  0.00    +0.000 A 
ATOM     27 CL   UNL     1       6.797   4.326  12.986  0.00  0.00    +0.000 Cl
ATOM     28  C   UNL     1       5.304   3.741  15.157  0.00  0.00    +0.000 A 
ATOM     29  C   UNL     1       5.022   3.795  16.524  0.00  0.00    +0.000 A 
ENDBRANCH  22  23
ENDBRANCH   6  22
TORSDOF 7
ENDMDL
MODEL 5
REMARK VINA RESULT:      -7.9      3.645      5.434
REMARK  Name = 
REMARK  8 active torsions:
REMARK  status: ('A' for Active; 'I' for Inactive)
REMARK    1  A    between atoms: C_1  and  N_2
REMARK    2  A    between atoms: C_4  and  C_5
REMARK    3  A    between atoms: C_9  and  C_10
REMARK    4  A    between atoms: C_10  and  O_11
REMARK    5  A    between atoms: O_11  and  C_12
REMARK    6  A    between atoms: C_12  and  C_14
REMARK    7  A    between atoms: C_21  and  O_22
REMARK    8  A    between atoms: O_22  and  C_23
REMARK                            x       y       z     vdW  Elec       q    Type
REMARK                         _______ _______ _______ _____ _____    ______ ____
ROOT
ATOM      1  C   UNL     1       5.596   4.262  13.815  0.00  0.00    +0.000 C 
ATOM      2  N   UNL     1       5.872   4.626  15.186  0.00  0.00    +0.000 N 
ATOM      3  N   UNL     1       6.636   5.718  15.374  0.00  0.00    +0.000 NA
ATOM      4  C   UNL     1       6.652   5.909  16.705  0.00  0.00    +0.000 A 
ATOM      5  C   UNL     1       5.931   4.870  17.364  0.00  0.00    +0.000 A 
ATOM      6  C   UNL     1       5.468   4.033  16.359  0.00  0.00    +0.000 A 
ENDROOT
BRANCH   4   7
ATOM      7  C   UNL     1       7.385   7.067  17.342  0.00  0.00    +0.000 C 
ATOM      8  F   UNL     1       8.070   6.719  18.465  0.00  0.00    +0.000 F 
ATOM      9  F   UNL     1       8.284   7.641  16.506  0.00  0.00    +0.000 F 
ATOM     10  F   UNL     1       6.515   8.049  17.708  0.00  0.00    +0.000 F 
ENDBRANCH   4   7
BRANCH   5  11
ATOM     11  C   UNL     1       5.717   4.710  18.835  0.00  0.00    +0.000 C 
BRANCH  11  12
ATOM     12  O   UNL     1       5.074   5.861  19.407  0.00  0.00    +0.000 OA
BRANCH  12  13
ATOM     13  C   UNL     1       3.800   5.659  19.817  0.00  0.00    +0.000 C 
ATOM     14  O   UNL     1       3.367   4.661  20.367  0.00  0.00    +0.000 OA
BRANCH  13  15
ATOM     15  C   UNL     1       2.953   6.822  19.456  0.00  0.00    +0.000 A 
ATOM     16  C   UNL     1       2.038   7.387  20.354  0.00  0.00    +0.000 A 
ATOM     17  C   UNL     1       1.265   8.485  19.966  0.00  0.00    +0.000 A 
ATOM     18  C   UNL     1       1.404   9.011  18.680  0.00  0.00    +0.000 A 
ATOM     19 CL   UNL     1       0.456  10.367  18.209  0.00  0.00    +0.000 Cl
ATOM     20  C   UNL     1       2.304   8.448  17.778  0.00  0.00    +0.000 A 
ATOM     21  C   UNL     1       3.077   7.350  18.164  0.00  0.00    +0.000 A 
ENDBRANCH  13  15
ENDBRANCH  12  13
ENDBRANCH  11  12
ENDBRANCH   5  11
BRANCH   6  22
ATOM     22  O   UNL     1       4.693   2.951  16.506  0.00  0.00    +0.000 OA
BRANCH  22  23
ATOM     23  C   UNL     1       3.530   2.910  17.234  0.00  0.00    +0.000 A 
ATOM     24  C   UNL     1       2.457   3.776  17.026  0.00  0.00    +0.000 A 
ATOM     25  C   UNL     1       1.368   3.754  17.900  0.00  0.00    +0.000 A 
ATOM     26  C   UNL     1       1.312   2.803  18.917  0.00  0.00    +0.000 A 
ATOM     27 CL   UNL     1      -0.010   2.806  20.016  0.00  0.00    +0.000 Cl
ATOM     28  C   UNL     1       2.325   1.855  19.051  0.00  0.00    +0.000 A 
ATOM     29  C   UNL     1       3.438   1.911  18.209  0.00  0.00    +0.000 A 
ENDBRANCH  22  23
ENDBRANCH   6  22
TORSDOF 7
ENDMDL
MODEL 6
REMARK VINA RESULT:      -7.9      3.641      5.037
REMARK  Name = 
REMARK  8 active torsions:
REMARK  status: ('A' for Active; 'I' for Inactive)
REMARK    1  A    between atoms: C_1  and  N_2
REMARK    2  A    between atoms: C_4  and  C_5
REMARK    3  A    between atoms: C_9  and  C_10
REMARK    4  A    between atoms: C_10  and  O_11
REMARK    5  A    between atoms: O_11  and  C_12
REMARK    6  A    between atoms: C_12  and  C_14
REMARK    7  A    between atoms: C_21  and  O_22
REMARK    8  A    between atoms: O_22  and  C_23
REMARK                            x       y       z     vdW  Elec       q    Type
REMARK                         _______ _______ _______ _____ _____    ______ ____
ROOT
ATOM      1  C   UNL     1       6.357   3.836  14.740  0.00  0.00    +0.000 C 
ATOM      2  N   UNL     1       6.159   4.798  15.798  0.00  0.00    +0.000 N 
ATOM      3  N   UNL     1       7.185   5.632  16.052  0.00  0.00    +0.000 NA
ATOM      4  C   UNL     1       6.720   6.488  16.979  0.00  0.00    +0.000 A 
ATOM      5  C   UNL     1       5.392   6.136  17.358  0.00  0.00    +0.000 A 
ATOM      6  C   UNL     1       5.067   5.016  16.605  0.00  0.00    +0.000 A 
ENDROOT
BRANCH   4   7
ATOM      7  C   UNL     1       7.563   7.618  17.523  0.00  0.00    +0.000 C 
ATOM      8  F   UNL     1       8.162   7.323  18.708  0.00  0.00    +0.000 F 
ATOM      9  F   UNL     1       8.552   7.989  16.674  0.00  0.00    +0.000 F 
ATOM     10  F   UNL     1       6.803   8.728  17.739  0.00  0.00    +0.000 F 
ENDBRANCH   4   7
BRANCH   5  11
ATOM     11  C   UNL     1       4.524   6.826  18.362  0.00  0.00    +0.000 C 
BRANCH  11  12
ATOM     12  O   UNL     1       3.158   6.895  17.924  0.00  0.00    +0.000 OA
BRANCH  12  13
ATOM     13  C   UNL     1       2.626   8.139  17.905  0.00  0.00    +0.000 C 
ATOM     14  O   UNL     1       2.782   8.979  17.036  0.00  0.00    +0.000 OA
BRANCH  13  15
ATOM     15  C   UNL     1       1.844   8.383  19.141  0.00  0.00    +0.000 A 
ATOM     16  C   UNL     1       1.825   7.471  20.206  0.00  0.00    +0.000 A 
ATOM     17  C   UNL     1       1.073   7.750  21.351  0.00  0.00    +0.000 A 
ATOM     18  C   UNL     1       0.338   8.934  21.426  0.00  0.00    +0.000 A 
ATOM     19 CL   UNL     1      -0.581   9.276  22.840  0.00  0.00    +0.000 Cl
ATOM     20  C   UNL     1       0.342   9.840  20.368  0.00  0.00    +0.000 A 
ATOM     21  C   UNL     1       1.092   9.563  19.222  0.00  0.00    +0.000 A 
ENDBRANCH  13  15
ENDBRANCH  12  13
ENDBRANCH  11  12
ENDBRANCH   5  11
BRANCH   6  22
ATOM     22  O   UNL     1       3.893   4.370  16.589  0.00  0.00    +0.000 OA
BRANCH  22  23
ATOM     23  C   UNL     1       3.264   3.855  17.695  0.00  0.00    +0.000 A 
ATOM     24  C   UNL     1       1.887   3.923  17.901  0.00  0.00    +0.000 A 
ATOM     25  C   UNL     1       1.345   3.494  19.115  0.00  0.00    +0.000 A 
ATOM     26  C   UNL     1       2.168   2.913  20.076  0.00  0.00    +0.000 A 
ATOM     27 CL   UNL     1       1.505   2.426  21.586  0.00  0.00    +0.000 Cl
ATOM     28  C   UNL     1       3.527   2.731  19.824  0.00  0.00    +0.000 A 
ATOM     29  C   UNL     1       4.076   3.206  18.630  0.00  0.00    +0.000 A 
ENDBRANCH  22  23
ENDBRANCH   6  22
TORSDOF 7
ENDMDL
MODEL 7
REMARK VINA RESULT:      -7.9      1.753      2.227
REMARK  Name = 
REMARK  8 active torsions:
REMARK  status: ('A' for Active; 'I' for Inactive)
REMARK    1  A    between atoms: C_1  and  N_2
REMARK    2  A    between atoms: C_4  and  C_5
REMARK    3  A    between atoms: C_9  and  C_10
REMARK    4  A    between atoms: C_10  and  O_11
REMARK    5  A    between atoms: O_11  and  C_12
REMARK    6  A    between atoms: C_12  and  C_14
REMARK    7  A    between atoms: C_21  and  O_22
REMARK    8  A    between atoms: O_22  and  C_23
REMARK                            x       y       z     vdW  Elec       q    Type
REMARK                         _______ _______ _______ _____ _____    ______ ____
ROOT
ATOM      1  C   UNL     1       5.214   1.693  20.600  0.00  0.00    +0.000 C 
ATOM      2  N   UNL     1       4.312   2.608  19.939  0.00  0.00    +0.000 N 
ATOM      3  N   UNL     1       2.999   2.436  20.182  0.00  0.00    +0.000 NA
ATOM      4  C   UNL     1       2.390   3.460  19.557  0.00  0.00    +0.000 A 
ATOM      5  C   UNL     1       3.346   4.251  18.854  0.00  0.00    +0.000 A 
ATOM      6  C   UNL     1       4.577   3.656  19.088  0.00  0.00    +0.000 A 
ENDROOT
BRANCH   4   7
ATOM      7  C   UNL     1       0.893   3.655  19.608  0.00  0.00    +0.000 C 
ATOM      8  F   UNL     1       0.342   3.923  18.394  0.00  0.00    +0.000 F 
ATOM      9  F   UNL     1       0.239   2.574  20.097  0.00  0.00    +0.000 F 
ATOM     10  F   UNL     1       0.569   4.701  20.419  0.00  0.00    +0.000 F 
ENDBRANCH   4   7
BRANCH   5  11
ATOM     11  C   UNL     1       3.080   5.471  18.032  0.00  0.00    +0.000 C 
BRANCH  11  12
ATOM     12  O   UNL     1       3.237   6.675  18.800  0.00  0.00    +0.000 OA
BRANCH  12  13
ATOM     13  C   UNL     1       2.622   7.764  18.287  0.00  0.00    +0.000 C 
ATOM     14  O   UNL     1       2.743   8.196  17.154  0.00  0.00    +0.000 OA
BRANCH  13  15
ATOM     15  C   UNL     1       1.791   8.422  19.324  0.00  0.00    +0.000 A 
ATOM     16  C   UNL     1       1.128   9.635  19.092  0.00  0.00    +0.000 A 
ATOM     17  C   UNL     1       0.353  10.212  20.103  0.00  0.00    +0.000 A 
ATOM     18  C   UNL     1       0.249   9.580  21.343  0.00  0.00    +0.000 A 
ATOM     19 CL   UNL     1      -0.711  10.290  22.582  0.00  0.00    +0.000 Cl
ATOM     20  C   UNL     1       0.913   8.379  21.585  0.00  0.00    +0.000 A 
ATOM     21  C   UNL     1       1.688   7.802  20.576  0.00  0.00    +0.000 A 
ENDBRANCH  13  15
ENDBRANCH  12  13
ENDBRANCH  11  12
ENDBRANCH   5  11
BRANCH   6  22
ATOM     22  O   UNL     1       5.773   4.089  18.670  0.00  0.00    +0.000 OA
BRANCH  22  23
ATOM     23  C   UNL     1       6.104   4.346  17.363  0.00  0.00    +0.000 A 
ATOM     24  C   UNL     1       5.647   3.585  16.287  0.00  0.00    +0.000 A 
ATOM     25  C   UNL     1       6.139   3.832  15.004  0.00  0.00    +0.000 A 
ATOM     26  C   UNL     1       7.009   4.898  14.787  0.00  0.00    +0.000 A 
ATOM     27 CL   UNL     1       7.646   5.173  13.214  0.00  0.00    +0.000 Cl
ATOM     28  C   UNL     1       7.371   5.737  15.839  0.00  0.00    +0.000 A 
ATOM     29  C   UNL     1       6.919   5.458  17.131  0.00  0.00    +0.000 A 
ENDBRANCH  22  23
ENDBRANCH   6  22
TORSDOF 7
ENDMDL
MODEL 8
REMARK VINA RESULT:      -7.9      3.770      7.408
REMARK  Name = 
REMARK  8 active torsions:
REMARK  status: ('A' for Active; 'I' for Inactive)
REMARK    1  A    between atoms: C_1  and  N_2
REMARK    2  A    between atoms: C_4  and  C_5
REMARK    3  A    between atoms: C_9  and  C_10
REMARK    4  A    between atoms: C_10  and  O_11
REMARK    5  A    between atoms: O_11  and  C_12
REMARK    6  A    between atoms: C_12  and  C_14
REMARK    7  A    between atoms: C_21  and  O_22
REMARK    8  A    between atoms: O_22  and  C_23
REMARK                            x       y       z     vdW  Elec       q    Type
REMARK                         _______ _______ _______ _____ _____    ______ ____
ROOT
ATOM      1  C   UNL     1       3.227   4.049  20.245  0.00  0.00    +0.000 C 
ATOM      2  N   UNL     1       4.216   4.856  19.569  0.00  0.00    +0.000 N 
ATOM      3  N   UNL     1       5.505   4.590  19.855  0.00  0.00    +0.000 NA
ATOM      4  C   UNL     1       6.217   5.379  19.031  0.00  0.00    +0.000 A 
ATOM      5  C   UNL     1       5.347   6.203  18.258  0.00  0.00    +0.000 A 
ATOM      6  C   UNL     1       4.058   5.869  18.652  0.00  0.00    +0.000 A 
ENDROOT
BRANCH   4   7
ATOM      7  C   UNL     1       7.727   5.365  19.012  0.00  0.00    +0.000 C 
ATOM      8  F   UNL     1       8.273   6.552  18.634  0.00  0.00    +0.000 F 
ATOM      9  F   UNL     1       8.264   5.061  20.218  0.00  0.00    +0.000 F 
ATOM     10  F   UNL     1       8.192   4.430  18.136  0.00  0.00    +0.000 F 
ENDBRANCH   4   7
BRANCH   5  11
ATOM     11  C   UNL     1       5.737   7.219  17.233  0.00  0.00    +0.000 C 
BRANCH  11  12
ATOM     12  O   UNL     1       5.659   6.687  15.900  0.00  0.00    +0.000 OA
BRANCH  12  13
ATOM     13  C   UNL     1       6.782   6.073  15.464  0.00  0.00    +0.000 C 
ATOM     14  O   UNL     1       7.923   6.312  15.821  0.00  0.00    +0.000 OA
BRANCH  13  15
ATOM     15  C   UNL     1       6.449   5.070  14.423  0.00  0.00    +0.000 A 
ATOM     16  C   UNL     1       5.293   4.280  14.489  0.00  0.00    +0.000 A 
ATOM     17  C   UNL     1       5.023   3.351  13.480  0.00  0.00    +0.000 A 
ATOM     18  C   UNL     1       5.911   3.209  12.413  0.00  0.00    +0.000 A 
ATOM     19 CL   UNL     1       5.572   2.070  11.169  0.00  0.00    +0.000 Cl
ATOM     20  C   UNL     1       7.068   3.984  12.345  0.00  0.00    +0.000 A 
ATOM     21  C   UNL     1       7.340   4.912  13.353  0.00  0.00    +0.000 A 
ENDBRANCH  13  15
ENDBRANCH  12  13
ENDBRANCH  11  12
ENDBRANCH   5  11
BRANCH   6  22
ATOM     22  O   UNL     1       2.913   6.352  18.153  0.00  0.00    +0.000 OA
BRANCH  22  23
ATOM     23  C   UNL     1       2.261   7.467  18.618  0.00  0.00    +0.000 A 
ATOM     24  C   UNL     1       1.918   7.658  19.956  0.00  0.00    +0.000 A 
ATOM     25  C   UNL     1       1.136   8.757  20.321  0.00  0.00    +0.000 A 
ATOM     26  C   UNL     1       0.783   9.707  19.365  0.00  0.00    +0.000 A 
ATOM     27 CL   UNL     1      -0.214  11.034  19.810  0.00  0.00    +0.000 Cl
ATOM     28  C   UNL     1       1.229   9.583  18.051  0.00  0.00    +0.000 A 
ATOM     29  C   UNL     1       1.967   8.457  17.677  0.00  0.00    +0.000 A 
ENDBRANCH  22  23
ENDBRANCH   6  22
TORSDOF 7
ENDMDL
MODEL 9
REMARK VINA RESULT:      -7.9      3.669      5.193
REMARK  Name = 
REMARK  8 active torsions:
REMARK  status: ('A' for Active; 'I' for Inactive)
REMARK    1  A    between atoms: C_1  and  N_2
REMARK    2  A    between atoms: C_4  and  C_5
REMARK    3  A    between atoms: C_9  and  C_10
REMARK    4  A    between atoms: C_10  and  O_11
REMARK    5  A    between atoms: O_11  and  C_12
REMARK    6  A    between atoms: C_12  and  C_14
REMARK    7  A    between atoms: C_21  and  O_22
REMARK    8  A    between atoms: O_22  and  C_23
REMARK                            x       y       z     vdW  Elec       q    Type
REMARK                         _______ _______ _______ _____ _____    ______ ____
ROOT
ATOM      1  C   UNL     1       6.677   4.094  14.116  0.00  0.00    +0.000 C 
ATOM      2  N   UNL     1       6.491   4.737  15.396  0.00  0.00    +0.000 N 
ATOM      3  N   UNL     1       7.335   5.743  15.691  0.00  0.00    +0.000 NA
ATOM      4  C   UNL     1       6.894   6.241  16.859  0.00  0.00    +0.000 A 
ATOM      5  C   UNL     1       5.784   5.482  17.334  0.00  0.00    +0.000 A 
ATOM      6  C   UNL     1       5.568   4.492  16.386  0.00  0.00    +0.000 A 
ENDROOT
BRANCH   4   7
ATOM      7  C   UNL     1       7.557   7.420  17.532  0.00  0.00    +0.000 C 
ATOM      8  F   UNL     1       8.521   8.003  16.770  0.00  0.00    +0.000 F 
ATOM      9  F   UNL     1       6.680   8.400  17.858  0.00  0.00    +0.000 F 
ATOM     10  F   UNL     1       8.160   7.039  18.693  0.00  0.00    +0.000 F 
ENDBRANCH   4   7
BRANCH   5  11
ATOM     11  C   UNL     1       5.010   5.703  18.594  0.00  0.00    +0.000 C 
BRANCH  11  12
ATOM     12  O   UNL     1       3.905   6.597  18.390  0.00  0.00    +0.000 OA
BRANCH  12  13
ATOM     13  C   UNL     1       3.020   6.655  19.411  0.00  0.00    +0.000 C 
ATOM     14  O   UNL     1       2.904   5.845  20.314  0.00  0.00    +0.000 OA
BRANCH  13  15
ATOM     15  C   UNL     1       2.143   7.842  19.265  0.00  0.00    +0.000 A 
ATOM     16  C   UNL     1       2.019   8.536  18.054  0.00  0.00    +0.000 A 
ATOM     17  C   UNL     1       1.176   9.647  17.968  0.00  0.00    +0.000 A 
ATOM     18  C   UNL     1       0.464  10.066  19.093  0.00  0.00    +0.000 A 
ATOM     19 CL   UNL     1      -0.578  11.430  18.981  0.00  0.00    +0.000 Cl
ATOM     20  C   UNL     1       0.589   9.388  20.304  0.00  0.00    +0.000 A 
ATOM     21  C   UNL     1       1.433   8.278  20.392  0.00  0.00    +0.000 A 
ENDBRANCH  13  15
ENDBRANCH  12  13
ENDBRANCH  11  12
ENDBRANCH   5  11
BRANCH   6  22
ATOM     22  O   UNL     1       4.590   3.576  16.387  0.00  0.00    +0.000 OA
BRANCH  22  23
ATOM     23  C   UNL     1       3.718   3.358  17.424  0.00  0.00    +0.000 A 
ATOM     24  C   UNL     1       4.080   2.741  18.621  0.00  0.00    +0.000 A 
ATOM     25  C   UNL     1       3.101   2.437  19.569  0.00  0.00    +0.000 A 
ATOM     26  C   UNL     1       1.783   2.837  19.359  0.00  0.00    +0.000 A 
ATOM     27 CL   UNL     1       0.573   2.424  20.508  0.00  0.00    +0.000 Cl
ATOM     28  C   UNL     1       1.440   3.564  18.220  0.00  0.00    +0.000 A 
ATOM     29  C   UNL     1       2.411   3.822  17.249  0.00  0.00    +0.000 A 
ENDBRANCH  22  23
ENDBRANCH   6  22
TORSDOF 7
ENDMDL
