MODEL 1
REMARK VINA RESULT:      -6.9      0.000      0.000
REMARK  Name = 
REMARK  5 active torsions:
REMARK  status: ('A' for Active; 'I' for Inactive)
REMARK    1  A    between atoms: P_2  and  O_3
REMARK    2  A    between atoms: P_2  and  C_8
REMARK    3  A    between atoms: P_2  and  C_14
REMARK    4  A    between atoms: O_3  and  C_4
REMARK    5  A    between atoms: C_4  and  C_5
REMARK                            x       y       z     vdW  Elec       q    Type
REMARK                         _______ _______ _______ _____ _____    ______ ____
ROOT
ATOM      1  O   UNL     1       5.629   3.788  19.331  0.00  0.00    +0.000 OA
ATOM      2  P   UNL     1       4.673   4.991  19.133  0.00  0.00    +0.000 P 
ENDROOT
BRANCH   2   3
ATOM      3  C   UNL     1       3.189   3.721  19.328  0.00  0.00    +0.000 A 
ATOM      4  C   UNL     1       2.362   3.542  18.196  0.00  0.00    +0.000 A 
ATOM      5  C   UNL     1       1.094   2.969  18.337  0.00  0.00    +0.000 A 
ATOM      6  C   UNL     1       0.660   2.571  19.597  0.00  0.00    +0.000 A 
ATOM      7  C   UNL     1       1.496   2.703  20.711  0.00  0.00    +0.000 A 
ATOM      8  C   UNL     1       2.762   3.287  20.585  0.00  0.00    +0.000 A 
ENDBRANCH   2   3
BRANCH   2   9
ATOM      9  C   UNL     1       3.544   6.412  18.900  0.00  0.00    +0.000 A 
ATOM     10  C   UNL     1       2.629   6.823  19.884  0.00  0.00    +0.000 A 
ATOM     11  C   UNL     1       1.760   7.900  19.663  0.00  0.00    +0.000 A 
ATOM     12  C   UNL     1       1.809   8.613  18.468  0.00  0.00    +0.000 A 
ATOM     13  C   UNL     1       2.752   8.273  17.507  0.00  0.00    +0.000 A 
ATOM     14  C   UNL     1       3.618   7.201  17.733  0.00  0.00    +0.000 A 
ENDBRANCH   2   9
BRANCH   2  15
ATOM     15  O   UNL     1       4.893   4.957  17.458  0.00  0.00    +0.000 OA
BRANCH  15  16
ATOM     16  C   UNL     1       6.224   4.647  17.046  0.00  0.00    +0.000 C 
BRANCH  16  17
ATOM     17  C   UNL     1       6.211   3.975  15.712  0.00  0.00    +0.000 C 
ATOM     18  C   UNL     1       5.396   4.475  14.547  0.00  0.00    +0.000 C 
ATOM     19  C   UNL     1       6.888   4.653  14.545  0.00  0.00    +0.000 C 
ENDBRANCH  16  17
ENDBRANCH  15  16
ENDBRANCH   2  15
TORSDOF 5
ENDMDL
MODEL 2
REMARK VINA RESULT:      -6.9      0.877      1.868
REMARK  Name = 
REMARK  5 active torsions:
REMARK  status: ('A' for Active; 'I' for Inactive)
REMARK    1  A    between atoms: P_2  and  O_3
REMARK    2  A    between atoms: P_2  and  C_8
REMARK    3  A    between atoms: P_2  and  C_14
REMARK    4  A    between atoms: O_3  and  C_4
REMARK    5  A    between atoms: C_4  and  C_5
REMARK                            x       y       z     vdW  Elec       q    Type
REMARK                         _______ _______ _______ _____ _____    ______ ____
ROOT
ATOM      1  O   UNL     1       4.844   4.322  19.012  0.00  0.00    +0.000 OA
ATOM      2  P   UNL     1       3.963   5.595  18.958  0.00  0.00    +0.000 P 
ENDROOT
BRANCH   2   3
ATOM      3  C   UNL     1       2.432   4.438  19.373  0.00  0.00    +0.000 A 
ATOM      4  C   UNL     1       2.363   3.938  20.694  0.00  0.00    +0.000 A 
ATOM      5  C   UNL     1       1.551   2.837  20.984  0.00  0.00    +0.000 A 
ATOM      6  C   UNL     1       0.809   2.246  19.967  0.00  0.00    +0.000 A 
ATOM      7  C   UNL     1       0.840   2.770  18.670  0.00  0.00    +0.000 A 
ATOM      8  C   UNL     1       1.658   3.864  18.364  0.00  0.00    +0.000 A 
ENDBRANCH   2   3
BRANCH   2   9
ATOM      9  C   UNL     1       2.922   7.099  18.895  0.00  0.00    +0.000 A 
ATOM     10  C   UNL     1       2.837   7.915  17.754  0.00  0.00    +0.000 A 
ATOM     11  C   UNL     1       2.050   9.074  17.747  0.00  0.00    +0.000 A 
ATOM     12  C   UNL     1       1.303   9.427  18.868  0.00  0.00    +0.000 A 
ATOM     13  C   UNL     1       1.313   8.602  19.984  0.00  0.00    +0.000 A 
ATOM     14  C   UNL     1       2.097   7.445  19.985  0.00  0.00    +0.000 A 
ENDBRANCH   2   9
BRANCH   2  15
ATOM     15  O   UNL     1       3.927   5.563  17.269  0.00  0.00    +0.000 OA
BRANCH  15  16
ATOM     16  C   UNL     1       4.791   4.590  16.682  0.00  0.00    +0.000 C 
BRANCH  16  17
ATOM     17  C   UNL     1       5.476   5.159  15.483  0.00  0.00    +0.000 C 
ATOM     18  C   UNL     1       6.907   4.848  15.126  0.00  0.00    +0.000 C 
ATOM     19  C   UNL     1       5.789   4.251  14.318  0.00  0.00    +0.000 C 
ENDBRANCH  16  17
ENDBRANCH  15  16
ENDBRANCH   2  15
TORSDOF 5
ENDMDL
MODEL 3
REMARK VINA RESULT:      -6.9      1.037      1.662
REMARK  Name = 
REMARK  5 active torsions:
REMARK  status: ('A' for Active; 'I' for Inactive)
REMARK    1  A    between atoms: P_2  and  O_3
REMARK    2  A    between atoms: P_2  and  C_8
REMARK    3  A    between atoms: P_2  and  C_14
REMARK    4  A    between atoms: O_3  and  C_4
REMARK    5  A    between atoms: C_4  and  C_5
REMARK                            x       y       z     vdW  Elec       q    Type
REMARK                         _______ _______ _______ _____ _____    ______ ____
ROOT
ATOM      1  O   UNL     1       4.717   4.664  19.252  0.00  0.00    +0.000 OA
ATOM      2  P   UNL     1       3.779   5.893  19.156  0.00  0.00    +0.000 P 
ENDROOT
BRANCH   2   3
ATOM      3  C   UNL     1       2.284   4.654  19.450  0.00  0.00    +0.000 A 
ATOM      4  C   UNL     1       2.121   4.170  20.768  0.00  0.00    +0.000 A 
ATOM      5  C   UNL     1       1.349   3.027  21.004  0.00  0.00    +0.000 A 
ATOM      6  C   UNL     1       0.739   2.381  19.934  0.00  0.00    +0.000 A 
ATOM      7  C   UNL     1       0.861   2.887  18.635  0.00  0.00    +0.000 A 
ATOM      8  C   UNL     1       1.641   4.022  18.385  0.00  0.00    +0.000 A 
ENDBRANCH   2   3
BRANCH   2   9
ATOM      9  C   UNL     1       2.671   7.344  19.042  0.00  0.00    +0.000 A 
ATOM     10  C   UNL     1       1.921   7.814  20.134  0.00  0.00    +0.000 A 
ATOM     11  C   UNL     1       1.062   8.913  20.006  0.00  0.00    +0.000 A 
ATOM     12  C   UNL     1       0.959   9.591  18.794  0.00  0.00    +0.000 A 
ATOM     13  C   UNL     1       1.741   9.193  17.719  0.00  0.00    +0.000 A 
ATOM     14  C   UNL     1       2.599   8.098  17.852  0.00  0.00    +0.000 A 
ENDBRANCH   2   9
BRANCH   2  15
ATOM     15  O   UNL     1       3.859   5.887  17.468  0.00  0.00    +0.000 OA
BRANCH  15  16
ATOM     16  C   UNL     1       4.709   4.878  16.924  0.00  0.00    +0.000 C 
BRANCH  16  17
ATOM     17  C   UNL     1       5.411   5.390  15.708  0.00  0.00    +0.000 C 
ATOM     18  C   UNL     1       6.809   4.975  15.329  0.00  0.00    +0.000 C 
ATOM     19  C   UNL     1       5.638   4.454  14.545  0.00  0.00    +0.000 C 
ENDBRANCH  16  17
ENDBRANCH  15  16
ENDBRANCH   2  15
TORSDOF 5
ENDMDL
MODEL 4
REMARK VINA RESULT:      -6.8      1.833      4.824
REMARK  Name = 
REMARK  5 active torsions:
REMARK  status: ('A' for Active; 'I' for Inactive)
REMARK    1  A    between atoms: P_2  and  O_3
REMARK    2  A    between atoms: P_2  and  C_8
REMARK    3  A    between atoms: P_2  and  C_14
REMARK    4  A    between atoms: O_3  and  C_4
REMARK    5  A    between atoms: C_4  and  C_5
REMARK                            x       y       z     vdW  Elec       q    Type
REMARK                         _______ _______ _______ _____ _____    ______ ____
ROOT
ATOM      1  O   UNL     1       4.285   3.835  17.618  0.00  0.00    +0.000 OA
ATOM      2  P   UNL     1       3.547   5.113  18.091  0.00  0.00    +0.000 P 
ENDROOT
BRANCH   2   3
ATOM      3  C   UNL     1       5.317   5.909  18.389  0.00  0.00    +0.000 A 
ATOM      4  C   UNL     1       5.750   6.852  17.429  0.00  0.00    +0.000 A 
ATOM      5  C   UNL     1       7.105   7.188  17.338  0.00  0.00    +0.000 A 
ATOM      6  C   UNL     1       8.017   6.593  18.203  0.00  0.00    +0.000 A 
ATOM      7  C   UNL     1       7.582   5.695  19.185  0.00  0.00    +0.000 A 
ATOM      8  C   UNL     1       6.231   5.342  19.278  0.00  0.00    +0.000 A 
ENDBRANCH   2   3
BRANCH   2   9
ATOM      9  C   UNL     1       2.676   6.622  18.650  0.00  0.00    +0.000 A 
ATOM     10  C   UNL     1       2.329   7.666  17.776  0.00  0.00    +0.000 A 
ATOM     11  C   UNL     1       1.685   8.819  18.241  0.00  0.00    +0.000 A 
ATOM     12  C   UNL     1       1.340   8.942  19.585  0.00  0.00    +0.000 A 
ATOM     13  C   UNL     1       1.606   7.896  20.457  0.00  0.00    +0.000 A 
ATOM     14  C   UNL     1       2.246   6.746  19.988  0.00  0.00    +0.000 A 
ENDBRANCH   2   9
BRANCH   2  15
ATOM     15  O   UNL     1       3.250   4.440  19.613  0.00  0.00    +0.000 OA
BRANCH  15  16
ATOM     16  C   UNL     1       3.224   3.014  19.629  0.00  0.00    +0.000 C 
BRANCH  16  17
ATOM     17  C   UNL     1       1.864   2.523  20.006  0.00  0.00    +0.000 C 
ATOM     18  C   UNL     1       0.648   3.413  20.038  0.00  0.00    +0.000 C 
ATOM     19  C   UNL     1       0.806   2.404  18.936  0.00  0.00    +0.000 C 
ENDBRANCH  16  17
ENDBRANCH  15  16
ENDBRANCH   2  15
TORSDOF 5
ENDMDL
MODEL 5
REMARK VINA RESULT:      -6.7      1.618      4.902
REMARK  Name = 
REMARK  5 active torsions:
REMARK  status: ('A' for Active; 'I' for Inactive)
REMARK    1  A    between atoms: P_2  and  O_3
REMARK    2  A    between atoms: P_2  and  C_8
REMARK    3  A    between atoms: P_2  and  C_14
REMARK    4  A    between atoms: O_3  and  C_4
REMARK    5  A    between atoms: C_4  and  C_5
REMARK                            x       y       z     vdW  Elec       q    Type
REMARK                         _______ _______ _______ _____ _____    ______ ____
ROOT
ATOM      1  O   UNL     1       4.409   3.331  17.000  0.00  0.00    +0.000 OA
ATOM      2  P   UNL     1       3.793   4.637  17.560  0.00  0.00    +0.000 P 
ENDROOT
BRANCH   2   3
ATOM      3  C   UNL     1       5.629   5.296  17.781  0.00  0.00    +0.000 A 
ATOM      4  C   UNL     1       6.243   5.039  19.028  0.00  0.00    +0.000 A 
ATOM      5  C   UNL     1       7.371   5.769  19.418  0.00  0.00    +0.000 A 
ATOM      6  C   UNL     1       7.885   6.741  18.566  0.00  0.00    +0.000 A 
ATOM      7  C   UNL     1       7.307   6.963  17.311  0.00  0.00    +0.000 A 
ATOM      8  C   UNL     1       6.171   6.248  16.915  0.00  0.00    +0.000 A 
ENDBRANCH   2   3
BRANCH   2   9
ATOM      9  C   UNL     1       3.065   6.180  18.223  0.00  0.00    +0.000 A 
ATOM     10  C   UNL     1       2.606   6.296  19.546  0.00  0.00    +0.000 A 
ATOM     11  C   UNL     1       2.031   7.484  20.014  0.00  0.00    +0.000 A 
ATOM     12  C   UNL     1       1.931   8.596  19.181  0.00  0.00    +0.000 A 
ATOM     13  C   UNL     1       2.440   8.532  17.891  0.00  0.00    +0.000 A 
ATOM     14  C   UNL     1       3.016   7.346  17.431  0.00  0.00    +0.000 A 
ENDBRANCH   2   9
BRANCH   2  15
ATOM     15  O   UNL     1       3.534   3.928  19.072  0.00  0.00    +0.000 OA
BRANCH  15  16
ATOM     16  C   UNL     1       2.907   2.647  19.020  0.00  0.00    +0.000 C 
BRANCH  16  17
ATOM     17  C   UNL     1       2.173   2.376  20.293  0.00  0.00    +0.000 C 
ATOM     18  C   UNL     1       2.183   3.322  21.466  0.00  0.00    +0.000 C 
ATOM     19  C   UNL     1       0.947   3.194  20.620  0.00  0.00    +0.000 C 
ENDBRANCH  16  17
ENDBRANCH  15  16
ENDBRANCH   2  15
TORSDOF 5
ENDMDL
MODEL 6
REMARK VINA RESULT:      -6.7      1.843      4.805
REMARK  Name = 
REMARK  5 active torsions:
REMARK  status: ('A' for Active; 'I' for Inactive)
REMARK    1  A    between atoms: P_2  and  O_3
REMARK    2  A    between atoms: P_2  and  C_8
REMARK    3  A    between atoms: P_2  and  C_14
REMARK    4  A    between atoms: O_3  and  C_4
REMARK    5  A    between atoms: C_4  and  C_5
REMARK                            x       y       z     vdW  Elec       q    Type
REMARK                         _______ _______ _______ _____ _____    ______ ____
ROOT
ATOM      1  O   UNL     1       4.548   4.347  16.811  0.00  0.00    +0.000 OA
ATOM      2  P   UNL     1       3.755   5.452  17.551  0.00  0.00    +0.000 P 
ENDROOT
BRANCH   2   3
ATOM      3  C   UNL     1       5.481   6.118  18.208  0.00  0.00    +0.000 A 
ATOM      4  C   UNL     1       6.145   7.058  17.388  0.00  0.00    +0.000 A 
ATOM      5  C   UNL     1       7.510   7.304  17.567  0.00  0.00    +0.000 A 
ATOM      6  C   UNL     1       8.203   6.623  18.562  0.00  0.00    +0.000 A 
ATOM      7  C   UNL     1       7.536   5.727  19.405  0.00  0.00    +0.000 A 
ATOM      8  C   UNL     1       6.173   5.464  19.228  0.00  0.00    +0.000 A 
ENDBRANCH   2   3
BRANCH   2   9
ATOM      9  C   UNL     1       2.817   6.758  18.424  0.00  0.00    +0.000 A 
ATOM     10  C   UNL     1       2.448   6.652  19.777  0.00  0.00    +0.000 A 
ATOM     11  C   UNL     1       1.708   7.660  20.409  0.00  0.00    +0.000 A 
ATOM     12  C   UNL     1       1.349   8.813  19.715  0.00  0.00    +0.000 A 
ATOM     13  C   UNL     1       1.760   8.976  18.399  0.00  0.00    +0.000 A 
ATOM     14  C   UNL     1       2.501   7.970  17.775  0.00  0.00    +0.000 A 
ENDBRANCH   2   9
BRANCH   2  15
ATOM     15  O   UNL     1       3.336   4.391  18.797  0.00  0.00    +0.000 OA
BRANCH  15  16
ATOM     16  C   UNL     1       2.695   3.194  18.358  0.00  0.00    +0.000 C 
BRANCH  16  17
ATOM     17  C   UNL     1       2.008   2.523  19.503  0.00  0.00    +0.000 C 
ATOM     18  C   UNL     1       1.850   3.164  20.858  0.00  0.00    +0.000 C 
ATOM     19  C   UNL     1       0.660   3.034  19.950  0.00  0.00    +0.000 C 
ENDBRANCH  16  17
ENDBRANCH  15  16
ENDBRANCH   2  15
TORSDOF 5
ENDMDL
MODEL 7
REMARK VINA RESULT:      -6.7      1.655      5.047
REMARK  Name = 
REMARK  5 active torsions:
REMARK  status: ('A' for Active; 'I' for Inactive)
REMARK    1  A    between atoms: P_2  and  O_3
REMARK    2  A    between atoms: P_2  and  C_8
REMARK    3  A    between atoms: P_2  and  C_14
REMARK    4  A    between atoms: O_3  and  C_4
REMARK    5  A    between atoms: C_4  and  C_5
REMARK                            x       y       z     vdW  Elec       q    Type
REMARK                         _______ _______ _______ _____ _____    ______ ____
ROOT
ATOM      1  O   UNL     1       4.412   3.397  17.126  0.00  0.00    +0.000 OA
ATOM      2  P   UNL     1       3.786   4.719  17.637  0.00  0.00    +0.000 P 
ENDROOT
BRANCH   2   3
ATOM      3  C   UNL     1       5.615   5.421  17.772  0.00  0.00    +0.000 A 
ATOM      4  C   UNL     1       6.334   5.080  18.940  0.00  0.00    +0.000 A 
ATOM      5  C   UNL     1       7.468   5.814  19.303  0.00  0.00    +0.000 A 
ATOM      6  C   UNL     1       7.885   6.871  18.502  0.00  0.00    +0.000 A 
ATOM      7  C   UNL     1       7.202   7.178  17.320  0.00  0.00    +0.000 A 
ATOM      8  C   UNL     1       6.058   6.460  16.952  0.00  0.00    +0.000 A 
ENDBRANCH   2   3
BRANCH   2   9
ATOM      9  C   UNL     1       3.048   6.280  18.242  0.00  0.00    +0.000 A 
ATOM     10  C   UNL     1       2.859   7.401  17.414  0.00  0.00    +0.000 A 
ATOM     11  C   UNL     1       2.313   8.590  17.915  0.00  0.00    +0.000 A 
ATOM     12  C   UNL     1       1.912   8.677  19.246  0.00  0.00    +0.000 A 
ATOM     13  C   UNL     1       2.022   7.563  20.068  0.00  0.00    +0.000 A 
ATOM     14  C   UNL     1       2.562   6.379  19.562  0.00  0.00    +0.000 A 
ENDBRANCH   2   9
BRANCH   2  15
ATOM     15  O   UNL     1       3.583   4.083  19.190  0.00  0.00    +0.000 OA
BRANCH  15  16
ATOM     16  C   UNL     1       3.035   2.765  19.217  0.00  0.00    +0.000 C 
BRANCH  16  17
ATOM     17  C   UNL     1       2.344   2.517  20.518  0.00  0.00    +0.000 C 
ATOM     18  C   UNL     1       2.189   3.573  21.582  0.00  0.00    +0.000 C 
ATOM     19  C   UNL     1       0.999   3.156  20.766  0.00  0.00    +0.000 C 
ENDBRANCH  16  17
ENDBRANCH  15  16
ENDBRANCH   2  15
TORSDOF 5
ENDMDL
MODEL 8
REMARK VINA RESULT:      -6.7      2.318      4.843
REMARK  Name = 
REMARK  5 active torsions:
REMARK  status: ('A' for Active; 'I' for Inactive)
REMARK    1  A    between atoms: P_2  and  O_3
REMARK    2  A    between atoms: P_2  and  C_8
REMARK    3  A    between atoms: P_2  and  C_14
REMARK    4  A    between atoms: O_3  and  C_4
REMARK    5  A    between atoms: C_4  and  C_5
REMARK                            x       y       z     vdW  Elec       q    Type
REMARK                         _______ _______ _______ _____ _____    ______ ____
ROOT
ATOM      1  O   UNL     1       5.527   6.620  15.153  0.00  0.00    +0.000 OA
ATOM      2  P   UNL     1       4.743   5.696  16.118  0.00  0.00    +0.000 P 
ENDROOT
BRANCH   2   3
ATOM      3  C   UNL     1       6.001   6.253  17.519  0.00  0.00    +0.000 A 
ATOM      4  C   UNL     1       6.766   7.411  17.252  0.00  0.00    +0.000 A 
ATOM      5  C   UNL     1       7.924   7.672  17.991  0.00  0.00    +0.000 A 
ATOM      6  C   UNL     1       8.311   6.788  18.993  0.00  0.00    +0.000 A 
ATOM      7  C   UNL     1       7.529   5.666  19.289  0.00  0.00    +0.000 A 
ATOM      8  C   UNL     1       6.374   5.387  18.549  0.00  0.00    +0.000 A 
ENDBRANCH   2   3
BRANCH   2   9
ATOM      9  C   UNL     1       3.818   4.605  17.259  0.00  0.00    +0.000 A 
ATOM     10  C   UNL     1       2.816   5.083  18.121  0.00  0.00    +0.000 A 
ATOM     11  C   UNL     1       2.144   4.224  19.001  0.00  0.00    +0.000 A 
ATOM     12  C   UNL     1       2.432   2.861  19.015  0.00  0.00    +0.000 A 
ATOM     13  C   UNL     1       3.366   2.351  18.124  0.00  0.00    +0.000 A 
ATOM     14  C   UNL     1       4.031   3.211  17.247  0.00  0.00    +0.000 A 
ENDBRANCH   2   9
BRANCH   2  15
ATOM     15  O   UNL     1       5.528   4.323  15.524  0.00  0.00    +0.000 OA
BRANCH  15  16
ATOM     16  C   UNL     1       6.361   4.567  14.391  0.00  0.00    +0.000 C 
BRANCH  16  17
ATOM     17  C   UNL     1       6.228   3.456  13.400  0.00  0.00    +0.000 C 
ATOM     18  C   UNL     1       5.262   3.497  12.244  0.00  0.00    +0.000 C 
ATOM     19  C   UNL     1       6.734   3.666  11.993  0.00  0.00    +0.000 C 
ENDBRANCH  16  17
ENDBRANCH  15  16
ENDBRANCH   2  15
TORSDOF 5
ENDMDL
MODEL 9
REMARK VINA RESULT:      -6.7      0.469      1.192
REMARK  Name = 
REMARK  5 active torsions:
REMARK  status: ('A' for Active; 'I' for Inactive)
REMARK    1  A    between atoms: P_2  and  O_3
REMARK    2  A    between atoms: P_2  and  C_8
REMARK    3  A    between atoms: P_2  and  C_14
REMARK    4  A    between atoms: O_3  and  C_4
REMARK    5  A    between atoms: C_4  and  C_5
REMARK                            x       y       z     vdW  Elec       q    Type
REMARK                         _______ _______ _______ _____ _____    ______ ____
ROOT
ATOM      1  O   UNL     1       6.079   3.982  19.053  0.00  0.00    +0.000 OA
ATOM      2  P   UNL     1       5.018   5.105  18.944  0.00  0.00    +0.000 P 
ENDROOT
BRANCH   2   3
ATOM      3  C   UNL     1       3.655   3.695  19.027  0.00  0.00    +0.000 A 
ATOM      4  C   UNL     1       2.894   3.488  17.854  0.00  0.00    +0.000 A 
ATOM      5  C   UNL     1       1.681   2.794  17.918  0.00  0.00    +0.000 A 
ATOM      6  C   UNL     1       1.238   2.304  19.142  0.00  0.00    +0.000 A 
ATOM      7  C   UNL     1       2.014   2.466  20.295  0.00  0.00    +0.000 A 
ATOM      8  C   UNL     1       3.223   3.170  20.246  0.00  0.00    +0.000 A 
ENDBRANCH   2   3
BRANCH   2   9
ATOM      9  C   UNL     1       3.765   6.433  18.816  0.00  0.00    +0.000 A 
ATOM     10  C   UNL     1       3.661   7.272  17.693  0.00  0.00    +0.000 A 
ATOM     11  C   UNL     1       2.707   8.296  17.637  0.00  0.00    +0.000 A 
ATOM     12  C   UNL     1       1.810   8.483  18.687  0.00  0.00    +0.000 A 
ATOM     13  C   UNL     1       1.844   7.623  19.776  0.00  0.00    +0.000 A 
ATOM     14  C   UNL     1       2.795   6.602  19.825  0.00  0.00    +0.000 A 
ENDBRANCH   2   9
BRANCH   2  15
ATOM     15  O   UNL     1       5.241   5.225  17.273  0.00  0.00    +0.000 OA
BRANCH  15  16
ATOM     16  C   UNL     1       6.556   4.889  16.831  0.00  0.00    +0.000 C 
BRANCH  16  17
ATOM     17  C   UNL     1       6.490   4.063  15.588  0.00  0.00    +0.000 C 
ATOM     18  C   UNL     1       5.476   4.297  14.497  0.00  0.00    +0.000 C 
ATOM     19  C   UNL     1       6.912   4.680  14.275  0.00  0.00    +0.000 C 
ENDBRANCH  16  17
ENDBRANCH  15  16
ENDBRANCH   2  15
TORSDOF 5
ENDMDL
