MODEL 1
REMARK VINA RESULT:      -8.2      0.000      0.000
REMARK  Name = 
REMARK  5 active torsions:
REMARK  status: ('A' for Active; 'I' for Inactive)
REMARK    1  A    between atoms: O_1  and  C_2
REMARK    2  A    between atoms: N_4  and  C_5
REMARK    3  A    between atoms: C_5  and  C_6
REMARK    4  A    between atoms: C_15  and  N_16
REMARK    5  A    between atoms: N_19  and  C_20
REMARK                            x       y       z     vdW  Elec       q    Type
REMARK                         _______ _______ _______ _____ _____    ______ ____
ROOT
ATOM      1  C   UNL     1       1.085   3.217  18.979  0.00  0.00    +0.000 C 
ATOM      2  C   UNL     1       1.465   4.665  19.303  0.00  0.00    +0.000 C 
ATOM      3  N   UNL     1       1.620   5.035  20.722  0.00  0.00    +0.000 NA
ATOM      4  C   UNL     1       2.221   3.997  21.568  0.00  0.00    +0.000 C 
ATOM      5  C   UNL     1       1.884   2.541  21.216  0.00  0.00    +0.000 C 
ATOM      6  C   UNL     1       2.003   2.209  19.708  0.00  0.00    +0.000 C 
ENDROOT
BRANCH   6   7
ATOM      7  N   UNL     1       3.351   1.933  19.167  0.00  0.00    +0.000 NA
ATOM      8  C   UNL     1       3.593   2.182  17.731  0.00  0.00    +0.000 C 
ATOM      9  C   UNL     1       4.159   3.587  17.374  0.00  0.00    +0.000 C 
ATOM     10  N   UNL     1       5.306   3.923  18.237  0.00  0.00    +0.000 N 
ATOM     11  C   UNL     1       5.085   3.687  19.678  0.00  0.00    +0.000 C 
ATOM     12  C   UNL     1       4.554   2.267  19.933  0.00  0.00    +0.000 C 
BRANCH  10  13
ATOM     13  C   UNL     1       6.038   5.088  17.991  0.00  0.00    +0.000 A 
ATOM     14  C   UNL     1       5.740   6.021  16.993  0.00  0.00    +0.000 A 
ATOM     15  C   UNL     1       6.519   7.175  16.831  0.00  0.00    +0.000 A 
ATOM     16  C   UNL     1       7.624   7.401  17.648  0.00  0.00    +0.000 A 
ATOM     17  C   UNL     1       7.940   6.486  18.645  0.00  0.00    +0.000 A 
ATOM     18  C   UNL     1       7.148   5.352  18.815  0.00  0.00    +0.000 A 
ENDBRANCH  10  13
ENDBRANCH   6   7
BRANCH   1  19
ATOM     19  O   UNL     1      -0.285   2.956  19.336  0.00  0.00    +0.000 OA
ATOM     20  H   UNL     1      -0.361   2.009  19.541  0.00  0.00    +0.000 HD
ENDBRANCH   1  19
BRANCH   3  21
ATOM     21  C   UNL     1       2.380   6.312  20.855  0.00  0.00    +0.000 C 
BRANCH  21  22
ATOM     22  C   UNL     1       1.607   7.516  20.339  0.00  0.00    +0.000 A 
ATOM     23  C   UNL     1       1.945   8.053  19.091  0.00  0.00    +0.000 A 
ATOM     24  C   UNL     1       1.414   9.276  18.691  0.00  0.00    +0.000 A 
ATOM     25  C   UNL     1       0.536   9.953  19.533  0.00  0.00    +0.000 A 
ATOM     26 BR   UNL     1      -0.086  11.671  19.039  0.00  0.00    +0.000 Br
ATOM     27  C   UNL     1       0.138   9.398  20.749  0.00  0.00    +0.000 A 
ATOM     28  C   UNL     1       0.669   8.166  21.145  0.00  0.00    +0.000 A 
ENDBRANCH  21  22
ENDBRANCH   3  21
TORSDOF 5
ENDMDL
MODEL 2
REMARK VINA RESULT:      -7.7      0.433      1.022
REMARK  Name = 
REMARK  5 active torsions:
REMARK  status: ('A' for Active; 'I' for Inactive)
REMARK    1  A    between atoms: O_1  and  C_2
REMARK    2  A    between atoms: N_4  and  C_5
REMARK    3  A    between atoms: C_5  and  C_6
REMARK    4  A    between atoms: C_15  and  N_16
REMARK    5  A    between atoms: N_19  and  C_20
REMARK                            x       y       z     vdW  Elec       q    Type
REMARK                         _______ _______ _______ _____ _____    ______ ____
ROOT
ATOM      1  C   UNL     1       1.035   3.357  19.021  0.00  0.00    +0.000 C 
ATOM      2  C   UNL     1       1.498   4.803  19.228  0.00  0.00    +0.000 C 
ATOM      3  N   UNL     1       1.712   5.266  20.612  0.00  0.00    +0.000 NA
ATOM      4  C   UNL     1       2.283   4.261  21.517  0.00  0.00    +0.000 C 
ATOM      5  C   UNL     1       1.862   2.804  21.281  0.00  0.00    +0.000 C 
ATOM      6  C   UNL     1       1.921   2.358  19.800  0.00  0.00    +0.000 C 
ENDROOT
BRANCH   6   7
ATOM      7  N   UNL     1       3.238   1.972  19.248  0.00  0.00    +0.000 NA
ATOM      8  C   UNL     1       3.464   2.138  17.797  0.00  0.00    +0.000 C 
ATOM      9  C   UNL     1       4.107   3.486  17.361  0.00  0.00    +0.000 C 
ATOM     10  N   UNL     1       5.291   3.790  18.186  0.00  0.00    +0.000 N 
ATOM     11  C   UNL     1       5.087   3.637  19.640  0.00  0.00    +0.000 C 
ATOM     12  C   UNL     1       4.475   2.267  19.974  0.00  0.00    +0.000 C 
BRANCH  10  13
ATOM     13  C   UNL     1       6.088   4.893  17.869  0.00  0.00    +0.000 A 
ATOM     14  C   UNL     1       6.094   5.545  16.632  0.00  0.00    +0.000 A 
ATOM     15  C   UNL     1       6.913   6.660  16.409  0.00  0.00    +0.000 A 
ATOM     16  C   UNL     1       7.758   7.127  17.412  0.00  0.00    +0.000 A 
ATOM     17  C   UNL     1       7.770   6.494  18.650  0.00  0.00    +0.000 A 
ATOM     18  C   UNL     1       6.937   5.399  18.871  0.00  0.00    +0.000 A 
ENDBRANCH  10  13
ENDBRANCH   6   7
BRANCH   1  19
ATOM     19  O   UNL     1      -0.335   3.195  19.429  0.00  0.00    +0.000 OA
ATOM     20  H   UNL     1      -0.806   2.741  18.710  0.00  0.00    +0.000 HD
ENDBRANCH   1  19
BRANCH   3  21
ATOM     21  C   UNL     1       2.539   6.508  20.631  0.00  0.00    +0.000 C 
BRANCH  21  22
ATOM     22  C   UNL     1       1.729   7.762  20.338  0.00  0.00    +0.000 A 
ATOM     23  C   UNL     1       0.763   8.175  21.264  0.00  0.00    +0.000 A 
ATOM     24  C   UNL     1      -0.139   9.179  20.928  0.00  0.00    +0.000 A 
ATOM     25  C   UNL     1      -0.066   9.779  19.673  0.00  0.00    +0.000 A 
ATOM     26 BR   UNL     1      -1.371  11.057  19.177  0.00  0.00    +0.000 Br
ATOM     27  C   UNL     1       0.933   9.425  18.767  0.00  0.00    +0.000 A 
ATOM     28  C   UNL     1       1.842   8.419  19.111  0.00  0.00    +0.000 A 
ENDBRANCH  21  22
ENDBRANCH   3  21
TORSDOF 5
ENDMDL
MODEL 3
REMARK VINA RESULT:      -7.5      1.105      1.722
REMARK  Name = 
REMARK  5 active torsions:
REMARK  status: ('A' for Active; 'I' for Inactive)
REMARK    1  A    between atoms: O_1  and  C_2
REMARK    2  A    between atoms: N_4  and  C_5
REMARK    3  A    between atoms: C_5  and  C_6
REMARK    4  A    between atoms: C_15  and  N_16
REMARK    5  A    between atoms: N_19  and  C_20
REMARK                            x       y       z     vdW  Elec       q    Type
REMARK                         _______ _______ _______ _____ _____    ______ ____
ROOT
ATOM      1  C   UNL     1       1.029   3.187  19.167  0.00  0.00    +0.000 C 
ATOM      2  C   UNL     1       1.496   4.628  18.931  0.00  0.00    +0.000 C 
ATOM      3  N   UNL     1       1.780   5.462  20.113  0.00  0.00    +0.000 NA
ATOM      4  C   UNL     1       2.401   4.750  21.236  0.00  0.00    +0.000 C 
ATOM      5  C   UNL     1       1.974   3.290  21.446  0.00  0.00    +0.000 C 
ATOM      6  C   UNL     1       1.958   2.441  20.151  0.00  0.00    +0.000 C 
ENDROOT
BRANCH   6   7
ATOM      7  N   UNL     1       3.246   1.900  19.666  0.00  0.00    +0.000 NA
ATOM      8  C   UNL     1       3.344   1.495  18.248  0.00  0.00    +0.000 C 
ATOM      9  C   UNL     1       3.873   2.582  17.269  0.00  0.00    +0.000 C 
ATOM     10  N   UNL     1       5.100   3.207  17.795  0.00  0.00    +0.000 N 
ATOM     11  C   UNL     1       5.022   3.625  19.209  0.00  0.00    +0.000 C 
ATOM     12  C   UNL     1       4.518   2.479  20.101  0.00  0.00    +0.000 C 
BRANCH  10  13
ATOM     13  C   UNL     1       5.804   4.119  17.004  0.00  0.00    +0.000 A 
ATOM     14  C   UNL     1       6.368   5.310  17.469  0.00  0.00    +0.000 A 
ATOM     15  C   UNL     1       7.077   6.157  16.606  0.00  0.00    +0.000 A 
ATOM     16  C   UNL     1       7.212   5.837  15.258  0.00  0.00    +0.000 A 
ATOM     17  C   UNL     1       6.659   4.657  14.773  0.00  0.00    +0.000 A 
ATOM     18  C   UNL     1       5.974   3.810  15.641  0.00  0.00    +0.000 A 
ENDBRANCH  10  13
ENDBRANCH   6   7
BRANCH   1  19
ATOM     19  O   UNL     1      -0.318   3.163  19.674  0.00  0.00    +0.000 OA
ATOM     20  H   UNL     1      -0.650   4.076  19.672  0.00  0.00    +0.000 HD
ENDBRANCH   1  19
BRANCH   3  21
ATOM     21  C   UNL     1       2.602   6.649  19.736  0.00  0.00    +0.000 C 
BRANCH  21  22
ATOM     22  C   UNL     1       1.812   7.949  19.767  0.00  0.00    +0.000 A 
ATOM     23  C   UNL     1       1.082   8.270  20.918  0.00  0.00    +0.000 A 
ATOM     24  C   UNL     1       0.180   9.329  20.897  0.00  0.00    +0.000 A 
ATOM     25  C   UNL     1       0.020  10.075  19.732  0.00  0.00    +0.000 A 
ATOM     26 BR   UNL     1      -1.295  11.434  19.673  0.00  0.00    +0.000 Br
ATOM     27  C   UNL     1       0.789   9.808  18.600  0.00  0.00    +0.000 A 
ATOM     28  C   UNL     1       1.699   8.746  18.626  0.00  0.00    +0.000 A 
ENDBRANCH  21  22
ENDBRANCH   3  21
TORSDOF 5
ENDMDL
MODEL 4
REMARK VINA RESULT:      -7.4      1.015      1.365
REMARK  Name = 
REMARK  5 active torsions:
REMARK  status: ('A' for Active; 'I' for Inactive)
REMARK    1  A    between atoms: O_1  and  C_2
REMARK    2  A    between atoms: N_4  and  C_5
REMARK    3  A    between atoms: C_5  and  C_6
REMARK    4  A    between atoms: C_15  and  N_16
REMARK    5  A    between atoms: N_19  and  C_20
REMARK                            x       y       z     vdW  Elec       q    Type
REMARK                         _______ _______ _______ _____ _____    ______ ____
ROOT
ATOM      1  C   UNL     1       1.031   3.099  19.099  0.00  0.00    +0.000 C 
ATOM      2  C   UNL     1       1.451   4.563  18.925  0.00  0.00    +0.000 C 
ATOM      3  N   UNL     1       1.660   5.368  20.143  0.00  0.00    +0.000 NA
ATOM      4  C   UNL     1       2.268   4.642  21.265  0.00  0.00    +0.000 C 
ATOM      5  C   UNL     1       1.891   3.162  21.413  0.00  0.00    +0.000 C 
ATOM      6  C   UNL     1       1.953   2.356  20.092  0.00  0.00    +0.000 C 
ENDROOT
BRANCH   6   7
ATOM      7  N   UNL     1       3.278   1.879  19.637  0.00  0.00    +0.000 NA
ATOM      8  C   UNL     1       3.452   1.561  18.204  0.00  0.00    +0.000 C 
ATOM      9  C   UNL     1       3.991   2.719  17.315  0.00  0.00    +0.000 C 
ATOM     10  N   UNL     1       5.174   3.345  17.933  0.00  0.00    +0.000 N 
ATOM     11  C   UNL     1       5.020   3.677  19.364  0.00  0.00    +0.000 C 
ATOM     12  C   UNL     1       4.511   2.467  20.163  0.00  0.00    +0.000 C 
BRANCH  10  13
ATOM     13  C   UNL     1       5.885   4.320  17.229  0.00  0.00    +0.000 A 
ATOM     14  C   UNL     1       6.485   5.443  17.807  0.00  0.00    +0.000 A 
ATOM     15  C   UNL     1       7.199   6.361  17.025  0.00  0.00    +0.000 A 
ATOM     16  C   UNL     1       7.302   6.184  15.647  0.00  0.00    +0.000 A 
ATOM     17  C   UNL     1       6.712   5.076  15.051  0.00  0.00    +0.000 A 
ATOM     18  C   UNL     1       6.023   4.156  15.838  0.00  0.00    +0.000 A 
ENDBRANCH  10  13
ENDBRANCH   6   7
BRANCH   1  19
ATOM     19  O   UNL     1      -0.331   3.008  19.555  0.00  0.00    +0.000 OA
ATOM     20  H   UNL     1      -0.445   3.651  20.274  0.00  0.00    +0.000 HD
ENDBRANCH   1  19
BRANCH   3  21
ATOM     21  C   UNL     1       2.449   6.596  19.835  0.00  0.00    +0.000 C 
BRANCH  21  22
ATOM     22  C   UNL     1       1.654   7.877  20.045  0.00  0.00    +0.000 A 
ATOM     23  C   UNL     1       1.548   8.788  18.988  0.00  0.00    +0.000 A 
ATOM     24  C   UNL     1       1.023  10.057  19.212  0.00  0.00    +0.000 A 
ATOM     25  C   UNL     1       0.592  10.408  20.489  0.00  0.00    +0.000 A 
ATOM     26 BR   UNL     1      -0.005  12.174  20.815  0.00  0.00    +0.000 Br
ATOM     27  C   UNL     1       0.630   9.488  21.536  0.00  0.00    +0.000 A 
ATOM     28  C   UNL     1       1.153   8.211  21.305  0.00  0.00    +0.000 A 
ENDBRANCH  21  22
ENDBRANCH   3  21
TORSDOF 5
ENDMDL
MODEL 5
REMARK VINA RESULT:      -7.1      2.192      6.013
REMARK  Name = 
REMARK  5 active torsions:
REMARK  status: ('A' for Active; 'I' for Inactive)
REMARK    1  A    between atoms: O_1  and  C_2
REMARK    2  A    between atoms: N_4  and  C_5
REMARK    3  A    between atoms: C_5  and  C_6
REMARK    4  A    between atoms: C_15  and  N_16
REMARK    5  A    between atoms: N_19  and  C_20
REMARK                            x       y       z     vdW  Elec       q    Type
REMARK                         _______ _______ _______ _____ _____    ______ ____
ROOT
ATOM      1  C   UNL     1       2.912   2.399  19.247  0.00  0.00    +0.000 C 
ATOM      2  C   UNL     1       4.118   2.451  18.303  0.00  0.00    +0.000 C 
ATOM      3  N   UNL     1       3.908   2.995  16.948  0.00  0.00    +0.000 NA
ATOM      4  C   UNL     1       2.971   4.122  16.874  0.00  0.00    +0.000 C 
ATOM      5  C   UNL     1       1.789   4.100  17.853  0.00  0.00    +0.000 C 
ATOM      6  C   UNL     1       2.179   3.758  19.312  0.00  0.00    +0.000 C 
ENDROOT
BRANCH   6   7
ATOM      7  N   UNL     1       2.735   4.844  20.149  0.00  0.00    +0.000 NA
ATOM      8  C   UNL     1       3.525   5.902  19.487  0.00  0.00    +0.000 C 
ATOM      9  C   UNL     1       2.732   7.167  19.051  0.00  0.00    +0.000 C 
ATOM     10  N   UNL     1       1.886   7.659  20.154  0.00  0.00    +0.000 N 
ATOM     11  C   UNL     1       1.082   6.619  20.827  0.00  0.00    +0.000 C 
ATOM     12  C   UNL     1       1.956   5.425  21.244  0.00  0.00    +0.000 C 
BRANCH  10  13
ATOM     13  C   UNL     1       1.191   8.863  20.007  0.00  0.00    +0.000 A 
ATOM     14  C   UNL     1       1.182   9.643  18.847  0.00  0.00    +0.000 A 
ATOM     15  C   UNL     1       0.438  10.829  18.782  0.00  0.00    +0.000 A 
ATOM     16  C   UNL     1      -0.288  11.267  19.886  0.00  0.00    +0.000 A 
ATOM     17  C   UNL     1      -0.292  10.509  21.051  0.00  0.00    +0.000 A 
ATOM     18  C   UNL     1       0.432   9.319  21.101  0.00  0.00    +0.000 A 
ENDBRANCH  10  13
ENDBRANCH   6   7
BRANCH   1  19
ATOM     19  O   UNL     1       1.984   1.378  18.836  0.00  0.00    +0.000 OA
ATOM     20  H   UNL     1       1.182   1.821  18.511  0.00  0.00    +0.000 HD
ENDBRANCH   1  19
BRANCH   3  21
ATOM     21  C   UNL     1       5.210   3.364  16.321  0.00  0.00    +0.000 C 
BRANCH  21  22
ATOM     22  C   UNL     1       5.795   4.650  16.886  0.00  0.00    +0.000 A 
ATOM     23  C   UNL     1       5.364   5.876  16.363  0.00  0.00    +0.000 A 
ATOM     24  C   UNL     1       6.033   7.049  16.699  0.00  0.00    +0.000 A 
ATOM     25  C   UNL     1       7.121   6.998  17.566  0.00  0.00    +0.000 A 
ATOM     26 BR   UNL     1       8.102   8.577  17.921  0.00  0.00    +0.000 Br
ATOM     27  C   UNL     1       7.518   5.794  18.147  0.00  0.00    +0.000 A 
ATOM     28  C   UNL     1       6.840   4.617  17.812  0.00  0.00    +0.000 A 
ENDBRANCH  21  22
ENDBRANCH   3  21
TORSDOF 5
ENDMDL
MODEL 6
REMARK VINA RESULT:      -7.1      0.961      1.387
REMARK  Name = 
REMARK  5 active torsions:
REMARK  status: ('A' for Active; 'I' for Inactive)
REMARK    1  A    between atoms: O_1  and  C_2
REMARK    2  A    between atoms: N_4  and  C_5
REMARK    3  A    between atoms: C_5  and  C_6
REMARK    4  A    between atoms: C_15  and  N_16
REMARK    5  A    between atoms: N_19  and  C_20
REMARK                            x       y       z     vdW  Elec       q    Type
REMARK                         _______ _______ _______ _____ _____    ______ ____
ROOT
ATOM      1  C   UNL     1       1.724   3.999  17.807  0.00  0.00    +0.000 C 
ATOM      2  C   UNL     1       1.957   5.358  18.476  0.00  0.00    +0.000 C 
ATOM      3  N   UNL     1       1.635   5.484  19.909  0.00  0.00    +0.000 NA
ATOM      4  C   UNL     1       1.942   4.297  20.717  0.00  0.00    +0.000 C 
ATOM      5  C   UNL     1       1.760   2.934  20.035  0.00  0.00    +0.000 C 
ATOM      6  C   UNL     1       2.368   2.849  18.614  0.00  0.00    +0.000 C 
ENDROOT
BRANCH   6   7
ATOM      7  N   UNL     1       3.824   2.609  18.501  0.00  0.00    +0.000 NA
ATOM      8  C   UNL     1       4.470   2.833  17.191  0.00  0.00    +0.000 C 
ATOM      9  C   UNL     1       5.076   4.249  16.970  0.00  0.00    +0.000 C 
ATOM     10  N   UNL     1       5.909   4.646  18.120  0.00  0.00    +0.000 N 
ATOM     11  C   UNL     1       5.281   4.436  19.439  0.00  0.00    +0.000 C 
ATOM     12  C   UNL     1       4.738   3.004  19.574  0.00  0.00    +0.000 C 
BRANCH  10  13
ATOM     13  C   UNL     1       6.649   5.831  18.060  0.00  0.00    +0.000 A 
ATOM     14  C   UNL     1       6.414   6.873  17.159  0.00  0.00    +0.000 A 
ATOM     15  C   UNL     1       7.195   8.037  17.185  0.00  0.00    +0.000 A 
ATOM     16  C   UNL     1       8.239   8.166  18.096  0.00  0.00    +0.000 A 
ATOM     17  C   UNL     1       8.492   7.141  19.001  0.00  0.00    +0.000 A 
ATOM     18  C   UNL     1       7.698   5.996  18.984  0.00  0.00    +0.000 A 
ENDBRANCH  10  13
ENDBRANCH   6   7
BRANCH   1  19
ATOM     19  O   UNL     1       0.317   3.740  17.651  0.00  0.00    +0.000 OA
ATOM     20  H   UNL     1      -0.162   4.539  17.929  0.00  0.00    +0.000 HD
ENDBRANCH   1  19
BRANCH   3  21
ATOM     21  C   UNL     1       2.292   6.690  20.494  0.00  0.00    +0.000 C 
BRANCH  21  22
ATOM     22  C   UNL     1       1.602   7.987  20.100  0.00  0.00    +0.000 A 
ATOM     23  C   UNL     1       0.652   8.539  20.969  0.00  0.00    +0.000 A 
ATOM     24  C   UNL     1      -0.151   9.594  20.545  0.00  0.00    +0.000 A 
ATOM     25  C   UNL     1       0.007  10.104  19.259  0.00  0.00    +0.000 A 
ATOM     26 BR   UNL     1      -1.169  11.454  18.646  0.00  0.00    +0.000 Br
ATOM     27  C   UNL     1       0.994   9.609  18.407  0.00  0.00    +0.000 A 
ATOM     28  C   UNL     1       1.802   8.553  18.839  0.00  0.00    +0.000 A 
ENDBRANCH  21  22
ENDBRANCH   3  21
TORSDOF 5
ENDMDL
MODEL 7
REMARK VINA RESULT:      -7.0      2.474      6.444
REMARK  Name = 
REMARK  5 active torsions:
REMARK  status: ('A' for Active; 'I' for Inactive)
REMARK    1  A    between atoms: O_1  and  C_2
REMARK    2  A    between atoms: N_4  and  C_5
REMARK    3  A    between atoms: C_5  and  C_6
REMARK    4  A    between atoms: C_15  and  N_16
REMARK    5  A    between atoms: N_19  and  C_20
REMARK                            x       y       z     vdW  Elec       q    Type
REMARK                         _______ _______ _______ _____ _____    ______ ____
ROOT
ATOM      1  C   UNL     1       1.773   4.095  20.171  0.00  0.00    +0.000 C 
ATOM      2  C   UNL     1       2.998   3.304  19.699  0.00  0.00    +0.000 C 
ATOM      3  N   UNL     1       3.093   2.973  18.265  0.00  0.00    +0.000 NA
ATOM      4  C   UNL     1       2.598   4.016  17.357  0.00  0.00    +0.000 C 
ATOM      5  C   UNL     1       1.404   4.846  17.848  0.00  0.00    +0.000 C 
ATOM      6  C   UNL     1       1.538   5.353  19.305  0.00  0.00    +0.000 C 
ENDROOT
BRANCH   6   7
ATOM      7  N   UNL     1       2.359   6.561  19.541  0.00  0.00    +0.000 NA
ATOM      8  C   UNL     1       2.844   7.317  18.367  0.00  0.00    +0.000 C 
ATOM      9  C   UNL     1       1.939   8.493  17.897  0.00  0.00    +0.000 C 
ATOM     10  N   UNL     1       1.558   9.346  19.038  0.00  0.00    +0.000 N 
ATOM     11  C   UNL     1       1.065   8.612  20.220  0.00  0.00    +0.000 C 
ATOM     12  C   UNL     1       2.036   7.492  20.624  0.00  0.00    +0.000 C 
BRANCH  10  13
ATOM     13  C   UNL     1       0.853  10.530  18.808  0.00  0.00    +0.000 A 
ATOM     14  C   UNL     1      -0.537  10.620  18.683  0.00  0.00    +0.000 A 
ATOM     15  C   UNL     1      -1.163  11.856  18.474  0.00  0.00    +0.000 A 
ATOM     16  C   UNL     1      -0.406  13.020  18.360  0.00  0.00    +0.000 A 
ATOM     17  C   UNL     1       0.977  12.954  18.480  0.00  0.00    +0.000 A 
ATOM     18  C   UNL     1       1.591  11.725  18.710  0.00  0.00    +0.000 A 
ENDBRANCH  10  13
ENDBRANCH   6   7
BRANCH   1  19
ATOM     19  O   UNL     1       0.592   3.273  20.146  0.00  0.00    +0.000 OA
ATOM     20  H   UNL     1       0.818   2.447  19.686  0.00  0.00    +0.000 HD
ENDBRANCH   1  19
BRANCH   3  21
ATOM     21  C   UNL     1       4.489   2.592  17.902  0.00  0.00    +0.000 C 
BRANCH  21  22
ATOM     22  C   UNL     1       5.420   3.791  17.801  0.00  0.00    +0.000 A 
ATOM     23  C   UNL     1       5.749   4.492  18.967  0.00  0.00    +0.000 A 
ATOM     24  C   UNL     1       6.412   5.713  18.883  0.00  0.00    +0.000 A 
ATOM     25  C   UNL     1       6.758   6.223  17.634  0.00  0.00    +0.000 A 
ATOM     26 BR   UNL     1       7.549   7.939  17.519  0.00  0.00    +0.000 Br
ATOM     27  C   UNL     1       6.497   5.504  16.469  0.00  0.00    +0.000 A 
ATOM     28  C   UNL     1       5.836   4.274  16.558  0.00  0.00    +0.000 A 
ENDBRANCH  21  22
ENDBRANCH   3  21
TORSDOF 5
ENDMDL
MODEL 8
REMARK VINA RESULT:      -6.9      2.545      6.874
REMARK  Name = 
REMARK  5 active torsions:
REMARK  status: ('A' for Active; 'I' for Inactive)
REMARK    1  A    between atoms: O_1  and  C_2
REMARK    2  A    between atoms: N_4  and  C_5
REMARK    3  A    between atoms: C_5  and  C_6
REMARK    4  A    between atoms: C_15  and  N_16
REMARK    5  A    between atoms: N_19  and  C_20
REMARK                            x       y       z     vdW  Elec       q    Type
REMARK                         _______ _______ _______ _____ _____    ______ ____
ROOT
ATOM      1  C   UNL     1       2.840   4.445  20.236  0.00  0.00    +0.000 C 
ATOM      2  C   UNL     1       4.176   4.124  19.557  0.00  0.00    +0.000 C 
ATOM      3  N   UNL     1       4.166   3.868  18.104  0.00  0.00    +0.000 NA
ATOM      4  C   UNL     1       3.225   4.696  17.339  0.00  0.00    +0.000 C 
ATOM      5  C   UNL     1       1.907   5.063  18.035  0.00  0.00    +0.000 C 
ATOM      6  C   UNL     1       2.075   5.562  19.491  0.00  0.00    +0.000 C 
ENDROOT
BRANCH   6   7
ATOM      7  N   UNL     1       2.470   6.973  19.694  0.00  0.00    +0.000 NA
ATOM      8  C   UNL     1       2.577   7.847  18.507  0.00  0.00    +0.000 C 
ATOM      9  C   UNL     1       1.299   8.659  18.147  0.00  0.00    +0.000 C 
ATOM     10  N   UNL     1       0.759   9.338  19.339  0.00  0.00    +0.000 N 
ATOM     11  C   UNL     1       0.638   8.481  20.536  0.00  0.00    +0.000 C 
ATOM     12  C   UNL     1       1.954   7.744  20.827  0.00  0.00    +0.000 C 
BRANCH  10  13
ATOM     13  C   UNL     1      -0.314  10.223  19.202  0.00  0.00    +0.000 A 
ATOM     14  C   UNL     1      -0.706  11.157  20.166  0.00  0.00    +0.000 A 
ATOM     15  C   UNL     1      -1.784  12.021  19.934  0.00  0.00    +0.000 A 
ATOM     16  C   UNL     1      -2.504  11.949  18.744  0.00  0.00    +0.000 A 
ATOM     17  C   UNL     1      -2.132  11.027  17.772  0.00  0.00    +0.000 A 
ATOM     18  C   UNL     1      -1.046  10.185  18.001  0.00  0.00    +0.000 A 
ENDBRANCH  10  13
ENDBRANCH   6   7
BRANCH   1  19
ATOM     19  O   UNL     1       2.011   3.271  20.313  0.00  0.00    +0.000 OA
ATOM     20  H   UNL     1       2.056   2.821  19.453  0.00  0.00    +0.000 HD
ENDBRANCH   1  19
BRANCH   3  21
ATOM     21  C   UNL     1       5.540   3.990  17.537  0.00  0.00    +0.000 C 
BRANCH  21  22
ATOM     22  C   UNL     1       6.186   5.334  17.838  0.00  0.00    +0.000 A 
ATOM     23  C   UNL     1       5.740   6.469  17.149  0.00  0.00    +0.000 A 
ATOM     24  C   UNL     1       6.452   7.662  17.237  0.00  0.00    +0.000 A 
ATOM     25  C   UNL     1       7.599   7.723  18.024  0.00  0.00    +0.000 A 
ATOM     26 BR   UNL     1       8.630   9.310  18.042  0.00  0.00    +0.000 Br
ATOM     27  C   UNL     1       8.016   6.620  18.768  0.00  0.00    +0.000 A 
ATOM     28  C   UNL     1       7.295   5.425  18.682  0.00  0.00    +0.000 A 
ENDBRANCH  21  22
ENDBRANCH   3  21
TORSDOF 5
ENDMDL
MODEL 9
REMARK VINA RESULT:      -6.8      2.316      5.416
REMARK  Name = 
REMARK  5 active torsions:
REMARK  status: ('A' for Active; 'I' for Inactive)
REMARK    1  A    between atoms: O_1  and  C_2
REMARK    2  A    between atoms: N_4  and  C_5
REMARK    3  A    between atoms: C_5  and  C_6
REMARK    4  A    between atoms: C_15  and  N_16
REMARK    5  A    between atoms: N_19  and  C_20
REMARK                            x       y       z     vdW  Elec       q    Type
REMARK                         _______ _______ _______ _____ _____    ______ ____
ROOT
ATOM      1  C   UNL     1       4.415   2.646  20.114  0.00  0.00    +0.000 C 
ATOM      2  C   UNL     1       4.680   3.521  18.884  0.00  0.00    +0.000 C 
ATOM      3  N   UNL     1       4.380   2.952  17.556  0.00  0.00    +0.000 NA
ATOM      4  C   UNL     1       3.186   2.099  17.507  0.00  0.00    +0.000 C 
ATOM      5  C   UNL     1       2.888   1.259  18.756  0.00  0.00    +0.000 C 
ATOM      6  C   UNL     1       2.993   2.042  20.088  0.00  0.00    +0.000 C 
ENDROOT
BRANCH   6   7
ATOM      7  N   UNL     1       1.840   2.879  20.487  0.00  0.00    +0.000 NA
ATOM      8  C   UNL     1       2.034   3.863  21.573  0.00  0.00    +0.000 C 
ATOM      9  C   UNL     1       2.429   5.299  21.123  0.00  0.00    +0.000 C 
ATOM     10  N   UNL     1       1.542   5.771  20.044  0.00  0.00    +0.000 N 
ATOM     11  C   UNL     1       1.339   4.806  18.945  0.00  0.00    +0.000 C 
ATOM     12  C   UNL     1       0.925   3.428  19.485  0.00  0.00    +0.000 C 
BRANCH  10  13
ATOM     13  C   UNL     1       1.649   7.088  19.589  0.00  0.00    +0.000 A 
ATOM     14  C   UNL     1       1.328   8.221  20.342  0.00  0.00    +0.000 A 
ATOM     15  C   UNL     1       1.487   9.508  19.810  0.00  0.00    +0.000 A 
ATOM     16  C   UNL     1       1.945   9.681  18.506  0.00  0.00    +0.000 A 
ATOM     17  C   UNL     1       2.269   8.568  17.739  0.00  0.00    +0.000 A 
ATOM     18  C   UNL     1       2.129   7.293  18.282  0.00  0.00    +0.000 A 
ENDBRANCH  10  13
ENDBRANCH   6   7
BRANCH   1  19
ATOM     19  O   UNL     1       5.381   1.583  20.202  0.00  0.00    +0.000 OA
ATOM     20  H   UNL     1       5.428   1.153  19.332  0.00  0.00    +0.000 HD
ENDBRANCH   1  19
BRANCH   3  21
ATOM     21  C   UNL     1       4.287   4.030  16.529  0.00  0.00    +0.000 C 
BRANCH  21  22
ATOM     22  C   UNL     1       5.329   5.121  16.721  0.00  0.00    +0.000 A 
ATOM     23  C   UNL     1       6.596   4.769  17.201  0.00  0.00    +0.000 A 
ATOM     24  C   UNL     1       7.492   5.759  17.596  0.00  0.00    +0.000 A 
ATOM     25  C   UNL     1       7.124   7.099  17.497  0.00  0.00    +0.000 A 
ATOM     26 BR   UNL     1       8.297   8.433  18.149  0.00  0.00    +0.000 Br
ATOM     27  C   UNL     1       5.892   7.465  16.959  0.00  0.00    +0.000 A 
ATOM     28  C   UNL     1       4.997   6.468  16.557  0.00  0.00    +0.000 A 
ENDBRANCH  21  22
ENDBRANCH   3  21
TORSDOF 5
ENDMDL
