MODEL 1
REMARK VINA RESULT:      -7.6      0.000      0.000
REMARK  Name = 
REMARK  13 active torsions:
REMARK  status: ('A' for Active; 'I' for Inactive)
REMARK    1  A    between atoms: C_1  and  O_2
REMARK    2  A    between atoms: O_2  and  C_3
REMARK    3  A    between atoms: C_3  and  C_5
REMARK    4  A    between atoms: C_7  and  O_8
REMARK    5  A    between atoms: O_8  and  C_9
REMARK    6  A    between atoms: C_11  and  C_12
REMARK    7  A    between atoms: C_12  and  O_13
REMARK    8  A    between atoms: C_14  and  O_15
REMARK    9  A    between atoms: C_16  and  O_17
REMARK   10  A    between atoms: C_18  and  O_19
REMARK   11  A    between atoms: C_21  and  C_22
REMARK   12  A    between atoms: C_22  and  O_24
REMARK   13  A    between atoms: O_24  and  C_25
REMARK                            x       y       z     vdW  Elec       q    Type
REMARK                         _______ _______ _______ _____ _____    ______ ____
ROOT
ATOM      1  O   UNL     1       3.965   4.962  17.947  0.00  0.00    +0.000 OA
ENDROOT
BRANCH   1   4
ATOM      2  C   UNL     1       6.544   5.335  15.285  0.00  0.00    +0.000 A 
ATOM      3  C   UNL     1       5.360   4.905  15.913  0.00  0.00    +0.000 A 
ATOM      4  C   UNL     1       5.042   5.344  17.195  0.00  0.00    +0.000 A 
ATOM      5  C   UNL     1       5.897   6.242  17.832  0.00  0.00    +0.000 A 
ATOM      6  C   UNL     1       7.066   6.711  17.210  0.00  0.00    +0.000 A 
ATOM      7  C   UNL     1       7.391   6.258  15.927  0.00  0.00    +0.000 A 
BRANCH   2   8
ATOM      8  C   UNL     1       6.923   4.803  13.943  0.00  0.00    +0.000 C 
ATOM      9  O   UNL     1       7.688   5.373  13.178  0.00  0.00    +0.000 OA
BRANCH   8  11
ATOM     10  C   UNL     1       5.824   3.373  12.439  0.00  0.00    +0.000 C 
ATOM     11  O   UNL     1       6.335   3.599  13.751  0.00  0.00    +0.000 OA
ENDBRANCH   8  11
ENDBRANCH   2   8
BRANCH   6  12
ATOM     12  C   UNL     1       7.885   7.670  18.001  0.00  0.00    +0.000 C 
ATOM     13  O   UNL     1       8.563   7.308  18.953  0.00  0.00    +0.000 OA
BRANCH  12  14
ATOM     14  O   UNL     1       7.788   8.944  17.549  0.00  0.00    +0.000 OA
ATOM     15  C   UNL     1       8.634   9.850  18.267  0.00  0.00    +0.000 C 
ENDBRANCH  12  14
ENDBRANCH   6  12
ENDBRANCH   1   4
BRANCH   1  16
ATOM     16  C   UNL     1       4.214   4.286  19.186  0.00  0.00    +0.000 C 
ATOM     17  O   UNL     1       3.060   4.265  20.048  0.00  0.00    +0.000 OA
ATOM     18  C   UNL     1       1.932   3.614  19.443  0.00  0.00    +0.000 C 
ATOM     19  C   UNL     1       2.240   2.131  19.211  0.00  0.00    +0.000 C 
ATOM     20  C   UNL     1       3.522   1.983  18.374  0.00  0.00    +0.000 C 
ATOM     21  C   UNL     1       4.684   2.840  18.912  0.00  0.00    +0.000 C 
BRANCH  19  22
ATOM     22  O   UNL     1       1.173   1.456  18.532  0.00  0.00    +0.000 OA
ATOM     23  H   UNL     1       0.991   1.915  17.692  0.00  0.00    +0.000 HD
ENDBRANCH  19  22
BRANCH  20  24
ATOM     24  O   UNL     1       3.907   0.602  18.329  0.00  0.00    +0.000 OA
ATOM     25  H   UNL     1       3.176   0.084  18.719  0.00  0.00    +0.000 HD
ENDBRANCH  20  24
BRANCH  21  26
ATOM     26  O   UNL     1       5.241   2.289  20.120  0.00  0.00    +0.000 OA
ATOM     27  H   UNL     1       5.222   2.972  20.811  0.00  0.00    +0.000 HD
ENDBRANCH  21  26
BRANCH  18  28
ATOM     28  C   UNL     1       0.718   3.848  20.347  0.00  0.00    +0.000 C 
BRANCH  28  29
ATOM     29  O   UNL     1       0.606   2.836  21.342  0.00  0.00    +0.000 OA
ATOM     30  H   UNL     1       0.840   1.998  20.904  0.00  0.00    +0.000 HD
ENDBRANCH  28  29
ENDBRANCH  18  28
ENDBRANCH   1  16
TORSDOF 11
ENDMDL
MODEL 2
REMARK VINA RESULT:      -7.5      1.316      2.755
REMARK  Name = 
REMARK  13 active torsions:
REMARK  status: ('A' for Active; 'I' for Inactive)
REMARK    1  A    between atoms: C_1  and  O_2
REMARK    2  A    between atoms: O_2  and  C_3
REMARK    3  A    between atoms: C_3  and  C_5
REMARK    4  A    between atoms: C_7  and  O_8
REMARK    5  A    between atoms: O_8  and  C_9
REMARK    6  A    between atoms: C_11  and  C_12
REMARK    7  A    between atoms: C_12  and  O_13
REMARK    8  A    between atoms: C_14  and  O_15
REMARK    9  A    between atoms: C_16  and  O_17
REMARK   10  A    between atoms: C_18  and  O_19
REMARK   11  A    between atoms: C_21  and  C_22
REMARK   12  A    between atoms: C_22  and  O_24
REMARK   13  A    between atoms: O_24  and  C_25
REMARK                            x       y       z     vdW  Elec       q    Type
REMARK                         _______ _______ _______ _____ _____    ______ ____
ROOT
ATOM      1  O   UNL     1       3.321   4.735  17.965  0.00  0.00    +0.000 OA
ENDROOT
BRANCH   1   4
ATOM      2  C   UNL     1       6.312   4.870  15.748  0.00  0.00    +0.000 A 
ATOM      3  C   UNL     1       4.968   4.694  16.129  0.00  0.00    +0.000 A 
ATOM      4  C   UNL     1       4.570   4.925  17.443  0.00  0.00    +0.000 A 
ATOM      5  C   UNL     1       5.517   5.366  18.366  0.00  0.00    +0.000 A 
ATOM      6  C   UNL     1       6.856   5.583  17.999  0.00  0.00    +0.000 A 
ATOM      7  C   UNL     1       7.256   5.336  16.682  0.00  0.00    +0.000 A 
BRANCH   2   8
ATOM      8  C   UNL     1       6.752   4.546  14.359  0.00  0.00    +0.000 C 
ATOM      9  O   UNL     1       6.226   3.690  13.664  0.00  0.00    +0.000 OA
BRANCH   8  11
ATOM     10  C   UNL     1       8.006   5.465  12.598  0.00  0.00    +0.000 C 
ATOM     11  O   UNL     1       7.762   5.372  14.001  0.00  0.00    +0.000 OA
ENDBRANCH   8  11
ENDBRANCH   2   8
BRANCH   6  12
ATOM     12  C   UNL     1       7.760   6.059  19.082  0.00  0.00    +0.000 C 
ATOM     13  O   UNL     1       7.806   5.508  20.173  0.00  0.00    +0.000 OA
BRANCH  12  14
ATOM     14  O   UNL     1       8.494   7.138  18.720  0.00  0.00    +0.000 OA
ATOM     15  C   UNL     1       7.765   8.049  17.888  0.00  0.00    +0.000 C 
ENDBRANCH  12  14
ENDBRANCH   6  12
ENDBRANCH   1   4
BRANCH   1  16
ATOM     16  C   UNL     1       2.718   3.443  17.816  0.00  0.00    +0.000 C 
ATOM     17  O   UNL     1       3.556   2.380  18.308  0.00  0.00    +0.000 OA
ATOM     18  C   UNL     1       3.874   2.528  19.700  0.00  0.00    +0.000 C 
ATOM     19  C   UNL     1       2.603   2.410  20.548  0.00  0.00    +0.000 C 
ATOM     20  C   UNL     1       1.556   3.432  20.072  0.00  0.00    +0.000 C 
ATOM     21  C   UNL     1       1.356   3.410  18.545  0.00  0.00    +0.000 C 
BRANCH  19  22
ATOM     22  O   UNL     1       2.858   2.634  21.941  0.00  0.00    +0.000 OA
ATOM     23  H   UNL     1       2.063   3.020  22.351  0.00  0.00    +0.000 HD
ENDBRANCH  19  22
BRANCH  20  24
ATOM     24  O   UNL     1       0.309   3.184  20.737  0.00  0.00    +0.000 OA
ATOM     25  H   UNL     1       0.519   2.842  21.629  0.00  0.00    +0.000 HD
ENDBRANCH  20  24
BRANCH  21  26
ATOM     26  O   UNL     1       0.621   2.248  18.118  0.00  0.00    +0.000 OA
ATOM     27  H   UNL     1       0.041   2.501  17.380  0.00  0.00    +0.000 HD
ENDBRANCH  21  26
BRANCH  18  28
ATOM     28  C   UNL     1       4.936   1.481  20.050  0.00  0.00    +0.000 C 
BRANCH  28  29
ATOM     29  O   UNL     1       5.306   1.553  21.423  0.00  0.00    +0.000 OA
ATOM     30  H   UNL     1       4.745   0.906  21.889  0.00  0.00    +0.000 HD
ENDBRANCH  28  29
ENDBRANCH  18  28
ENDBRANCH   1  16
TORSDOF 11
ENDMDL
MODEL 3
REMARK VINA RESULT:      -7.5      1.094      2.448
REMARK  Name = 
REMARK  13 active torsions:
REMARK  status: ('A' for Active; 'I' for Inactive)
REMARK    1  A    between atoms: C_1  and  O_2
REMARK    2  A    between atoms: O_2  and  C_3
REMARK    3  A    between atoms: C_3  and  C_5
REMARK    4  A    between atoms: C_7  and  O_8
REMARK    5  A    between atoms: O_8  and  C_9
REMARK    6  A    between atoms: C_11  and  C_12
REMARK    7  A    between atoms: C_12  and  O_13
REMARK    8  A    between atoms: C_14  and  O_15
REMARK    9  A    between atoms: C_16  and  O_17
REMARK   10  A    between atoms: C_18  and  O_19
REMARK   11  A    between atoms: C_21  and  C_22
REMARK   12  A    between atoms: C_22  and  O_24
REMARK   13  A    between atoms: O_24  and  C_25
REMARK                            x       y       z     vdW  Elec       q    Type
REMARK                         _______ _______ _______ _____ _____    ______ ____
ROOT
ATOM      1  O   UNL     1       3.558   4.589  17.939  0.00  0.00    +0.000 OA
ENDROOT
BRANCH   1   4
ATOM      2  C   UNL     1       6.051   4.852  15.184  0.00  0.00    +0.000 A 
ATOM      3  C   UNL     1       4.872   4.475  15.855  0.00  0.00    +0.000 A 
ATOM      4  C   UNL     1       4.622   4.923  17.148  0.00  0.00    +0.000 A 
ATOM      5  C   UNL     1       5.541   5.779  17.755  0.00  0.00    +0.000 A 
ATOM      6  C   UNL     1       6.707   6.196  17.090  0.00  0.00    +0.000 A 
ATOM      7  C   UNL     1       6.963   5.732  15.795  0.00  0.00    +0.000 A 
BRANCH   2   8
ATOM      8  C   UNL     1       6.355   4.307  13.827  0.00  0.00    +0.000 C 
ATOM      9  O   UNL     1       7.338   4.625  13.173  0.00  0.00    +0.000 OA
BRANCH   8  11
ATOM     10  C   UNL     1       5.149   3.289  12.088  0.00  0.00    +0.000 C 
ATOM     11  O   UNL     1       5.415   3.395  13.485  0.00  0.00    +0.000 OA
ENDBRANCH   8  11
ENDBRANCH   2   8
BRANCH   6  12
ATOM     12  C   UNL     1       7.598   7.114  17.851  0.00  0.00    +0.000 C 
ATOM     13  O   UNL     1       8.211   6.743  18.843  0.00  0.00    +0.000 OA
BRANCH  12  14
ATOM     14  O   UNL     1       7.641   8.362  17.327  0.00  0.00    +0.000 OA
ATOM     15  C   UNL     1       8.395   9.275  18.134  0.00  0.00    +0.000 C 
ENDBRANCH  12  14
ENDBRANCH   6  12
ENDBRANCH   1   4
BRANCH   1  16
ATOM     16  C   UNL     1       2.987   3.283  17.783  0.00  0.00    +0.000 C 
ATOM     17  O   UNL     1       3.798   2.250  18.373  0.00  0.00    +0.000 OA
ATOM     18  C   UNL     1       4.002   2.445  19.781  0.00  0.00    +0.000 C 
ATOM     19  C   UNL     1       2.670   2.332  20.528  0.00  0.00    +0.000 C 
ATOM     20  C   UNL     1       1.649   3.321  19.939  0.00  0.00    +0.000 C 
ATOM     21  C   UNL     1       1.572   3.250  18.402  0.00  0.00    +0.000 C 
BRANCH  19  22
ATOM     22  O   UNL     1       2.809   2.602  21.929  0.00  0.00    +0.000 OA
ATOM     23  H   UNL     1       1.946   2.878  22.287  0.00  0.00    +0.000 HD
ENDBRANCH  19  22
BRANCH  20  24
ATOM     24  O   UNL     1       0.357   3.072  20.511  0.00  0.00    +0.000 OA
ATOM     25  H   UNL     1      -0.303   3.195  19.800  0.00  0.00    +0.000 HD
ENDBRANCH  20  24
BRANCH  21  26
ATOM     26  O   UNL     1       0.890   2.063  17.956  0.00  0.00    +0.000 OA
ATOM     27  H   UNL     1       1.073   1.345  18.584  0.00  0.00    +0.000 HD
ENDBRANCH  21  26
BRANCH  18  28
ATOM     28  C   UNL     1       5.048   1.427  20.246  0.00  0.00    +0.000 C 
BRANCH  28  29
ATOM     29  O   UNL     1       5.287   1.528  21.646  0.00  0.00    +0.000 OA
ATOM     30  H   UNL     1       6.109   1.033  21.818  0.00  0.00    +0.000 HD
ENDBRANCH  28  29
ENDBRANCH  18  28
ENDBRANCH   1  16
TORSDOF 11
ENDMDL
MODEL 4
REMARK VINA RESULT:      -7.2      0.914      1.471
REMARK  Name = 
REMARK  13 active torsions:
REMARK  status: ('A' for Active; 'I' for Inactive)
REMARK    1  A    between atoms: C_1  and  O_2
REMARK    2  A    between atoms: O_2  and  C_3
REMARK    3  A    between atoms: C_3  and  C_5
REMARK    4  A    between atoms: C_7  and  O_8
REMARK    5  A    between atoms: O_8  and  C_9
REMARK    6  A    between atoms: C_11  and  C_12
REMARK    7  A    between atoms: C_12  and  O_13
REMARK    8  A    between atoms: C_14  and  O_15
REMARK    9  A    between atoms: C_16  and  O_17
REMARK   10  A    between atoms: C_18  and  O_19
REMARK   11  A    between atoms: C_21  and  C_22
REMARK   12  A    between atoms: C_22  and  O_24
REMARK   13  A    between atoms: O_24  and  C_25
REMARK                            x       y       z     vdW  Elec       q    Type
REMARK                         _______ _______ _______ _____ _____    ______ ____
ROOT
ATOM      1  O   UNL     1       3.810   4.477  17.669  0.00  0.00    +0.000 OA
ENDROOT
BRANCH   1   4
ATOM      2  C   UNL     1       6.441   5.072  15.100  0.00  0.00    +0.000 A 
ATOM      3  C   UNL     1       5.255   4.574  15.673  0.00  0.00    +0.000 A 
ATOM      4  C   UNL     1       4.893   4.931  16.968  0.00  0.00    +0.000 A 
ATOM      5  C   UNL     1       5.706   5.815  17.676  0.00  0.00    +0.000 A 
ATOM      6  C   UNL     1       6.875   6.352  17.110  0.00  0.00    +0.000 A 
ATOM      7  C   UNL     1       7.244   5.980  15.813  0.00  0.00    +0.000 A 
BRANCH   2   8
ATOM      8  C   UNL     1       6.868   4.627  13.740  0.00  0.00    +0.000 C 
ATOM      9  O   UNL     1       7.646   5.252  13.035  0.00  0.00    +0.000 OA
BRANCH   8  11
ATOM     10  C   UNL     1       5.819   3.282  12.125  0.00  0.00    +0.000 C 
ATOM     11  O   UNL     1       6.303   3.429  13.459  0.00  0.00    +0.000 OA
ENDBRANCH   8  11
ENDBRANCH   2   8
BRANCH   6  12
ATOM     12  C   UNL     1       7.646   7.287  17.974  0.00  0.00    +0.000 C 
ATOM     13  O   UNL     1       8.329   6.890  18.908  0.00  0.00    +0.000 OA
BRANCH  12  14
ATOM     14  O   UNL     1       7.501   8.584  17.608  0.00  0.00    +0.000 OA
ATOM     15  C   UNL     1       8.491   9.437  18.195  0.00  0.00    +0.000 C 
ENDBRANCH  12  14
ENDBRANCH   6  12
ENDBRANCH   1   4
BRANCH   1  16
ATOM     16  C   UNL     1       3.939   3.240  18.382  0.00  0.00    +0.000 C 
ATOM     17  O   UNL     1       3.799   3.404  19.806  0.00  0.00    +0.000 OA
ATOM     18  C   UNL     1       2.529   3.961  20.175  0.00  0.00    +0.000 C 
ATOM     19  C   UNL     1       1.400   2.992  19.809  0.00  0.00    +0.000 C 
ATOM     20  C   UNL     1       1.474   2.638  18.313  0.00  0.00    +0.000 C 
ATOM     21  C   UNL     1       2.892   2.226  17.870  0.00  0.00    +0.000 C 
BRANCH  19  22
ATOM     22  O   UNL     1       0.104   3.541  20.082  0.00  0.00    +0.000 OA
ATOM     23  H   UNL     1      -0.226   3.988  19.283  0.00  0.00    +0.000 HD
ENDBRANCH  19  22
BRANCH  20  24
ATOM     24  O   UNL     1       0.542   1.587  18.024  0.00  0.00    +0.000 OA
ATOM     25  H   UNL     1      -0.234   1.720  18.604  0.00  0.00    +0.000 HD
ENDBRANCH  20  24
BRANCH  21  26
ATOM     26  O   UNL     1       3.238   0.911  18.343  0.00  0.00    +0.000 OA
ATOM     27  H   UNL     1       3.034   0.266  17.645  0.00  0.00    +0.000 HD
ENDBRANCH  21  26
BRANCH  18  28
ATOM     28  C   UNL     1       2.582   4.294  21.669  0.00  0.00    +0.000 C 
BRANCH  28  29
ATOM     29  O   UNL     1       2.098   3.215  22.462  0.00  0.00    +0.000 OA
ATOM     30  H   UNL     1       1.359   3.574  22.986  0.00  0.00    +0.000 HD
ENDBRANCH  28  29
ENDBRANCH  18  28
ENDBRANCH   1  16
TORSDOF 11
ENDMDL
MODEL 5
REMARK VINA RESULT:      -7.2      1.490      2.441
REMARK  Name = 
REMARK  13 active torsions:
REMARK  status: ('A' for Active; 'I' for Inactive)
REMARK    1  A    between atoms: C_1  and  O_2
REMARK    2  A    between atoms: O_2  and  C_3
REMARK    3  A    between atoms: C_3  and  C_5
REMARK    4  A    between atoms: C_7  and  O_8
REMARK    5  A    between atoms: O_8  and  C_9
REMARK    6  A    between atoms: C_11  and  C_12
REMARK    7  A    between atoms: C_12  and  O_13
REMARK    8  A    between atoms: C_14  and  O_15
REMARK    9  A    between atoms: C_16  and  O_17
REMARK   10  A    between atoms: C_18  and  O_19
REMARK   11  A    between atoms: C_21  and  C_22
REMARK   12  A    between atoms: C_22  and  O_24
REMARK   13  A    between atoms: O_24  and  C_25
REMARK                            x       y       z     vdW  Elec       q    Type
REMARK                         _______ _______ _______ _____ _____    ______ ____
ROOT
ATOM      1  O   UNL     1       4.639   3.219  18.188  0.00  0.00    +0.000 OA
ENDROOT
BRANCH   1   4
ATOM      2  C   UNL     1       6.237   4.593  15.116  0.00  0.00    +0.000 A 
ATOM      3  C   UNL     1       5.410   3.778  15.913  0.00  0.00    +0.000 A 
ATOM      4  C   UNL     1       5.345   3.970  17.290  0.00  0.00    +0.000 A 
ATOM      5  C   UNL     1       6.086   5.004  17.862  0.00  0.00    +0.000 A 
ATOM      6  C   UNL     1       6.890   5.851  17.081  0.00  0.00    +0.000 A 
ATOM      7  C   UNL     1       6.965   5.647  15.699  0.00  0.00    +0.000 A 
BRANCH   2   8
ATOM      8  C   UNL     1       6.366   4.336  13.652  0.00  0.00    +0.000 C 
ATOM      9  O   UNL     1       7.354   4.631  12.995  0.00  0.00    +0.000 OA
BRANCH   8  11
ATOM     10  C   UNL     1       5.419   2.988  11.977  0.00  0.00    +0.000 C 
ATOM     11  O   UNL     1       5.260   3.695  13.206  0.00  0.00    +0.000 OA
ENDBRANCH   8  11
ENDBRANCH   2   8
BRANCH   6  12
ATOM     12  C   UNL     1       7.622   6.916  17.820  0.00  0.00    +0.000 C 
ATOM     13  O   UNL     1       8.193   6.692  18.879  0.00  0.00    +0.000 OA
BRANCH  12  14
ATOM     14  O   UNL     1       7.578   8.117  17.195  0.00  0.00    +0.000 OA
ATOM     15  C   UNL     1       8.160   9.168  17.976  0.00  0.00    +0.000 C 
ENDBRANCH  12  14
ENDBRANCH   6  12
ENDBRANCH   1   4
BRANCH   1  16
ATOM     16  C   UNL     1       3.218   3.133  18.024  0.00  0.00    +0.000 C 
ATOM     17  O   UNL     1       2.568   2.501  19.143  0.00  0.00    +0.000 OA
ATOM     18  C   UNL     1       2.800   3.194  20.379  0.00  0.00    +0.000 C 
ATOM     19  C   UNL     1       2.165   4.587  20.331  0.00  0.00    +0.000 C 
ATOM     20  C   UNL     1       2.692   5.365  19.113  0.00  0.00    +0.000 C 
ATOM     21  C   UNL     1       2.627   4.545  17.810  0.00  0.00    +0.000 C 
BRANCH  19  22
ATOM     22  O   UNL     1       2.441   5.350  21.513  0.00  0.00    +0.000 OA
ATOM     23  H   UNL     1       2.741   4.747  22.216  0.00  0.00    +0.000 HD
ENDBRANCH  19  22
BRANCH  20  24
ATOM     24  O   UNL     1       1.952   6.584  18.966  0.00  0.00    +0.000 OA
ATOM     25  H   UNL     1       1.359   6.659  19.740  0.00  0.00    +0.000 HD
ENDBRANCH  20  24
BRANCH  21  26
ATOM     26  O   UNL     1       1.277   4.422  17.323  0.00  0.00    +0.000 OA
ATOM     27  H   UNL     1       0.853   5.295  17.362  0.00  0.00    +0.000 HD
ENDBRANCH  21  26
BRANCH  18  28
ATOM     28  C   UNL     1       2.258   2.319  21.513  0.00  0.00    +0.000 C 
BRANCH  28  29
ATOM     29  O   UNL     1       1.018   2.815  22.009  0.00  0.00    +0.000 OA
ATOM     30  H   UNL     1       0.741   2.199  22.712  0.00  0.00    +0.000 HD
ENDBRANCH  28  29
ENDBRANCH  18  28
ENDBRANCH   1  16
TORSDOF 11
ENDMDL
MODEL 6
REMARK VINA RESULT:      -7.1      1.088      4.617
REMARK  Name = 
REMARK  13 active torsions:
REMARK  status: ('A' for Active; 'I' for Inactive)
REMARK    1  A    between atoms: C_1  and  O_2
REMARK    2  A    between atoms: O_2  and  C_3
REMARK    3  A    between atoms: C_3  and  C_5
REMARK    4  A    between atoms: C_7  and  O_8
REMARK    5  A    between atoms: O_8  and  C_9
REMARK    6  A    between atoms: C_11  and  C_12
REMARK    7  A    between atoms: C_12  and  O_13
REMARK    8  A    between atoms: C_14  and  O_15
REMARK    9  A    between atoms: C_16  and  O_17
REMARK   10  A    between atoms: C_18  and  O_19
REMARK   11  A    between atoms: C_21  and  C_22
REMARK   12  A    between atoms: C_22  and  O_24
REMARK   13  A    between atoms: O_24  and  C_25
REMARK                            x       y       z     vdW  Elec       q    Type
REMARK                         _______ _______ _______ _____ _____    ______ ____
ROOT
ATOM      1  O   UNL     1       3.305   4.701  17.512  0.00  0.00    +0.000 OA
ENDROOT
BRANCH   1   4
ATOM      2  C   UNL     1       6.734   6.133  17.249  0.00  0.00    +0.000 A 
ATOM      3  C   UNL     1       5.496   5.788  17.826  0.00  0.00    +0.000 A 
ATOM      4  C   UNL     1       4.563   5.050  17.105  0.00  0.00    +0.000 A 
ATOM      5  C   UNL     1       4.887   4.628  15.816  0.00  0.00    +0.000 A 
ATOM      6  C   UNL     1       6.130   4.930  15.234  0.00  0.00    +0.000 A 
ATOM      7  C   UNL     1       7.061   5.685  15.956  0.00  0.00    +0.000 A 
BRANCH   2   8
ATOM      8  C   UNL     1       7.702   6.991  17.994  0.00  0.00    +0.000 C 
ATOM      9  O   UNL     1       8.242   6.655  19.038  0.00  0.00    +0.000 OA
BRANCH   8  11
ATOM     10  C   UNL     1       8.325   9.253  18.098  0.00  0.00    +0.000 C 
ATOM     11  O   UNL     1       7.907   8.140  17.309  0.00  0.00    +0.000 OA
ENDBRANCH   8  11
ENDBRANCH   2   8
BRANCH   6  12
ATOM     12  C   UNL     1       6.346   4.413  13.855  0.00  0.00    +0.000 C 
ATOM     13  O   UNL     1       7.310   4.752  13.183  0.00  0.00    +0.000 OA
BRANCH  12  14
ATOM     14  O   UNL     1       5.378   3.553  13.456  0.00  0.00    +0.000 OA
ATOM     15  C   UNL     1       5.525   3.150  12.090  0.00  0.00    +0.000 C 
ENDBRANCH  12  14
ENDBRANCH   6  12
ENDBRANCH   1   4
BRANCH   1  16
ATOM     16  C   UNL     1       2.984   3.306  17.588  0.00  0.00    +0.000 C 
ATOM     17  O   UNL     1       3.881   2.577  18.448  0.00  0.00    +0.000 OA
ATOM     18  C   UNL     1       3.878   3.074  19.795  0.00  0.00    +0.000 C 
ATOM     19  C   UNL     1       2.504   2.857  20.436  0.00  0.00    +0.000 C 
ATOM     20  C   UNL     1       1.410   3.504  19.568  0.00  0.00    +0.000 C 
ATOM     21  C   UNL     1       1.531   3.125  18.080  0.00  0.00    +0.000 C 
BRANCH  19  22
ATOM     22  O   UNL     1       2.427   3.412  21.755  0.00  0.00    +0.000 OA
ATOM     23  H   UNL     1       1.536   3.781  21.892  0.00  0.00    +0.000 HD
ENDBRANCH  19  22
BRANCH  20  24
ATOM     24  O   UNL     1       0.119   3.130  20.070  0.00  0.00    +0.000 OA
ATOM     25  H   UNL     1       0.074   3.419  21.002  0.00  0.00    +0.000 HD
ENDBRANCH  20  24
BRANCH  21  26
ATOM     26  O   UNL     1       1.116   1.768  17.838  0.00  0.00    +0.000 OA
ATOM     27  H   UNL     1       0.780   1.704  16.928  0.00  0.00    +0.000 HD
ENDBRANCH  21  26
BRANCH  18  28
ATOM     28  C   UNL     1       5.017   2.381  20.550  0.00  0.00    +0.000 C 
BRANCH  28  29
ATOM     29  O   UNL     1       5.266   1.077  20.035  0.00  0.00    +0.000 OA
ATOM     30  H   UNL     1       6.160   0.832  20.338  0.00  0.00    +0.000 HD
ENDBRANCH  28  29
ENDBRANCH  18  28
ENDBRANCH   1  16
TORSDOF 11
ENDMDL
MODEL 7
REMARK VINA RESULT:      -7.0      0.479      1.040
REMARK  Name = 
REMARK  13 active torsions:
REMARK  status: ('A' for Active; 'I' for Inactive)
REMARK    1  A    between atoms: C_1  and  O_2
REMARK    2  A    between atoms: O_2  and  C_3
REMARK    3  A    between atoms: C_3  and  C_5
REMARK    4  A    between atoms: C_7  and  O_8
REMARK    5  A    between atoms: O_8  and  C_9
REMARK    6  A    between atoms: C_11  and  C_12
REMARK    7  A    between atoms: C_12  and  O_13
REMARK    8  A    between atoms: C_14  and  O_15
REMARK    9  A    between atoms: C_16  and  O_17
REMARK   10  A    between atoms: C_18  and  O_19
REMARK   11  A    between atoms: C_21  and  C_22
REMARK   12  A    between atoms: C_22  and  O_24
REMARK   13  A    between atoms: O_24  and  C_25
REMARK                            x       y       z     vdW  Elec       q    Type
REMARK                         _______ _______ _______ _____ _____    ______ ____
ROOT
ATOM      1  O   UNL     1       3.884   4.954  17.918  0.00  0.00    +0.000 OA
ENDROOT
BRANCH   1   4
ATOM      2  C   UNL     1       6.430   5.342  15.225  0.00  0.00    +0.000 A 
ATOM      3  C   UNL     1       5.258   4.901  15.870  0.00  0.00    +0.000 A 
ATOM      4  C   UNL     1       4.948   5.345  17.152  0.00  0.00    +0.000 A 
ATOM      5  C   UNL     1       5.798   6.259  17.773  0.00  0.00    +0.000 A 
ATOM      6  C   UNL     1       6.954   6.740  17.134  0.00  0.00    +0.000 A 
ATOM      7  C   UNL     1       7.271   6.281  15.851  0.00  0.00    +0.000 A 
BRANCH   2   8
ATOM      8  C   UNL     1       6.801   4.806  13.883  0.00  0.00    +0.000 C 
ATOM      9  O   UNL     1       7.691   5.274  13.188  0.00  0.00    +0.000 OA
BRANCH   8  11
ATOM     10  C   UNL     1       6.156   3.222  12.272  0.00  0.00    +0.000 C 
ATOM     11  O   UNL     1       6.044   3.719  13.605  0.00  0.00    +0.000 OA
ENDBRANCH   8  11
ENDBRANCH   2   8
BRANCH   6  12
ATOM     12  C   UNL     1       7.768   7.715  17.910  0.00  0.00    +0.000 C 
ATOM     13  O   UNL     1       7.709   8.918  17.698  0.00  0.00    +0.000 OA
BRANCH  12  14
ATOM     14  O   UNL     1       8.552   7.123  18.843  0.00  0.00    +0.000 OA
ATOM     15  C   UNL     1       7.998   5.895  19.331  0.00  0.00    +0.000 C 
ENDBRANCH  12  14
ENDBRANCH   6  12
ENDBRANCH   1   4
BRANCH   1  16
ATOM     16  C   UNL     1       4.156   4.292  19.159  0.00  0.00    +0.000 C 
ATOM     17  O   UNL     1       3.014   4.268  20.036  0.00  0.00    +0.000 OA
ATOM     18  C   UNL     1       1.884   3.601  19.452  0.00  0.00    +0.000 C 
ATOM     19  C   UNL     1       2.202   2.119  19.229  0.00  0.00    +0.000 C 
ATOM     20  C   UNL     1       3.475   1.975  18.377  0.00  0.00    +0.000 C 
ATOM     21  C   UNL     1       4.636   2.847  18.892  0.00  0.00    +0.000 C 
BRANCH  19  22
ATOM     22  O   UNL     1       1.132   1.428  18.570  0.00  0.00    +0.000 OA
ATOM     23  H   UNL     1       0.284   1.819  18.848  0.00  0.00    +0.000 HD
ENDBRANCH  19  22
BRANCH  20  24
ATOM     24  O   UNL     1       3.872   0.597  18.338  0.00  0.00    +0.000 OA
ATOM     25  H   UNL     1       4.682   0.544  17.794  0.00  0.00    +0.000 HD
ENDBRANCH  20  24
BRANCH  21  26
ATOM     26  O   UNL     1       5.214   2.312  20.096  0.00  0.00    +0.000 OA
ATOM     27  H   UNL     1       6.137   2.067  19.916  0.00  0.00    +0.000 HD
ENDBRANCH  21  26
BRANCH  18  28
ATOM     28  C   UNL     1       0.680   3.832  20.370  0.00  0.00    +0.000 C 
BRANCH  28  29
ATOM     29  O   UNL     1       0.615   2.853  21.402  0.00  0.00    +0.000 OA
ATOM     30  H   UNL     1       1.259   3.130  22.079  0.00  0.00    +0.000 HD
ENDBRANCH  28  29
ENDBRANCH  18  28
ENDBRANCH   1  16
TORSDOF 11
ENDMDL
MODEL 8
REMARK VINA RESULT:      -6.9      0.956      1.315
REMARK  Name = 
REMARK  13 active torsions:
REMARK  status: ('A' for Active; 'I' for Inactive)
REMARK    1  A    between atoms: C_1  and  O_2
REMARK    2  A    between atoms: O_2  and  C_3
REMARK    3  A    between atoms: C_3  and  C_5
REMARK    4  A    between atoms: C_7  and  O_8
REMARK    5  A    between atoms: O_8  and  C_9
REMARK    6  A    between atoms: C_11  and  C_12
REMARK    7  A    between atoms: C_12  and  O_13
REMARK    8  A    between atoms: C_14  and  O_15
REMARK    9  A    between atoms: C_16  and  O_17
REMARK   10  A    between atoms: C_18  and  O_19
REMARK   11  A    between atoms: C_21  and  C_22
REMARK   12  A    between atoms: C_22  and  O_24
REMARK   13  A    between atoms: O_24  and  C_25
REMARK                            x       y       z     vdW  Elec       q    Type
REMARK                         _______ _______ _______ _____ _____    ______ ____
ROOT
ATOM      1  O   UNL     1       3.946   4.567  17.727  0.00  0.00    +0.000 OA
ENDROOT
BRANCH   1   4
ATOM      2  C   UNL     1       6.529   5.114  15.098  0.00  0.00    +0.000 A 
ATOM      3  C   UNL     1       5.355   4.624  15.703  0.00  0.00    +0.000 A 
ATOM      4  C   UNL     1       5.014   5.009  16.996  0.00  0.00    +0.000 A 
ATOM      5  C   UNL     1       5.834   5.914  17.669  0.00  0.00    +0.000 A 
ATOM      6  C   UNL     1       6.991   6.443  17.071  0.00  0.00    +0.000 A 
ATOM      7  C   UNL     1       7.339   6.043  15.776  0.00  0.00    +0.000 A 
BRANCH   2   8
ATOM      8  C   UNL     1       6.934   4.639  13.742  0.00  0.00    +0.000 C 
ATOM      9  O   UNL     1       7.732   5.228  13.028  0.00  0.00    +0.000 OA
BRANCH   8  11
ATOM     10  C   UNL     1       5.922   3.276  12.120  0.00  0.00    +0.000 C 
ATOM     11  O   UNL     1       6.326   3.460  13.475  0.00  0.00    +0.000 OA
ENDBRANCH   8  11
ENDBRANCH   2   8
BRANCH   6  12
ATOM     12  C   UNL     1       7.771   7.403  17.899  0.00  0.00    +0.000 C 
ATOM     13  O   UNL     1       8.354   7.052  18.916  0.00  0.00    +0.000 OA
BRANCH  12  14
ATOM     14  O   UNL     1       7.755   8.663  17.402  0.00  0.00    +0.000 OA
ATOM     15  C   UNL     1       8.508   9.582  18.202  0.00  0.00    +0.000 C 
ENDBRANCH  12  14
ENDBRANCH   6  12
ENDBRANCH   1   4
BRANCH   1  16
ATOM     16  C   UNL     1       4.196   4.050  19.040  0.00  0.00    +0.000 C 
ATOM     17  O   UNL     1       3.488   4.773  20.065  0.00  0.00    +0.000 OA
ATOM     18  C   UNL     1       2.065   4.747  19.875  0.00  0.00    +0.000 C 
ATOM     19  C   UNL     1       1.540   3.314  20.014  0.00  0.00    +0.000 C 
ATOM     20  C   UNL     1       2.280   2.385  19.036  0.00  0.00    +0.000 C 
ATOM     21  C   UNL     1       3.810   2.555  19.099  0.00  0.00    +0.000 C 
BRANCH  19  22
ATOM     22  O   UNL     1       0.133   3.225  19.750  0.00  0.00    +0.000 OA
ATOM     23  H   UNL     1      -0.012   3.265  18.788  0.00  0.00    +0.000 HD
ENDBRANCH  19  22
BRANCH  20  24
ATOM     24  O   UNL     1       1.923   1.023  19.309  0.00  0.00    +0.000 OA
ATOM     25  H   UNL     1       1.023   0.882  18.953  0.00  0.00    +0.000 HD
ENDBRANCH  20  24
BRANCH  21  26
ATOM     26  O   UNL     1       4.364   1.972  20.293  0.00  0.00    +0.000 OA
ATOM     27  H   UNL     1       4.903   2.643  20.745  0.00  0.00    +0.000 HD
ENDBRANCH  21  26
BRANCH  18  28
ATOM     28  C   UNL     1       1.443   5.721  20.880  0.00  0.00    +0.000 C 
BRANCH  28  29
ATOM     29  O   UNL     1       2.045   7.009  20.799  0.00  0.00    +0.000 OA
ATOM     30  H   UNL     1       1.322   7.635  20.608  0.00  0.00    +0.000 HD
ENDBRANCH  28  29
ENDBRANCH  18  28
ENDBRANCH   1  16
TORSDOF 11
ENDMDL
MODEL 9
REMARK VINA RESULT:      -6.9      4.604      7.387
REMARK  Name = 
REMARK  13 active torsions:
REMARK  status: ('A' for Active; 'I' for Inactive)
REMARK    1  A    between atoms: C_1  and  O_2
REMARK    2  A    between atoms: O_2  and  C_3
REMARK    3  A    between atoms: C_3  and  C_5
REMARK    4  A    between atoms: C_7  and  O_8
REMARK    5  A    between atoms: O_8  and  C_9
REMARK    6  A    between atoms: C_11  and  C_12
REMARK    7  A    between atoms: C_12  and  O_13
REMARK    8  A    between atoms: C_14  and  O_15
REMARK    9  A    between atoms: C_16  and  O_17
REMARK   10  A    between atoms: C_18  and  O_19
REMARK   11  A    between atoms: C_21  and  C_22
REMARK   12  A    between atoms: C_22  and  O_24
REMARK   13  A    between atoms: O_24  and  C_25
REMARK                            x       y       z     vdW  Elec       q    Type
REMARK                         _______ _______ _______ _____ _____    ______ ____
ROOT
ATOM      1  O   UNL     1       2.165   5.974  20.216  0.00  0.00    +0.000 OA
ENDROOT
BRANCH   1   4
ATOM      2  C   UNL     1       0.723   9.076  21.691  0.00  0.00    +0.000 A 
ATOM      3  C   UNL     1       1.174   7.745  21.619  0.00  0.00    +0.000 A 
ATOM      4  C   UNL     1       1.744   7.254  20.448  0.00  0.00    +0.000 A 
ATOM      5  C   UNL     1       1.892   8.113  19.359  0.00  0.00    +0.000 A 
ATOM      6  C   UNL     1       1.481   9.456  19.421  0.00  0.00    +0.000 A 
ATOM      7  C   UNL     1       0.895   9.942  20.595  0.00  0.00    +0.000 A 
BRANCH   2   8
ATOM      8  C   UNL     1       0.041   9.578  22.920  0.00  0.00    +0.000 C 
ATOM      9  O   UNL     1       0.531   9.519  24.039  0.00  0.00    +0.000 OA
BRANCH   8  11
ATOM     10  C   UNL     1      -1.366  11.450  23.090  0.00  0.00    +0.000 C 
ATOM     11  O   UNL     1      -1.145  10.135  22.584  0.00  0.00    +0.000 OA
ENDBRANCH   8  11
ENDBRANCH   2   8
BRANCH   6  12
ATOM     12  C   UNL     1       1.703  10.261  18.189  0.00  0.00    +0.000 C 
ATOM     13  O   UNL     1       2.158   9.767  17.167  0.00  0.00    +0.000 OA
BRANCH  12  14
ATOM     14  O   UNL     1       1.348  11.561  18.338  0.00  0.00    +0.000 OA
ATOM     15  C   UNL     1       2.460  12.455  18.210  0.00  0.00    +0.000 C 
ENDBRANCH  12  14
ENDBRANCH   6  12
ENDBRANCH   1   4
BRANCH   1  16
ATOM     16  C   UNL     1       2.391   5.574  18.859  0.00  0.00    +0.000 C 
ATOM     17  O   UNL     1       3.783   5.624  18.490  0.00  0.00    +0.000 OA
ATOM     18  C   UNL     1       4.601   4.776  19.311  0.00  0.00    +0.000 C 
ATOM     19  C   UNL     1       4.221   3.307  19.097  0.00  0.00    +0.000 C 
ATOM     20  C   UNL     1       2.718   3.108  19.361  0.00  0.00    +0.000 C 
ATOM     21  C   UNL     1       1.844   4.147  18.632  0.00  0.00    +0.000 C 
BRANCH  19  22
ATOM     22  O   UNL     1       4.955   2.426  19.958  0.00  0.00    +0.000 OA
ATOM     23  H   UNL     1       5.140   2.885  20.798  0.00  0.00    +0.000 HD
ENDBRANCH  19  22
BRANCH  20  24
ATOM     24  O   UNL     1       2.336   1.781  18.971  0.00  0.00    +0.000 OA
ATOM     25  H   UNL     1       1.616   1.499  19.569  0.00  0.00    +0.000 HD
ENDBRANCH  20  24
BRANCH  21  26
ATOM     26  O   UNL     1       1.773   3.888  17.218  0.00  0.00    +0.000 OA
ATOM     27  H   UNL     1       2.534   3.339  16.964  0.00  0.00    +0.000 HD
ENDBRANCH  21  26
BRANCH  18  28
ATOM     28  C   UNL     1       6.065   5.078  18.980  0.00  0.00    +0.000 C 
BRANCH  28  29
ATOM     29  O   UNL     1       6.642   4.052  18.179  0.00  0.00    +0.000 OA
ATOM     30  H   UNL     1       6.715   4.419  17.279  0.00  0.00    +0.000 HD
ENDBRANCH  28  29
ENDBRANCH  18  28
ENDBRANCH   1  16
TORSDOF 11
ENDMDL
