MODEL 1
REMARK VINA RESULT:      -7.8      0.000      0.000
REMARK  Name = 
REMARK  6 active torsions:
REMARK  status: ('A' for Active; 'I' for Inactive)
REMARK    1  A    between atoms: C_1  and  N_2
REMARK    2  A    between atoms: N_2  and  C_3
REMARK    3  A    between atoms: N_2  and  C_4
REMARK    4  A    between atoms: C_4  and  C_5
REMARK    5  A    between atoms: C_9  and  C_10
REMARK    6  A    between atoms: C_9  and  C_16
REMARK                            x       y       z     vdW  Elec       q    Type
REMARK                         _______ _______ _______ _____ _____    ______ ____
ROOT
ATOM      1  C   UNL     1       6.304   4.976  16.456  0.00  0.00    +0.000 C 
ATOM      2  C   UNL     1       7.326   4.682  17.575  0.00  0.00    +0.000 C 
ATOM      3  O   UNL     1       6.778   4.423  18.877  0.00  0.00    +0.000 OA
ATOM      4  C   UNL     1       5.810   5.426  19.222  0.00  0.00    +0.000 C 
ATOM      5  C   UNL     1       4.619   5.345  18.247  0.00  0.00    +0.000 C 
ATOM      6  O   UNL     1       5.170   5.740  16.937  0.00  0.00    +0.000 OA
ENDROOT
BRANCH   5   7
ATOM      7  C   UNL     1       3.574   6.442  18.579  0.00  0.00    +0.000 A 
ATOM      8  C   UNL     1       2.836   6.413  19.786  0.00  0.00    +0.000 A 
ATOM      9  C   UNL     1       1.886   7.390  20.113  0.00  0.00    +0.000 A 
ATOM     10  C   UNL     1       1.632   8.429  19.230  0.00  0.00    +0.000 A 
ATOM     11  C   UNL     1       2.335   8.489  18.028  0.00  0.00    +0.000 A 
ATOM     12  C   UNL     1       3.296   7.515  17.703  0.00  0.00    +0.000 A 
ENDBRANCH   5   7
BRANCH   5  13
ATOM     13  C   UNL     1       4.011   3.877  18.150  0.00  0.00    +0.000 C 
ATOM     14  C   UNL     1       4.209   2.910  19.328  0.00  0.00    +0.000 C 
ATOM     15  C   UNL     1       2.995   2.635  20.183  0.00  0.00    +0.000 C 
ATOM     16  C   UNL     1       1.741   2.290  19.409  0.00  0.00    +0.000 C 
ATOM     17  C   UNL     1       1.548   2.937  18.052  0.00  0.00    +0.000 C 
ATOM     18  C   UNL     1       2.633   3.828  17.482  0.00  0.00    +0.000 C 
ENDBRANCH   5  13
BRANCH   1  19
ATOM     19  C   UNL     1       5.789   3.925  15.403  0.00  0.00    +0.000 C 
BRANCH  19  21
ATOM     20  C   UNL     1       5.271   3.713  13.051  0.00  0.00    +0.000 C 
ATOM     21  N   UNL     1       6.366   3.726  14.051  0.00  0.00    +0.000 NA
ATOM     22  C   UNL     1       7.254   4.833  13.677  0.00  0.00    +0.000 C 
ENDBRANCH  19  21
ENDBRANCH   1  19
TORSDOF 4
ENDMDL
MODEL 2
REMARK VINA RESULT:      -7.8      0.068      1.026
REMARK  Name = 
REMARK  6 active torsions:
REMARK  status: ('A' for Active; 'I' for Inactive)
REMARK    1  A    between atoms: C_1  and  N_2
REMARK    2  A    between atoms: N_2  and  C_3
REMARK    3  A    between atoms: N_2  and  C_4
REMARK    4  A    between atoms: C_4  and  C_5
REMARK    5  A    between atoms: C_9  and  C_10
REMARK    6  A    between atoms: C_9  and  C_16
REMARK                            x       y       z     vdW  Elec       q    Type
REMARK                         _______ _______ _______ _____ _____    ______ ____
ROOT
ATOM      1  C   UNL     1       6.319   4.990  16.405  0.00  0.00    +0.000 C 
ATOM      2  C   UNL     1       7.358   4.707  17.513  0.00  0.00    +0.000 C 
ATOM      3  O   UNL     1       6.827   4.439  18.820  0.00  0.00    +0.000 OA
ATOM      4  C   UNL     1       5.852   5.431  19.178  0.00  0.00    +0.000 C 
ATOM      5  C   UNL     1       4.650   5.337  18.217  0.00  0.00    +0.000 C 
ATOM      6  O   UNL     1       5.182   5.740  16.901  0.00  0.00    +0.000 OA
ENDROOT
BRANCH   5   7
ATOM      7  C   UNL     1       3.596   6.420  18.562  0.00  0.00    +0.000 A 
ATOM      8  C   UNL     1       3.344   7.505  17.691  0.00  0.00    +0.000 A 
ATOM      9  C   UNL     1       2.398   8.499  17.976  0.00  0.00    +0.000 A 
ATOM     10  C   UNL     1       1.675   8.445  19.159  0.00  0.00    +0.000 A 
ATOM     11  C   UNL     1       1.898   7.392  20.046  0.00  0.00    +0.000 A 
ATOM     12  C   UNL     1       2.840   6.389  19.756  0.00  0.00    +0.000 A 
ENDBRANCH   5   7
BRANCH   5  13
ATOM     13  C   UNL     1       4.059   3.862  18.123  0.00  0.00    +0.000 C 
ATOM     14  C   UNL     1       4.274   2.897  19.301  0.00  0.00    +0.000 C 
ATOM     15  C   UNL     1       3.068   2.610  20.164  0.00  0.00    +0.000 C 
ATOM     16  C   UNL     1       1.814   2.250  19.397  0.00  0.00    +0.000 C 
ATOM     17  C   UNL     1       1.606   2.893  18.040  0.00  0.00    +0.000 C 
ATOM     18  C   UNL     1       2.678   3.797  17.463  0.00  0.00    +0.000 C 
ENDBRANCH   5  13
BRANCH   1  19
ATOM     19  C   UNL     1       5.805   3.934  15.357  0.00  0.00    +0.000 C 
BRANCH  19  21
ATOM     20  C   UNL     1       5.322   3.609  13.011  0.00  0.00    +0.000 C 
ATOM     21  N   UNL     1       6.404   3.707  14.020  0.00  0.00    +0.000 NA
ATOM     22  C   UNL     1       7.251   4.834  13.610  0.00  0.00    +0.000 C 
ENDBRANCH  19  21
ENDBRANCH   1  19
TORSDOF 4
ENDMDL
MODEL 3
REMARK VINA RESULT:      -6.6      0.765      1.456
REMARK  Name = 
REMARK  6 active torsions:
REMARK  status: ('A' for Active; 'I' for Inactive)
REMARK    1  A    between atoms: C_1  and  N_2
REMARK    2  A    between atoms: N_2  and  C_3
REMARK    3  A    between atoms: N_2  and  C_4
REMARK    4  A    between atoms: C_4  and  C_5
REMARK    5  A    between atoms: C_9  and  C_10
REMARK    6  A    between atoms: C_9  and  C_16
REMARK                            x       y       z     vdW  Elec       q    Type
REMARK                         _______ _______ _______ _____ _____    ______ ____
ROOT
ATOM      1  C   UNL     1       6.096   5.254  15.570  0.00  0.00    +0.000 C 
ATOM      2  C   UNL     1       7.332   5.046  16.474  0.00  0.00    +0.000 C 
ATOM      3  O   UNL     1       7.061   4.732  17.849  0.00  0.00    +0.000 OA
ATOM      4  C   UNL     1       6.091   5.643  18.390  0.00  0.00    +0.000 C 
ATOM      5  C   UNL     1       4.750   5.461  17.651  0.00  0.00    +0.000 C 
ATOM      6  O   UNL     1       5.011   5.910  16.271  0.00  0.00    +0.000 OA
ENDROOT
BRANCH   5   7
ATOM      7  C   UNL     1       3.695   6.458  18.195  0.00  0.00    +0.000 A 
ATOM      8  C   UNL     1       3.304   7.595  17.450  0.00  0.00    +0.000 A 
ATOM      9  C   UNL     1       2.353   8.513  17.916  0.00  0.00    +0.000 A 
ATOM     10  C   UNL     1       1.765   8.328  19.159  0.00  0.00    +0.000 A 
ATOM     11  C   UNL     1       2.127   7.221  19.925  0.00  0.00    +0.000 A 
ATOM     12  C   UNL     1       3.074   6.294  19.455  0.00  0.00    +0.000 A 
ENDBRANCH   5   7
BRANCH   5  13
ATOM     13  C   UNL     1       4.264   3.945  17.636  0.00  0.00    +0.000 C 
ATOM     14  C   UNL     1       4.683   3.018  18.788  0.00  0.00    +0.000 C 
ATOM     15  C   UNL     1       3.607   2.655  19.785  0.00  0.00    +0.000 C 
ATOM     16  C   UNL     1       2.305   2.192  19.168  0.00  0.00    +0.000 C 
ATOM     17  C   UNL     1       1.898   2.798  17.839  0.00  0.00    +0.000 C 
ATOM     18  C   UNL     1       2.827   3.768  17.138  0.00  0.00    +0.000 C 
ENDBRANCH   5  13
BRANCH   1  19
ATOM     19  C   UNL     1       5.487   4.166  14.609  0.00  0.00    +0.000 C 
BRANCH  19  21
ATOM     20  C   UNL     1       7.012   3.963  12.745  0.00  0.00    +0.000 C 
ATOM     21  N   UNL     1       5.598   4.184  13.130  0.00  0.00    +0.000 NA
ATOM     22  C   UNL     1       4.827   3.094  12.519  0.00  0.00    +0.000 C 
ENDBRANCH  19  21
ENDBRANCH   1  19
TORSDOF 4
ENDMDL
MODEL 4
REMARK VINA RESULT:      -6.2      2.432      4.673
REMARK  Name = 
REMARK  6 active torsions:
REMARK  status: ('A' for Active; 'I' for Inactive)
REMARK    1  A    between atoms: C_1  and  N_2
REMARK    2  A    between atoms: N_2  and  C_3
REMARK    3  A    between atoms: N_2  and  C_4
REMARK    4  A    between atoms: C_4  and  C_5
REMARK    5  A    between atoms: C_9  and  C_10
REMARK    6  A    between atoms: C_9  and  C_16
REMARK                            x       y       z     vdW  Elec       q    Type
REMARK                         _______ _______ _______ _____ _____    ______ ____
ROOT
ATOM      1  C   UNL     1       2.097   3.042  20.047  0.00  0.00    +0.000 C 
ATOM      2  C   UNL     1       1.459   2.381  18.804  0.00  0.00    +0.000 C 
ATOM      3  O   UNL     1       1.732   3.014  17.544  0.00  0.00    +0.000 OA
ATOM      4  C   UNL     1       1.501   4.429  17.633  0.00  0.00    +0.000 C 
ATOM      5  C   UNL     1       2.499   5.048  18.632  0.00  0.00    +0.000 C 
ATOM      6  O   UNL     1       2.123   4.488  19.944  0.00  0.00    +0.000 OA
ENDROOT
BRANCH   5   7
ATOM      7  C   UNL     1       2.248   6.572  18.771  0.00  0.00    +0.000 A 
ATOM      8  C   UNL     1       1.850   7.143  20.002  0.00  0.00    +0.000 A 
ATOM      9  C   UNL     1       1.616   8.516  20.158  0.00  0.00    +0.000 A 
ATOM     10  C   UNL     1       1.763   9.369  19.073  0.00  0.00    +0.000 A 
ATOM     11  C   UNL     1       2.150   8.843  17.841  0.00  0.00    +0.000 A 
ATOM     12  C   UNL     1       2.394   7.466  17.686  0.00  0.00    +0.000 A 
ENDBRANCH   5   7
BRANCH   5  13
ATOM     13  C   UNL     1       4.008   4.666  18.302  0.00  0.00    +0.000 C 
ATOM     14  C   UNL     1       4.421   4.463  16.835  0.00  0.00    +0.000 C 
ATOM     15  C   UNL     1       5.262   5.554  16.215  0.00  0.00    +0.000 C 
ATOM     16  C   UNL     1       6.445   5.991  17.051  0.00  0.00    +0.000 C 
ATOM     17  C   UNL     1       6.301   5.946  18.560  0.00  0.00    +0.000 C 
ATOM     18  C   UNL     1       5.030   5.397  19.178  0.00  0.00    +0.000 C 
ENDBRANCH   5  13
BRANCH   1  19
ATOM     19  C   UNL     1       3.427   2.565  20.742  0.00  0.00    +0.000 C 
BRANCH  19  21
ATOM     20  C   UNL     1       5.354   1.126  20.983  0.00  0.00    +0.000 C 
ATOM     21  N   UNL     1       4.586   1.968  20.035  0.00  0.00    +0.000 NA
ATOM     22  C   UNL     1       4.155   1.081  18.948  0.00  0.00    +0.000 C 
ENDBRANCH  19  21
ENDBRANCH   1  19
TORSDOF 4
ENDMDL
MODEL 5
REMARK VINA RESULT:      -6.1      2.465      4.788
REMARK  Name = 
REMARK  6 active torsions:
REMARK  status: ('A' for Active; 'I' for Inactive)
REMARK    1  A    between atoms: C_1  and  N_2
REMARK    2  A    between atoms: N_2  and  C_3
REMARK    3  A    between atoms: N_2  and  C_4
REMARK    4  A    between atoms: C_4  and  C_5
REMARK    5  A    between atoms: C_9  and  C_10
REMARK    6  A    between atoms: C_9  and  C_16
REMARK                            x       y       z     vdW  Elec       q    Type
REMARK                         _______ _______ _______ _____ _____    ______ ____
ROOT
ATOM      1  C   UNL     1       1.924   3.076  19.966  0.00  0.00    +0.000 C 
ATOM      2  C   UNL     1       1.293   2.465  18.695  0.00  0.00    +0.000 C 
ATOM      3  O   UNL     1       1.601   3.127  17.459  0.00  0.00    +0.000 OA
ATOM      4  C   UNL     1       1.401   4.543  17.584  0.00  0.00    +0.000 C 
ATOM      5  C   UNL     1       2.394   5.111  18.617  0.00  0.00    +0.000 C 
ATOM      6  O   UNL     1       1.983   4.523  19.906  0.00  0.00    +0.000 OA
ENDROOT
BRANCH   5   7
ATOM      7  C   UNL     1       2.175   6.636  18.795  0.00  0.00    +0.000 A 
ATOM      8  C   UNL     1       2.366   7.537  17.722  0.00  0.00    +0.000 A 
ATOM      9  C   UNL     1       2.175   8.919  17.852  0.00  0.00    +0.000 A 
ATOM     10  C   UNL     1       1.796   9.451  19.077  0.00  0.00    +0.000 A 
ATOM     11  C   UNL     1       1.603   8.596  20.160  0.00  0.00    +0.000 A 
ATOM     12  C   UNL     1       1.784   7.207  20.027  0.00  0.00    +0.000 A 
ENDBRANCH   5   7
BRANCH   5  13
ATOM     13  C   UNL     1       3.901   4.705  18.301  0.00  0.00    +0.000 C 
ATOM     14  C   UNL     1       4.331   4.524  16.836  0.00  0.00    +0.000 C 
ATOM     15  C   UNL     1       5.204   5.610  16.253  0.00  0.00    +0.000 C 
ATOM     16  C   UNL     1       6.384   6.003  17.115  0.00  0.00    +0.000 C 
ATOM     17  C   UNL     1       6.215   5.930  18.620  0.00  0.00    +0.000 C 
ATOM     18  C   UNL     1       4.924   5.395  19.207  0.00  0.00    +0.000 C 
ENDBRANCH   5  13
BRANCH   1  19
ATOM     19  C   UNL     1       3.230   2.549  20.670  0.00  0.00    +0.000 C 
BRANCH  19  21
ATOM     20  C   UNL     1       5.276   1.288  20.919  0.00  0.00    +0.000 C 
ATOM     21  N   UNL     1       4.424   2.031  19.960  0.00  0.00    +0.000 NA
ATOM     22  C   UNL     1       4.054   1.075  18.909  0.00  0.00    +0.000 C 
ENDBRANCH  19  21
ENDBRANCH   1  19
TORSDOF 4
ENDMDL
MODEL 6
REMARK VINA RESULT:      -5.9      2.201      5.930
REMARK  Name = 
REMARK  6 active torsions:
REMARK  status: ('A' for Active; 'I' for Inactive)
REMARK    1  A    between atoms: C_1  and  N_2
REMARK    2  A    between atoms: N_2  and  C_3
REMARK    3  A    between atoms: N_2  and  C_4
REMARK    4  A    between atoms: C_4  and  C_5
REMARK    5  A    between atoms: C_9  and  C_10
REMARK    6  A    between atoms: C_9  and  C_16
REMARK                            x       y       z     vdW  Elec       q    Type
REMARK                         _______ _______ _______ _____ _____    ______ ____
ROOT
ATOM      1  C   UNL     1       2.652   4.405  17.805  0.00  0.00    +0.000 C 
ATOM      2  C   UNL     1       3.074   3.269  18.764  0.00  0.00    +0.000 C 
ATOM      3  O   UNL     1       4.487   3.081  18.934  0.00  0.00    +0.000 OA
ATOM      4  C   UNL     1       5.145   3.039  17.658  0.00  0.00    +0.000 C 
ATOM      5  C   UNL     1       4.990   4.404  16.958  0.00  0.00    +0.000 C 
ATOM      6  O   UNL     1       3.548   4.525  16.673  0.00  0.00    +0.000 OA
ENDROOT
BRANCH   5   7
ATOM      7  C   UNL     1       5.665   4.374  15.562  0.00  0.00    +0.000 A 
ATOM      8  C   UNL     1       4.956   3.957  14.412  0.00  0.00    +0.000 A 
ATOM      9  C   UNL     1       5.538   3.919  13.137  0.00  0.00    +0.000 A 
ATOM     10  C   UNL     1       6.865   4.291  12.974  0.00  0.00    +0.000 A 
ATOM     11  C   UNL     1       7.598   4.705  14.085  0.00  0.00    +0.000 A 
ATOM     12  C   UNL     1       7.012   4.752  15.362  0.00  0.00    +0.000 A 
ENDBRANCH   5   7
BRANCH   5  13
ATOM     13  C   UNL     1       5.456   5.617  17.878  0.00  0.00    +0.000 C 
ATOM     14  C   UNL     1       6.437   5.344  19.029  0.00  0.00    +0.000 C 
ATOM     15  C   UNL     1       7.856   5.823  18.830  0.00  0.00    +0.000 C 
ATOM     16  C   UNL     1       7.979   7.251  18.345  0.00  0.00    +0.000 C 
ATOM     17  C   UNL     1       6.893   7.784  17.432  0.00  0.00    +0.000 C 
ATOM     18  C   UNL     1       5.694   6.916  17.102  0.00  0.00    +0.000 C 
ENDBRANCH   5  13
BRANCH   1  19
ATOM     19  C   UNL     1       2.213   5.849  18.253  0.00  0.00    +0.000 C 
BRANCH  19  21
ATOM     20  C   UNL     1       2.080   7.873  19.567  0.00  0.00    +0.000 C 
ATOM     21  N   UNL     1       2.519   6.457  19.570  0.00  0.00    +0.000 NA
ATOM     22  C   UNL     1       1.779   5.797  20.653  0.00  0.00    +0.000 C 
ENDBRANCH  19  21
ENDBRANCH   1  19
TORSDOF 4
ENDMDL
MODEL 7
REMARK VINA RESULT:      -5.9      1.045      1.537
REMARK  Name = 
REMARK  6 active torsions:
REMARK  status: ('A' for Active; 'I' for Inactive)
REMARK    1  A    between atoms: C_1  and  N_2
REMARK    2  A    between atoms: N_2  and  C_3
REMARK    3  A    between atoms: N_2  and  C_4
REMARK    4  A    between atoms: C_4  and  C_5
REMARK    5  A    between atoms: C_9  and  C_10
REMARK    6  A    between atoms: C_9  and  C_16
REMARK                            x       y       z     vdW  Elec       q    Type
REMARK                         _______ _______ _______ _____ _____    ______ ____
ROOT
ATOM      1  C   UNL     1       6.326   6.257  16.800  0.00  0.00    +0.000 C 
ATOM      2  C   UNL     1       7.464   5.747  17.713  0.00  0.00    +0.000 C 
ATOM      3  O   UNL     1       7.074   4.846  18.761  0.00  0.00    +0.000 OA
ATOM      4  C   UNL     1       5.944   5.369  19.477  0.00  0.00    +0.000 C 
ATOM      5  C   UNL     1       4.731   5.452  18.530  0.00  0.00    +0.000 C 
ATOM      6  O   UNL     1       5.095   6.475  17.532  0.00  0.00    +0.000 OA
ENDROOT
BRANCH   5   7
ATOM      7  C   UNL     1       3.505   6.045  19.272  0.00  0.00    +0.000 A 
ATOM      8  C   UNL     1       3.013   7.334  18.964  0.00  0.00    +0.000 A 
ATOM      9  C   UNL     1       1.908   7.897  19.617  0.00  0.00    +0.000 A 
ATOM     10  C   UNL     1       1.261   7.185  20.617  0.00  0.00    +0.000 A 
ATOM     11  C   UNL     1       1.719   5.912  20.952  0.00  0.00    +0.000 A 
ATOM     12  C   UNL     1       2.822   5.342  20.290  0.00  0.00    +0.000 A 
ENDBRANCH   5   7
BRANCH   5  13
ATOM     13  C   UNL     1       4.438   4.070  17.794  0.00  0.00    +0.000 C 
ATOM     14  C   UNL     1       4.732   2.756  18.534  0.00  0.00    +0.000 C 
ATOM     15  C   UNL     1       3.534   1.980  19.030  0.00  0.00    +0.000 C 
ATOM     16  C   UNL     1       2.439   1.786  18.003  0.00  0.00    +0.000 C 
ATOM     17  C   UNL     1       2.228   2.883  16.978  0.00  0.00    +0.000 C 
ATOM     18  C   UNL     1       3.155   4.082  16.958  0.00  0.00    +0.000 C 
ENDBRANCH   5  13
BRANCH   1  19
ATOM     19  C   UNL     1       5.970   5.668  15.384  0.00  0.00    +0.000 C 
BRANCH  19  21
ATOM     20  C   UNL     1       5.765   3.626  14.108  0.00  0.00    +0.000 C 
ATOM     21  N   UNL     1       6.723   4.587  14.702  0.00  0.00    +0.000 NA
ATOM     22  C   UNL     1       7.528   5.110  13.591  0.00  0.00    +0.000 C 
ENDBRANCH  19  21
ENDBRANCH   1  19
TORSDOF 4
ENDMDL
MODEL 8
REMARK VINA RESULT:      -5.9      2.211      5.930
REMARK  Name = 
REMARK  6 active torsions:
REMARK  status: ('A' for Active; 'I' for Inactive)
REMARK    1  A    between atoms: C_1  and  N_2
REMARK    2  A    between atoms: N_2  and  C_3
REMARK    3  A    between atoms: N_2  and  C_4
REMARK    4  A    between atoms: C_4  and  C_5
REMARK    5  A    between atoms: C_9  and  C_10
REMARK    6  A    between atoms: C_9  and  C_16
REMARK                            x       y       z     vdW  Elec       q    Type
REMARK                         _______ _______ _______ _____ _____    ______ ____
ROOT
ATOM      1  C   UNL     1       2.631   4.481  17.843  0.00  0.00    +0.000 C 
ATOM      2  C   UNL     1       3.036   3.344  18.808  0.00  0.00    +0.000 C 
ATOM      3  O   UNL     1       4.447   3.137  18.980  0.00  0.00    +0.000 OA
ATOM      4  C   UNL     1       5.104   3.079  17.705  0.00  0.00    +0.000 C 
ATOM      5  C   UNL     1       4.970   4.442  16.997  0.00  0.00    +0.000 C 
ATOM      6  O   UNL     1       3.529   4.583  16.711  0.00  0.00    +0.000 OA
ENDROOT
BRANCH   5   7
ATOM      7  C   UNL     1       5.644   4.396  15.601  0.00  0.00    +0.000 A 
ATOM      8  C   UNL     1       6.995   4.775  15.425  0.00  0.00    +0.000 A 
ATOM      9  C   UNL     1       7.631   4.743  14.176  0.00  0.00    +0.000 A 
ATOM     10  C   UNL     1       6.926   4.338  13.052  0.00  0.00    +0.000 A 
ATOM     11  C   UNL     1       5.591   3.960  13.185  0.00  0.00    +0.000 A 
ATOM     12  C   UNL     1       4.954   3.983  14.439  0.00  0.00    +0.000 A 
ENDBRANCH   5   7
BRANCH   5  13
ATOM     13  C   UNL     1       5.452   5.653  17.911  0.00  0.00    +0.000 C 
ATOM     14  C   UNL     1       6.431   5.373  19.063  0.00  0.00    +0.000 C 
ATOM     15  C   UNL     1       7.856   5.831  18.861  0.00  0.00    +0.000 C 
ATOM     16  C   UNL     1       7.998   7.255  18.369  0.00  0.00    +0.000 C 
ATOM     17  C   UNL     1       6.919   7.798  17.454  0.00  0.00    +0.000 C 
ATOM     18  C   UNL     1       5.708   6.946  17.130  0.00  0.00    +0.000 C 
ENDBRANCH   5  13
BRANCH   1  19
ATOM     19  C   UNL     1       2.213   5.934  18.284  0.00  0.00    +0.000 C 
BRANCH  19  21
ATOM     20  C   UNL     1       2.069   7.952  19.606  0.00  0.00    +0.000 C 
ATOM     21  N   UNL     1       2.507   6.536  19.606  0.00  0.00    +0.000 NA
ATOM     22  C   UNL     1       1.757   5.872  20.679  0.00  0.00    +0.000 C 
ENDBRANCH  19  21
ENDBRANCH   1  19
TORSDOF 4
ENDMDL
MODEL 9
REMARK VINA RESULT:      -5.8      1.028      1.314
REMARK  Name = 
REMARK  6 active torsions:
REMARK  status: ('A' for Active; 'I' for Inactive)
REMARK    1  A    between atoms: C_1  and  N_2
REMARK    2  A    between atoms: N_2  and  C_3
REMARK    3  A    between atoms: N_2  and  C_4
REMARK    4  A    between atoms: C_4  and  C_5
REMARK    5  A    between atoms: C_9  and  C_10
REMARK    6  A    between atoms: C_9  and  C_16
REMARK                            x       y       z     vdW  Elec       q    Type
REMARK                         _______ _______ _______ _____ _____    ______ ____
ROOT
ATOM      1  C   UNL     1       5.595   6.286  16.583  0.00  0.00    +0.000 C 
ATOM      2  C   UNL     1       6.692   5.754  17.532  0.00  0.00    +0.000 C 
ATOM      3  O   UNL     1       6.230   5.097  18.722  0.00  0.00    +0.000 OA
ATOM      4  C   UNL     1       5.229   5.891  19.378  0.00  0.00    +0.000 C 
ATOM      5  C   UNL     1       3.992   6.011  18.465  0.00  0.00    +0.000 C 
ATOM      6  O   UNL     1       4.449   6.801  17.306  0.00  0.00    +0.000 OA
ENDROOT
BRANCH   5   7
ATOM      7  C   UNL     1       2.908   6.893  19.138  0.00  0.00    +0.000 A 
ATOM      8  C   UNL     1       2.311   6.517  20.363  0.00  0.00    +0.000 A 
ATOM      9  C   UNL     1       1.330   7.294  20.994  0.00  0.00    +0.000 A 
ATOM     10  C   UNL     1       0.902   8.476  20.408  0.00  0.00    +0.000 A 
ATOM     11  C   UNL     1       1.463   8.877  19.197  0.00  0.00    +0.000 A 
ATOM     12  C   UNL     1       2.455   8.104  18.567  0.00  0.00    +0.000 A 
ENDBRANCH   5   7
BRANCH   5  13
ATOM     13  C   UNL     1       3.461   4.594  17.970  0.00  0.00    +0.000 C 
ATOM     14  C   UNL     1       3.910   3.328  18.716  0.00  0.00    +0.000 C 
ATOM     15  C   UNL     1       2.876   2.662  19.594  0.00  0.00    +0.000 C 
ATOM     16  C   UNL     1       1.531   2.449  18.934  0.00  0.00    +0.000 C 
ATOM     17  C   UNL     1       1.075   3.471  17.912  0.00  0.00    +0.000 C 
ATOM     18  C   UNL     1       1.995   4.612  17.525  0.00  0.00    +0.000 C 
ENDBRANCH   5  13
BRANCH   1  19
ATOM     19  C   UNL     1       5.081   5.547  15.291  0.00  0.00    +0.000 C 
BRANCH  19  21
ATOM     20  C   UNL     1       7.106   4.838  14.177  0.00  0.00    +0.000 C 
ATOM     21  N   UNL     1       5.766   4.404  14.640  0.00  0.00    +0.000 NA
ATOM     22  C   UNL     1       5.991   3.302  15.584  0.00  0.00    +0.000 C 
ENDBRANCH  19  21
ENDBRANCH   1  19
TORSDOF 4
ENDMDL
