MODEL 1
REMARK VINA RESULT:      -7.6      0.000      0.000
REMARK  Name = 
REMARK  2 active torsions:
REMARK  status: ('A' for Active; 'I' for Inactive)
REMARK    1  A    between atoms: C_6  and  C_7
REMARK    2  A    between atoms: C_19  and  C_20
REMARK                            x       y       z     vdW  Elec       q    Type
REMARK                         _______ _______ _______ _____ _____    ______ ____
ROOT
ATOM      1  O   UNL     1      -0.619  10.755  22.126  0.00  0.00    +0.000 OA
ATOM      2  N   UNL     1       0.262  10.040  21.542  0.00  0.00    +0.000 N 
ATOM      3  C   UNL     1       0.702   8.912  22.206  0.00  0.00    +0.000 A 
ATOM      4  C   UNL     1       1.451   7.943  21.567  0.00  0.00    +0.000 A 
ATOM      5  C   UNL     1       1.737   8.065  20.197  0.00  0.00    +0.000 A 
ATOM      6  C   UNL     1       2.204   6.980  19.376  0.00  0.00    +0.000 A 
ATOM      7  C   UNL     1       2.490   7.277  18.038  0.00  0.00    +0.000 A 
ATOM      8  C   UNL     1       2.463   8.583  17.612  0.00  0.00    +0.000 A 
ATOM      9  N   UNL     1       2.034   9.601  18.379  0.00  0.00    +0.000 NA
ATOM     10  C   UNL     1       1.545   9.344  19.606  0.00  0.00    +0.000 A 
ATOM     11  C   UNL     1       0.752  10.316  20.263  0.00  0.00    +0.000 A 
ENDROOT
BRANCH   6  12
ATOM     12  C   UNL     1       2.250   5.542  19.829  0.00  0.00    +0.000 A 
ATOM     13  C   UNL     1       1.061   4.894  20.251  0.00  0.00    +0.000 A 
ATOM     14  C   UNL     1       1.054   3.579  20.735  0.00  0.00    +0.000 A 
ATOM     15  C   UNL     1       2.224   2.842  20.720  0.00  0.00    +0.000 A 
ATOM     16  F   UNL     1       2.220   1.581  21.167  0.00  0.00    +0.000 F 
ATOM     17  C   UNL     1       3.400   3.401  20.250  0.00  0.00    +0.000 A 
ATOM     18  C   UNL     1       3.424   4.742  19.834  0.00  0.00    +0.000 A 
ATOM     19 CL   UNL     1       4.989   5.338  19.382  0.00  0.00    +0.000 Cl
ENDBRANCH   6  12
BRANCH  11  20
ATOM     20  C   UNL     1       0.320  11.605  19.624  0.00  0.00    +0.000 A 
ATOM     21  C   UNL     1       0.978  12.837  19.868  0.00  0.00    +0.000 A 
ATOM     22 CL   UNL     1       2.436  12.983  20.805  0.00  0.00    +0.000 Cl
ATOM     23  C   UNL     1       0.544  14.041  19.285  0.00  0.00    +0.000 A 
ATOM     24  C   UNL     1      -0.469  14.038  18.336  0.00  0.00    +0.000 A 
ATOM     25  C   UNL     1      -1.105  12.844  18.033  0.00  0.00    +0.000 A 
ATOM     26  C   UNL     1      -0.766  11.661  18.712  0.00  0.00    +0.000 A 
ATOM     27 CL   UNL     1      -1.822  10.312  18.412  0.00  0.00    +0.000 Cl
ENDBRANCH  11  20
TORSDOF 2
ENDMDL
MODEL 2
REMARK VINA RESULT:      -7.5      0.212      1.786
REMARK  Name = 
REMARK  2 active torsions:
REMARK  status: ('A' for Active; 'I' for Inactive)
REMARK    1  A    between atoms: C_6  and  C_7
REMARK    2  A    between atoms: C_19  and  C_20
REMARK                            x       y       z     vdW  Elec       q    Type
REMARK                         _______ _______ _______ _____ _____    ______ ____
ROOT
ATOM      1  O   UNL     1      -0.222  10.972  22.287  0.00  0.00    +0.000 OA
ATOM      2  N   UNL     1       0.571  10.213  21.637  0.00  0.00    +0.000 N 
ATOM      3  C   UNL     1       1.047   9.091  22.285  0.00  0.00    +0.000 A 
ATOM      4  C   UNL     1       1.697   8.081  21.602  0.00  0.00    +0.000 A 
ATOM      5  C   UNL     1       1.839   8.155  20.206  0.00  0.00    +0.000 A 
ATOM      6  C   UNL     1       2.184   7.033  19.375  0.00  0.00    +0.000 A 
ATOM      7  C   UNL     1       2.335   7.284  18.005  0.00  0.00    +0.000 A 
ATOM      8  C   UNL     1       2.300   8.577  17.544  0.00  0.00    +0.000 A 
ATOM      9  N   UNL     1       1.985   9.629  18.320  0.00  0.00    +0.000 NA
ATOM     10  C   UNL     1       1.621   9.422  19.599  0.00  0.00    +0.000 A 
ATOM     11  C   UNL     1       0.931  10.438  20.305  0.00  0.00    +0.000 A 
ENDROOT
BRANCH   6  12
ATOM     12  C   UNL     1       2.237   5.608  19.865  0.00  0.00    +0.000 A 
ATOM     13  C   UNL     1       1.055   4.973  20.325  0.00  0.00    +0.000 A 
ATOM     14  C   UNL     1       1.055   3.672  20.843  0.00  0.00    +0.000 A 
ATOM     15  C   UNL     1       2.224   2.933  20.828  0.00  0.00    +0.000 A 
ATOM     16  F   UNL     1       2.227   1.684  21.308  0.00  0.00    +0.000 F 
ATOM     17  C   UNL     1       3.393   3.477  20.323  0.00  0.00    +0.000 A 
ATOM     18  C   UNL     1       3.411   4.807  19.872  0.00  0.00    +0.000 A 
ATOM     19 CL   UNL     1       4.968   5.389  19.377  0.00  0.00    +0.000 Cl
ENDBRANCH   6  12
BRANCH  11  20
ATOM     20  C   UNL     1       0.471  11.721  19.676  0.00  0.00    +0.000 A 
ATOM     21  C   UNL     1      -0.646  11.786  18.803  0.00  0.00    +0.000 A 
ATOM     22 CL   UNL     1      -1.695  10.438  18.476  0.00  0.00    +0.000 Cl
ATOM     23  C   UNL     1      -1.048  12.990  18.199  0.00  0.00    +0.000 A 
ATOM     24  C   UNL     1      -0.442  14.190  18.547  0.00  0.00    +0.000 A 
ATOM     25  C   UNL     1       0.621  14.174  19.436  0.00  0.00    +0.000 A 
ATOM     26  C   UNL     1       1.115  12.958  19.939  0.00  0.00    +0.000 A 
ATOM     27 CL   UNL     1       2.605  13.080  20.828  0.00  0.00    +0.000 Cl
ENDBRANCH  11  20
TORSDOF 2
ENDMDL
MODEL 3
REMARK VINA RESULT:      -7.2      3.686      7.545
REMARK  Name = 
REMARK  2 active torsions:
REMARK  status: ('A' for Active; 'I' for Inactive)
REMARK    1  A    between atoms: C_6  and  C_7
REMARK    2  A    between atoms: C_19  and  C_20
REMARK                            x       y       z     vdW  Elec       q    Type
REMARK                         _______ _______ _______ _____ _____    ______ ____
ROOT
ATOM      1  O   UNL     1       4.248   3.412  20.083  0.00  0.00    +0.000 OA
ATOM      2  N   UNL     1       3.534   4.411  19.736  0.00  0.00    +0.000 N 
ATOM      3  C   UNL     1       2.456   4.727  20.538  0.00  0.00    +0.000 A 
ATOM      4  C   UNL     1       1.779   5.923  20.402  0.00  0.00    +0.000 A 
ATOM      5  C   UNL     1       2.216   6.876  19.466  0.00  0.00    +0.000 A 
ATOM      6  C   UNL     1       1.806   8.255  19.476  0.00  0.00    +0.000 A 
ATOM      7  C   UNL     1       2.294   9.066  18.444  0.00  0.00    +0.000 A 
ATOM      8  C   UNL     1       2.996   8.499  17.408  0.00  0.00    +0.000 A 
ATOM      9  N   UNL     1       3.374   7.208  17.393  0.00  0.00    +0.000 NA
ATOM     10  C   UNL     1       3.116   6.431  18.460  0.00  0.00    +0.000 A 
ATOM     11  C   UNL     1       3.821   5.214  18.629  0.00  0.00    +0.000 A 
ENDROOT
BRANCH   6  12
ATOM     12  C   UNL     1       1.027   8.893  20.598  0.00  0.00    +0.000 A 
ATOM     13  C   UNL     1       1.458   8.734  21.940  0.00  0.00    +0.000 A 
ATOM     14  C   UNL     1       0.744   9.256  23.025  0.00  0.00    +0.000 A 
ATOM     15  C   UNL     1      -0.375  10.035  22.792  0.00  0.00    +0.000 A 
ATOM     16  F   UNL     1      -1.053  10.549  23.824  0.00  0.00    +0.000 F 
ATOM     17  C   UNL     1      -0.800  10.285  21.498  0.00  0.00    +0.000 A 
ATOM     18  C   UNL     1      -0.127   9.700  20.413  0.00  0.00    +0.000 A 
ATOM     19 CL   UNL     1      -0.841  10.006  18.862  0.00  0.00    +0.000 Cl
ENDBRANCH   6  12
BRANCH  11  20
ATOM     20  C   UNL     1       4.942   4.772  17.732  0.00  0.00    +0.000 A 
ATOM     21  C   UNL     1       4.724   4.011  16.554  0.00  0.00    +0.000 A 
ATOM     22 CL   UNL     1       3.146   3.628  15.932  0.00  0.00    +0.000 Cl
ATOM     23  C   UNL     1       5.786   3.581  15.739  0.00  0.00    +0.000 A 
ATOM     24  C   UNL     1       7.083   4.007  15.990  0.00  0.00    +0.000 A 
ATOM     25  C   UNL     1       7.330   4.794  17.104  0.00  0.00    +0.000 A 
ATOM     26  C   UNL     1       6.294   5.115  17.997  0.00  0.00    +0.000 A 
ATOM     27 CL   UNL     1       6.805   5.880  19.473  0.00  0.00    +0.000 Cl
ENDBRANCH  11  20
TORSDOF 2
ENDMDL
MODEL 4
REMARK VINA RESULT:      -7.1      3.679      7.331
REMARK  Name = 
REMARK  2 active torsions:
REMARK  status: ('A' for Active; 'I' for Inactive)
REMARK    1  A    between atoms: C_6  and  C_7
REMARK    2  A    between atoms: C_19  and  C_20
REMARK                            x       y       z     vdW  Elec       q    Type
REMARK                         _______ _______ _______ _____ _____    ______ ____
ROOT
ATOM      1  O   UNL     1       4.349   3.554  20.113  0.00  0.00    +0.000 OA
ATOM      2  N   UNL     1       3.607   4.527  19.751  0.00  0.00    +0.000 N 
ATOM      3  C   UNL     1       2.524   4.829  20.551  0.00  0.00    +0.000 A 
ATOM      4  C   UNL     1       1.814   6.004  20.396  0.00  0.00    +0.000 A 
ATOM      5  C   UNL     1       2.222   6.950  19.441  0.00  0.00    +0.000 A 
ATOM      6  C   UNL     1       1.776   8.318  19.427  0.00  0.00    +0.000 A 
ATOM      7  C   UNL     1       2.238   9.122  18.378  0.00  0.00    +0.000 A 
ATOM      8  C   UNL     1       2.950   8.555  17.350  0.00  0.00    +0.000 A 
ATOM      9  N   UNL     1       3.363   7.275  17.357  0.00  0.00    +0.000 NA
ATOM     10  C   UNL     1       3.130   6.511  18.439  0.00  0.00    +0.000 A 
ATOM     11  C   UNL     1       3.868   5.317  18.627  0.00  0.00    +0.000 A 
ENDROOT
BRANCH   6  12
ATOM     12  C   UNL     1       0.984   8.956  20.540  0.00  0.00    +0.000 A 
ATOM     13  C   UNL     1       1.378   8.764  21.889  0.00  0.00    +0.000 A 
ATOM     14  C   UNL     1       0.649   9.286  22.966  0.00  0.00    +0.000 A 
ATOM     15  C   UNL     1      -0.445  10.095  22.718  0.00  0.00    +0.000 A 
ATOM     16  F   UNL     1      -1.137  10.608  23.742  0.00  0.00    +0.000 F 
ATOM     17  C   UNL     1      -0.832  10.375  21.419  0.00  0.00    +0.000 A 
ATOM     18  C   UNL     1      -0.146   9.793  20.340  0.00  0.00    +0.000 A 
ATOM     19 CL   UNL     1      -0.814  10.141  18.778  0.00  0.00    +0.000 Cl
ENDBRANCH   6  12
BRANCH  11  20
ATOM     20  C   UNL     1       4.997   4.889  17.734  0.00  0.00    +0.000 A 
ATOM     21  C   UNL     1       6.349   5.231  17.993  0.00  0.00    +0.000 A 
ATOM     22 CL   UNL     1       6.878   6.048  19.433  0.00  0.00    +0.000 Cl
ATOM     23  C   UNL     1       7.392   4.848  17.131  0.00  0.00    +0.000 A 
ATOM     24  C   UNL     1       7.145   3.997  16.062  0.00  0.00    +0.000 A 
ATOM     25  C   UNL     1       5.843   3.599  15.805  0.00  0.00    +0.000 A 
ATOM     26  C   UNL     1       4.778   4.089  16.582  0.00  0.00    +0.000 A 
ATOM     27 CL   UNL     1       3.192   3.710  15.978  0.00  0.00    +0.000 Cl
ENDBRANCH  11  20
TORSDOF 2
ENDMDL
MODEL 5
REMARK VINA RESULT:      -7.0      1.110      1.133
REMARK  Name = 
REMARK  2 active torsions:
REMARK  status: ('A' for Active; 'I' for Inactive)
REMARK    1  A    between atoms: C_6  and  C_7
REMARK    2  A    between atoms: C_19  and  C_20
REMARK                            x       y       z     vdW  Elec       q    Type
REMARK                         _______ _______ _______ _____ _____    ______ ____
ROOT
ATOM      1  O   UNL     1      -0.783   9.671  21.711  0.00  0.00    +0.000 OA
ATOM      2  N   UNL     1       0.210   9.178  21.078  0.00  0.00    +0.000 N 
ATOM      3  C   UNL     1       0.707   7.969  21.523  0.00  0.00    +0.000 A 
ATOM      4  C   UNL     1       1.598   7.233  20.768  0.00  0.00    +0.000 A 
ATOM      5  C   UNL     1       1.979   7.682  19.492  0.00  0.00    +0.000 A 
ATOM      6  C   UNL     1       2.617   6.849  18.507  0.00  0.00    +0.000 A 
ATOM      7  C   UNL     1       2.977   7.463  17.300  0.00  0.00    +0.000 A 
ATOM      8  C   UNL     1       2.854   8.824  17.167  0.00  0.00    +0.000 A 
ATOM      9  N   UNL     1       2.265   9.605  18.089  0.00  0.00    +0.000 NA
ATOM     10  C   UNL     1       1.708   9.041  19.176  0.00  0.00    +0.000 A 
ATOM     11  C   UNL     1       0.771   9.774  19.945  0.00  0.00    +0.000 A 
ENDROOT
BRANCH   6  12
ATOM     12  C   UNL     1       2.771   5.355  18.640  0.00  0.00    +0.000 A 
ATOM     13  C   UNL     1       1.672   4.503  18.360  0.00  0.00    +0.000 A 
ATOM     14  C   UNL     1       1.741   3.113  18.521  0.00  0.00    +0.000 A 
ATOM     15  C   UNL     1       2.942   2.527  18.876  0.00  0.00    +0.000 A 
ATOM     16  F   UNL     1       3.018   1.199  19.016  0.00  0.00    +0.000 F 
ATOM     17  C   UNL     1       4.067   3.306  19.090  0.00  0.00    +0.000 A 
ATOM     18  C   UNL     1       3.980   4.705  19.002  0.00  0.00    +0.000 A 
ATOM     19 CL   UNL     1       5.437   5.553  19.410  0.00  0.00    +0.000 Cl
ENDBRANCH   6  12
BRANCH  11  20
ATOM     20  C   UNL     1       0.264  11.134  19.561  0.00  0.00    +0.000 A 
ATOM     21  C   UNL     1       0.840  12.332  20.056  0.00  0.00    +0.000 A 
ATOM     22 CL   UNL     1       2.275  12.380  21.035  0.00  0.00    +0.000 Cl
ATOM     23  C   UNL     1       0.336  13.599  19.709  0.00  0.00    +0.000 A 
ATOM     24  C   UNL     1      -0.665  13.721  18.755  0.00  0.00    +0.000 A 
ATOM     25  C   UNL     1      -1.220  12.574  18.210  0.00  0.00    +0.000 A 
ATOM     26  C   UNL     1      -0.814  11.302  18.652  0.00  0.00    +0.000 A 
ATOM     27 CL   UNL     1      -1.778   9.978  18.070  0.00  0.00    +0.000 Cl
ENDBRANCH  11  20
TORSDOF 2
ENDMDL
MODEL 6
REMARK VINA RESULT:      -6.8      3.281      4.844
REMARK  Name = 
REMARK  2 active torsions:
REMARK  status: ('A' for Active; 'I' for Inactive)
REMARK    1  A    between atoms: C_6  and  C_7
REMARK    2  A    between atoms: C_19  and  C_20
REMARK                            x       y       z     vdW  Elec       q    Type
REMARK                         _______ _______ _______ _____ _____    ______ ____
ROOT
ATOM      1  O   UNL     1       1.130  14.888  22.327  0.00  0.00    +0.000 OA
ATOM      2  N   UNL     1       0.885  14.079  21.371  0.00  0.00    +0.000 N 
ATOM      3  C   UNL     1       1.931  13.299  20.918  0.00  0.00    +0.000 A 
ATOM      4  C   UNL     1       1.719  12.226  20.075  0.00  0.00    +0.000 A 
ATOM      5  C   UNL     1       0.412  11.871  19.702  0.00  0.00    +0.000 A 
ATOM      6  C   UNL     1       0.061  10.602  19.122  0.00  0.00    +0.000 A 
ATOM      7  C   UNL     1      -1.280  10.422  18.760  0.00  0.00    +0.000 A 
ATOM      8  C   UNL     1      -2.150  11.483  18.827  0.00  0.00    +0.000 A 
ATOM      9  N   UNL     1      -1.822  12.673  19.362  0.00  0.00    +0.000 NA
ATOM     10  C   UNL     1      -0.609  12.835  19.921  0.00  0.00    +0.000 A 
ATOM     11  C   UNL     1      -0.384  13.916  20.808  0.00  0.00    +0.000 A 
ENDROOT
BRANCH   6  12
ATOM     12  C   UNL     1       1.004   9.429  19.030  0.00  0.00    +0.000 A 
ATOM     13  C   UNL     1       1.743   9.206  17.840  0.00  0.00    +0.000 A 
ATOM     14  C   UNL     1       2.590   8.102  17.678  0.00  0.00    +0.000 A 
ATOM     15  C   UNL     1       2.794   7.239  18.739  0.00  0.00    +0.000 A 
ATOM     16  F   UNL     1       3.613   6.191  18.595  0.00  0.00    +0.000 F 
ATOM     17  C   UNL     1       2.154   7.450  19.948  0.00  0.00    +0.000 A 
ATOM     18  C   UNL     1       1.248   8.513  20.089  0.00  0.00    +0.000 A 
ATOM     19 CL   UNL     1       0.436   8.584  21.619  0.00  0.00    +0.000 Cl
ENDBRANCH   6  12
BRANCH  11  20
ATOM     20  C   UNL     1      -1.464  14.855  21.264  0.00  0.00    +0.000 A 
ATOM     21  C   UNL     1      -1.725  16.091  20.618  0.00  0.00    +0.000 A 
ATOM     22 CL   UNL     1      -0.940  16.597  19.151  0.00  0.00    +0.000 Cl
ATOM     23  C   UNL     1      -2.721  16.973  21.074  0.00  0.00    +0.000 A 
ATOM     24  C   UNL     1      -3.579  16.597  22.097  0.00  0.00    +0.000 A 
ATOM     25  C   UNL     1      -3.388  15.374  22.722  0.00  0.00    +0.000 A 
ATOM     26  C   UNL     1      -2.310  14.547  22.361  0.00  0.00    +0.000 A 
ATOM     27 CL   UNL     1      -2.050  13.180  23.404  0.00  0.00    +0.000 Cl
ENDBRANCH  11  20
TORSDOF 2
ENDMDL
MODEL 7
REMARK VINA RESULT:      -6.8      3.277      4.868
REMARK  Name = 
REMARK  2 active torsions:
REMARK  status: ('A' for Active; 'I' for Inactive)
REMARK    1  A    between atoms: C_6  and  C_7
REMARK    2  A    between atoms: C_19  and  C_20
REMARK                            x       y       z     vdW  Elec       q    Type
REMARK                         _______ _______ _______ _____ _____    ______ ____
ROOT
ATOM      1  O   UNL     1       0.818  14.786  22.362  0.00  0.00    +0.000 OA
ATOM      2  N   UNL     1       0.659  13.999  21.370  0.00  0.00    +0.000 N 
ATOM      3  C   UNL     1       1.748  13.246  20.979  0.00  0.00    +0.000 A 
ATOM      4  C   UNL     1       1.618  12.192  20.095  0.00  0.00    +0.000 A 
ATOM      5  C   UNL     1       0.349  11.830  19.614  0.00  0.00    +0.000 A 
ATOM      6  C   UNL     1       0.062  10.573  18.976  0.00  0.00    +0.000 A 
ATOM      7  C   UNL     1      -1.245  10.386  18.508  0.00  0.00    +0.000 A 
ATOM      8  C   UNL     1      -2.133  11.433  18.535  0.00  0.00    +0.000 A 
ATOM      9  N   UNL     1      -1.865  12.612  19.124  0.00  0.00    +0.000 NA
ATOM     10  C   UNL     1      -0.701  12.776  19.778  0.00  0.00    +0.000 A 
ATOM     11  C   UNL     1      -0.560  13.836  20.707  0.00  0.00    +0.000 A 
ENDROOT
BRANCH   6  12
ATOM     12  C   UNL     1       1.026   9.415  18.928  0.00  0.00    +0.000 A 
ATOM     13  C   UNL     1       1.808   9.193  17.765  0.00  0.00    +0.000 A 
ATOM     14  C   UNL     1       2.678   8.102  17.642  0.00  0.00    +0.000 A 
ATOM     15  C   UNL     1       2.860   7.253  18.718  0.00  0.00    +0.000 A 
ATOM     16  F   UNL     1       3.701   6.217  18.612  0.00  0.00    +0.000 F 
ATOM     17  C   UNL     1       2.177   7.464  19.904  0.00  0.00    +0.000 A 
ATOM     18  C   UNL     1       1.250   8.514  20.003  0.00  0.00    +0.000 A 
ATOM     19 CL   UNL     1       0.386   8.585  21.505  0.00  0.00    +0.000 Cl
ENDBRANCH   6  12
BRANCH  11  20
ATOM     20  C   UNL     1      -1.685  14.748  21.102  0.00  0.00    +0.000 A 
ATOM     21  C   UNL     1      -2.623  14.412  22.112  0.00  0.00    +0.000 A 
ATOM     22 CL   UNL     1      -2.502  12.992  23.107  0.00  0.00    +0.000 Cl
ATOM     23  C   UNL     1      -3.689  15.265  22.451  0.00  0.00    +0.000 A 
ATOM     24  C   UNL     1      -3.778  16.534  21.897  0.00  0.00    +0.000 A 
ATOM     25  C   UNL     1      -2.851  16.920  20.942  0.00  0.00    +0.000 A 
ATOM     26  C   UNL     1      -1.863  16.021  20.500  0.00  0.00    +0.000 A 
ATOM     27 CL   UNL     1      -0.946  16.555  19.123  0.00  0.00    +0.000 Cl
ENDBRANCH  11  20
TORSDOF 2
ENDMDL
MODEL 8
REMARK VINA RESULT:      -6.7      2.919      4.137
REMARK  Name = 
REMARK  2 active torsions:
REMARK  status: ('A' for Active; 'I' for Inactive)
REMARK    1  A    between atoms: C_6  and  C_7
REMARK    2  A    between atoms: C_19  and  C_20
REMARK                            x       y       z     vdW  Elec       q    Type
REMARK                         _______ _______ _______ _____ _____    ______ ____
ROOT
ATOM      1  O   UNL     1       1.516  11.306  18.830  0.00  0.00    +0.000 OA
ATOM      2  N   UNL     1       1.620  10.036  18.758  0.00  0.00    +0.000 N 
ATOM      3  C   UNL     1       2.294   9.518  17.670  0.00  0.00    +0.000 A 
ATOM      4  C   UNL     1       2.682   8.193  17.624  0.00  0.00    +0.000 A 
ATOM      5  C   UNL     1       2.442   7.351  18.723  0.00  0.00    +0.000 A 
ATOM      6  C   UNL     1       3.089   6.081  18.915  0.00  0.00    +0.000 A 
ATOM      7  C   UNL     1       2.703   5.339  20.039  0.00  0.00    +0.000 A 
ATOM      8  C   UNL     1       1.645   5.767  20.805  0.00  0.00    +0.000 A 
ATOM      9  N   UNL     1       1.034   6.951  20.623  0.00  0.00    +0.000 NA
ATOM     10  C   UNL     1       1.503   7.801  19.691  0.00  0.00    +0.000 A 
ATOM     11  C   UNL     1       1.135   9.168  19.740  0.00  0.00    +0.000 A 
ENDROOT
BRANCH   6  12
ATOM     12  C   UNL     1       4.244   5.589  18.080  0.00  0.00    +0.000 A 
ATOM     13  C   UNL     1       5.489   6.267  18.124  0.00  0.00    +0.000 A 
ATOM     14  C   UNL     1       6.578   5.890  17.328  0.00  0.00    +0.000 A 
ATOM     15  C   UNL     1       6.481   4.762  16.533  0.00  0.00    +0.000 A 
ATOM     16  F   UNL     1       7.523   4.388  15.781  0.00  0.00    +0.000 F 
ATOM     17  C   UNL     1       5.313   4.020  16.506  0.00  0.00    +0.000 A 
ATOM     18  C   UNL     1       4.196   4.440  17.247  0.00  0.00    +0.000 A 
ATOM     19 CL   UNL     1       2.770   3.478  17.025  0.00  0.00    +0.000 Cl
ENDBRANCH   6  12
BRANCH  11  20
ATOM     20  C   UNL     1       0.324   9.770  20.850  0.00  0.00    +0.000 A 
ATOM     21  C   UNL     1       0.709   9.683  22.213  0.00  0.00    +0.000 A 
ATOM     22 CL   UNL     1       2.220   9.008  22.746  0.00  0.00    +0.000 Cl
ATOM     23  C   UNL     1      -0.075  10.227  23.245  0.00  0.00    +0.000 A 
ATOM     24  C   UNL     1      -1.194  10.994  22.949  0.00  0.00    +0.000 A 
ATOM     25  C   UNL     1      -1.576  11.146  21.625  0.00  0.00    +0.000 A 
ATOM     26  C   UNL     1      -0.873  10.491  20.598  0.00  0.00    +0.000 A 
ATOM     27 CL   UNL     1      -1.623  10.564  19.031  0.00  0.00    +0.000 Cl
ENDBRANCH  11  20
TORSDOF 2
ENDMDL
MODEL 9
REMARK VINA RESULT:      -6.7      2.904      4.361
REMARK  Name = 
REMARK  2 active torsions:
REMARK  status: ('A' for Active; 'I' for Inactive)
REMARK    1  A    between atoms: C_6  and  C_7
REMARK    2  A    between atoms: C_19  and  C_20
REMARK                            x       y       z     vdW  Elec       q    Type
REMARK                         _______ _______ _______ _____ _____    ______ ____
ROOT
ATOM      1  O   UNL     1       1.578  11.360  18.836  0.00  0.00    +0.000 OA
ATOM      2  N   UNL     1       1.659  10.088  18.761  0.00  0.00    +0.000 N 
ATOM      3  C   UNL     1       2.329   9.561  17.675  0.00  0.00    +0.000 A 
ATOM      4  C   UNL     1       2.693   8.229  17.627  0.00  0.00    +0.000 A 
ATOM      5  C   UNL     1       2.431   7.389  18.722  0.00  0.00    +0.000 A 
ATOM      6  C   UNL     1       3.052   6.106  18.914  0.00  0.00    +0.000 A 
ATOM      7  C   UNL     1       2.646   5.368  20.033  0.00  0.00    +0.000 A 
ATOM      8  C   UNL     1       1.593   5.813  20.794  0.00  0.00    +0.000 A 
ATOM      9  N   UNL     1       1.005   7.009  20.612  0.00  0.00    +0.000 NA
ATOM     10  C   UNL     1       1.494   7.853  19.686  0.00  0.00    +0.000 A 
ATOM     11  C   UNL     1       1.152   9.227  19.737  0.00  0.00    +0.000 A 
ENDROOT
BRANCH   6  12
ATOM     12  C   UNL     1       4.202   5.595  18.083  0.00  0.00    +0.000 A 
ATOM     13  C   UNL     1       5.458   6.253  18.132  0.00  0.00    +0.000 A 
ATOM     14  C   UNL     1       6.544   5.857  17.340  0.00  0.00    +0.000 A 
ATOM     15  C   UNL     1       6.432   4.731  16.545  0.00  0.00    +0.000 A 
ATOM     16  F   UNL     1       7.471   4.340  15.798  0.00  0.00    +0.000 F 
ATOM     17  C   UNL     1       5.252   4.008  16.514  0.00  0.00    +0.000 A 
ATOM     18  C   UNL     1       4.139   4.446  17.250  0.00  0.00    +0.000 A 
ATOM     19 CL   UNL     1       2.699   3.507  17.024  0.00  0.00    +0.000 Cl
ENDBRANCH   6  12
BRANCH  11  20
ATOM     20  C   UNL     1       0.346   9.841  20.845  0.00  0.00    +0.000 A 
ATOM     21  C   UNL     1      -0.844  10.575  20.608  0.00  0.00    +0.000 A 
ATOM     22 CL   UNL     1      -1.587  10.728  19.044  0.00  0.00    +0.000 Cl
ATOM     23  C   UNL     1      -1.572  11.169  21.654  0.00  0.00    +0.000 A 
ATOM     24  C   UNL     1      -1.221  10.938  22.976  0.00  0.00    +0.000 A 
ATOM     25  C   UNL     1      -0.092  10.182  23.252  0.00  0.00    +0.000 A 
ATOM     26  C   UNL     1       0.717   9.700  22.208  0.00  0.00    +0.000 A 
ATOM     27 CL   UNL     1       2.228   9.000  22.712  0.00  0.00    +0.000 Cl
ENDBRANCH  11  20
TORSDOF 2
ENDMDL
