MODEL 1
REMARK VINA RESULT:      -7.1      0.000      0.000
REMARK  Name = 
REMARK  8 active torsions:
REMARK  status: ('A' for Active; 'I' for Inactive)
REMARK    1  A    between atoms: C_1  and  C_2
REMARK    2  A    between atoms: C_2  and  N_3
REMARK    3  A    between atoms: C_7  and  C_8
REMARK    4  A    between atoms: C_8  and  N_9
REMARK    5  A    between atoms: C_10  and  C_12
REMARK    6  A    between atoms: C_17  and  O_18
REMARK    7  A    between atoms: C_19  and  O_20
REMARK    8  A    between atoms: O_20  and  C_21
REMARK                            x       y       z     vdW  Elec       q    Type
REMARK                         _______ _______ _______ _____ _____    ______ ____
ROOT
ATOM      1  N   UNL     1       4.559   2.717  18.228  0.00  0.00    +0.000 N 
ATOM      2  C   UNL     1       4.102   3.416  17.121  0.00  0.00    +0.000 C 
ATOM      3  O   UNL     1       2.914   3.523  16.848  0.00  0.00    +0.000 OA
ATOM      4  H   UNL     1       5.548   2.617  18.413  0.00  0.00    +0.000 HD
ENDROOT
BRANCH   2   5
ATOM      5  C   UNL     1       5.152   4.113  16.308  0.00  0.00    +0.000 A 
ATOM      6  C   UNL     1       5.420   3.615  15.024  0.00  0.00    +0.000 A 
ATOM      7  C   UNL     1       6.423   4.174  14.253  0.00  0.00    +0.000 A 
ATOM      8  F   UNL     1       6.665   3.683  13.030  0.00  0.00    +0.000 F 
ATOM      9  C   UNL     1       7.191   5.221  14.730  0.00  0.00    +0.000 A 
ATOM     10  C   UNL     1       6.942   5.725  16.010  0.00  0.00    +0.000 A 
ATOM     11  C   UNL     1       5.920   5.186  16.821  0.00  0.00    +0.000 A 
BRANCH  10  12
ATOM     12  O   UNL     1       7.729   6.763  16.434  0.00  0.00    +0.000 OA
ATOM     13  H   UNL     1       7.185   7.432  16.882  0.00  0.00    +0.000 HD
ENDBRANCH  10  12
BRANCH  11  14
ATOM     14  O   UNL     1       5.570   5.624  18.071  0.00  0.00    +0.000 OA
ATOM     15  C   UNL     1       6.444   5.398  19.167  0.00  0.00    +0.000 C 
ENDBRANCH  11  14
ENDBRANCH   2   5
BRANCH   1  16
ATOM     16  C   UNL     1       3.666   2.099  19.202  0.00  0.00    +0.000 C 
BRANCH  16  21
ATOM     17  N   UNL     1       2.077   3.957  19.861  0.00  0.00    +0.000 NA
ATOM     18  C   UNL     1       0.859   3.431  20.506  0.00  0.00    +0.000 C 
ATOM     19  C   UNL     1       1.308   2.911  21.855  0.00  0.00    +0.000 C 
ATOM     20  C   UNL     1       2.666   2.308  21.558  0.00  0.00    +0.000 C 
ATOM     21  C   UNL     1       3.182   3.062  20.322  0.00  0.00    +0.000 C 
BRANCH  17  23
ATOM     22  C   UNL     1       2.497   6.347  19.129  0.00  0.00    +0.000 C 
ATOM     23  C   UNL     1       2.253   5.367  20.268  0.00  0.00    +0.000 C 
ENDBRANCH  17  23
ENDBRANCH  16  21
ENDBRANCH   1  16
TORSDOF 6
ENDMDL
MODEL 2
REMARK VINA RESULT:      -6.8      1.470      2.344
REMARK  Name = 
REMARK  8 active torsions:
REMARK  status: ('A' for Active; 'I' for Inactive)
REMARK    1  A    between atoms: C_1  and  C_2
REMARK    2  A    between atoms: C_2  and  N_3
REMARK    3  A    between atoms: C_7  and  C_8
REMARK    4  A    between atoms: C_8  and  N_9
REMARK    5  A    between atoms: C_10  and  C_12
REMARK    6  A    between atoms: C_17  and  O_18
REMARK    7  A    between atoms: C_19  and  O_20
REMARK    8  A    between atoms: O_20  and  C_21
REMARK                            x       y       z     vdW  Elec       q    Type
REMARK                         _______ _______ _______ _____ _____    ______ ____
ROOT
ATOM      1  N   UNL     1       5.304   3.791  17.899  0.00  0.00    +0.000 N 
ATOM      2  C   UNL     1       4.914   4.795  17.025  0.00  0.00    +0.000 C 
ATOM      3  O   UNL     1       4.147   5.692  17.344  0.00  0.00    +0.000 OA
ATOM      4  H   UNL     1       5.913   3.042  17.599  0.00  0.00    +0.000 HD
ENDROOT
BRANCH   2   5
ATOM      5  C   UNL     1       5.558   4.768  15.669  0.00  0.00    +0.000 A 
ATOM      6  C   UNL     1       4.873   4.111  14.636  0.00  0.00    +0.000 A 
ATOM      7  C   UNL     1       5.445   3.995  13.382  0.00  0.00    +0.000 A 
ATOM      8  F   UNL     1       4.776   3.362  12.409  0.00  0.00    +0.000 F 
ATOM      9  C   UNL     1       6.703   4.508  13.121  0.00  0.00    +0.000 A 
ATOM     10  C   UNL     1       7.403   5.158  14.141  0.00  0.00    +0.000 A 
ATOM     11  C   UNL     1       6.846   5.305  15.430  0.00  0.00    +0.000 A 
BRANCH  10  12
ATOM     12  O   UNL     1       8.643   5.649  13.831  0.00  0.00    +0.000 OA
ATOM     13  H   UNL     1       8.644   6.004  12.926  0.00  0.00    +0.000 HD
ENDBRANCH  10  12
BRANCH  11  14
ATOM     14  O   UNL     1       7.426   5.951  16.489  0.00  0.00    +0.000 OA
ATOM     15  C   UNL     1       7.104   7.310  16.747  0.00  0.00    +0.000 C 
ENDBRANCH  11  14
ENDBRANCH   2   5
BRANCH   1  16
ATOM     16  C   UNL     1       4.884   3.747  19.295  0.00  0.00    +0.000 C 
BRANCH  16  21
ATOM     17  N   UNL     1       2.367   3.819  19.555  0.00  0.00    +0.000 NA
ATOM     18  C   UNL     1       1.677   3.546  18.279  0.00  0.00    +0.000 C 
ATOM     19  C   UNL     1       1.920   2.080  17.995  0.00  0.00    +0.000 C 
ATOM     20  C   UNL     1       3.343   1.867  18.469  0.00  0.00    +0.000 C 
ATOM     21  C   UNL     1       3.577   2.943  19.541  0.00  0.00    +0.000 C 
BRANCH  17  23
ATOM     22  C   UNL     1       2.019   2.681  21.794  0.00  0.00    +0.000 C 
ATOM     23  C   UNL     1       1.436   3.521  20.665  0.00  0.00    +0.000 C 
ENDBRANCH  17  23
ENDBRANCH  16  21
ENDBRANCH   1  16
TORSDOF 6
ENDMDL
MODEL 3
REMARK VINA RESULT:      -6.4      1.507      2.383
REMARK  Name = 
REMARK  8 active torsions:
REMARK  status: ('A' for Active; 'I' for Inactive)
REMARK    1  A    between atoms: C_1  and  C_2
REMARK    2  A    between atoms: C_2  and  N_3
REMARK    3  A    between atoms: C_7  and  C_8
REMARK    4  A    between atoms: C_8  and  N_9
REMARK    5  A    between atoms: C_10  and  C_12
REMARK    6  A    between atoms: C_17  and  O_18
REMARK    7  A    between atoms: C_19  and  O_20
REMARK    8  A    between atoms: O_20  and  C_21
REMARK                            x       y       z     vdW  Elec       q    Type
REMARK                         _______ _______ _______ _____ _____    ______ ____
ROOT
ATOM      1  N   UNL     1       4.319   5.410  18.168  0.00  0.00    +0.000 N 
ATOM      2  C   UNL     1       5.438   4.672  17.812  0.00  0.00    +0.000 C 
ATOM      3  O   UNL     1       6.030   3.945  18.598  0.00  0.00    +0.000 OA
ATOM      4  H   UNL     1       3.869   6.029  17.507  0.00  0.00    +0.000 HD
ENDROOT
BRANCH   2   5
ATOM      5  C   UNL     1       5.842   4.750  16.369  0.00  0.00    +0.000 A 
ATOM      6  C   UNL     1       4.997   4.152  15.423  0.00  0.00    +0.000 A 
ATOM      7  C   UNL     1       5.349   4.133  14.085  0.00  0.00    +0.000 A 
ATOM      8  F   UNL     1       4.531   3.555  13.196  0.00  0.00    +0.000 F 
ATOM      9  C   UNL     1       6.542   4.686  13.653  0.00  0.00    +0.000 A 
ATOM     10  C   UNL     1       7.399   5.279  14.584  0.00  0.00    +0.000 A 
ATOM     11  C   UNL     1       7.067   5.326  15.956  0.00  0.00    +0.000 A 
BRANCH  10  12
ATOM     12  O   UNL     1       8.566   5.813  14.105  0.00  0.00    +0.000 OA
ATOM     13  H   UNL     1       8.383   6.371  13.330  0.00  0.00    +0.000 HD
ENDBRANCH  10  12
BRANCH  11  14
ATOM     14  O   UNL     1       7.814   5.910  16.944  0.00  0.00    +0.000 OA
ATOM     15  C   UNL     1       7.455   7.194  17.434  0.00  0.00    +0.000 C 
ENDBRANCH  11  14
ENDBRANCH   2   5
BRANCH   1  16
ATOM     16  C   UNL     1       3.709   5.341  19.491  0.00  0.00    +0.000 C 
BRANCH  16  21
ATOM     17  N   UNL     1       3.136   2.924  19.980  0.00  0.00    +0.000 NA
ATOM     18  C   UNL     1       2.771   2.724  21.396  0.00  0.00    +0.000 C 
ATOM     19  C   UNL     1       1.429   3.404  21.566  0.00  0.00    +0.000 C 
ATOM     20  C   UNL     1       1.552   4.635  20.691  0.00  0.00    +0.000 C 
ATOM     21  C   UNL     1       2.592   4.268  19.621  0.00  0.00    +0.000 C 
BRANCH  17  23
ATOM     22  C   UNL     1       2.087   2.204  17.787  0.00  0.00    +0.000 C 
ATOM     23  C   UNL     1       2.555   1.821  19.185  0.00  0.00    +0.000 C 
ENDBRANCH  17  23
ENDBRANCH  16  21
ENDBRANCH   1  16
TORSDOF 6
ENDMDL
MODEL 4
REMARK VINA RESULT:      -6.4      4.054      5.987
REMARK  Name = 
REMARK  8 active torsions:
REMARK  status: ('A' for Active; 'I' for Inactive)
REMARK    1  A    between atoms: C_1  and  C_2
REMARK    2  A    between atoms: C_2  and  N_3
REMARK    3  A    between atoms: C_7  and  C_8
REMARK    4  A    between atoms: C_8  and  N_9
REMARK    5  A    between atoms: C_10  and  C_12
REMARK    6  A    between atoms: C_17  and  O_18
REMARK    7  A    between atoms: C_19  and  O_20
REMARK    8  A    between atoms: O_20  and  C_21
REMARK                            x       y       z     vdW  Elec       q    Type
REMARK                         _______ _______ _______ _____ _____    ______ ____
ROOT
ATOM      1  N   UNL     1       2.254   8.028  17.760  0.00  0.00    +0.000 N 
ATOM      2  C   UNL     1       2.493   7.076  18.740  0.00  0.00    +0.000 C 
ATOM      3  O   UNL     1       2.509   7.342  19.934  0.00  0.00    +0.000 OA
ATOM      4  H   UNL     1       2.279   7.787  16.779  0.00  0.00    +0.000 HD
ENDROOT
BRANCH   2   5
ATOM      5  C   UNL     1       2.652   5.664  18.256  0.00  0.00    +0.000 A 
ATOM      6  C   UNL     1       1.590   4.775  18.478  0.00  0.00    +0.000 A 
ATOM      7  C   UNL     1       1.704   3.446  18.115  0.00  0.00    +0.000 A 
ATOM      8  F   UNL     1       0.680   2.611  18.337  0.00  0.00    +0.000 F 
ATOM      9  C   UNL     1       2.866   2.960  17.540  0.00  0.00    +0.000 A 
ATOM     10  C   UNL     1       3.936   3.830  17.319  0.00  0.00    +0.000 A 
ATOM     11  C   UNL     1       3.851   5.196  17.667  0.00  0.00    +0.000 A 
BRANCH  10  12
ATOM     12  O   UNL     1       5.062   3.300  16.746  0.00  0.00    +0.000 OA
ATOM     13  H   UNL     1       5.247   3.745  15.902  0.00  0.00    +0.000 HD
ENDBRANCH  10  12
BRANCH  11  14
ATOM     14  O   UNL     1       4.823   6.140  17.464  0.00  0.00    +0.000 OA
ATOM     15  C   UNL     1       5.132   6.560  16.143  0.00  0.00    +0.000 C 
ENDBRANCH  11  14
ENDBRANCH   2   5
BRANCH   1  16
ATOM     16  C   UNL     1       1.939   9.419  18.065  0.00  0.00    +0.000 C 
BRANCH  16  21
ATOM     17  N   UNL     1       0.648  10.734  19.802  0.00  0.00    +0.000 NA
ATOM     18  C   UNL     1      -0.124  11.834  19.193  0.00  0.00    +0.000 C 
ATOM     19  C   UNL     1      -1.238  11.163  18.417  0.00  0.00    +0.000 C 
ATOM     20  C   UNL     1      -0.568   9.929  17.848  0.00  0.00    +0.000 C 
ATOM     21  C   UNL     1       0.590   9.618  18.810  0.00  0.00    +0.000 C 
BRANCH  17  23
ATOM     22  C   UNL     1      -0.118   8.907  21.384  0.00  0.00    +0.000 C 
ATOM     23  C   UNL     1       0.037  10.396  21.105  0.00  0.00    +0.000 C 
ENDBRANCH  17  23
ENDBRANCH  16  21
ENDBRANCH   1  16
TORSDOF 6
ENDMDL
MODEL 5
REMARK VINA RESULT:      -6.4      2.943      6.335
REMARK  Name = 
REMARK  8 active torsions:
REMARK  status: ('A' for Active; 'I' for Inactive)
REMARK    1  A    between atoms: C_1  and  C_2
REMARK    2  A    between atoms: C_2  and  N_3
REMARK    3  A    between atoms: C_7  and  C_8
REMARK    4  A    between atoms: C_8  and  N_9
REMARK    5  A    between atoms: C_10  and  C_12
REMARK    6  A    between atoms: C_17  and  O_18
REMARK    7  A    between atoms: C_19  and  O_20
REMARK    8  A    between atoms: O_20  and  C_21
REMARK                            x       y       z     vdW  Elec       q    Type
REMARK                         _______ _______ _______ _____ _____    ______ ____
ROOT
ATOM      1  N   UNL     1       5.959   4.388  18.497  0.00  0.00    +0.000 N 
ATOM      2  C   UNL     1       4.774   3.674  18.395  0.00  0.00    +0.000 C 
ATOM      3  O   UNL     1       4.558   2.872  17.498  0.00  0.00    +0.000 OA
ATOM      4  H   UNL     1       6.099   5.069  19.230  0.00  0.00    +0.000 HD
ENDROOT
BRANCH   2   5
ATOM      5  C   UNL     1       3.789   3.880  19.508  0.00  0.00    +0.000 A 
ATOM      6  C   UNL     1       3.397   2.755  20.248  0.00  0.00    +0.000 A 
ATOM      7  C   UNL     1       2.442   2.870  21.242  0.00  0.00    +0.000 A 
ATOM      8  F   UNL     1       2.078   1.784  21.937  0.00  0.00    +0.000 F 
ATOM      9  C   UNL     1       1.844   4.087  21.520  0.00  0.00    +0.000 A 
ATOM     10  C   UNL     1       2.217   5.217  20.787  0.00  0.00    +0.000 A 
ATOM     11  C   UNL     1       3.196   5.138  19.772  0.00  0.00    +0.000 A 
BRANCH  10  12
ATOM     12  O   UNL     1       1.596   6.397  21.101  0.00  0.00    +0.000 OA
ATOM     13  H   UNL     1       1.775   6.630  22.027  0.00  0.00    +0.000 HD
ENDBRANCH  10  12
BRANCH  11  14
ATOM     14  O   UNL     1       3.660   6.184  19.019  0.00  0.00    +0.000 OA
ATOM     15  C   UNL     1       2.789   6.837  18.107  0.00  0.00    +0.000 C 
ENDBRANCH  11  14
ENDBRANCH   2   5
BRANCH   1  16
ATOM     16  C   UNL     1       7.078   4.203  17.580  0.00  0.00    +0.000 C 
BRANCH  16  21
ATOM     17  N   UNL     1       6.384   4.486  15.161  0.00  0.00    +0.000 NA
ATOM     18  C   UNL     1       5.068   5.142  15.043  0.00  0.00    +0.000 C 
ATOM     19  C   UNL     1       5.291   6.576  15.473  0.00  0.00    +0.000 C 
ATOM     20  C   UNL     1       6.285   6.444  16.610  0.00  0.00    +0.000 C 
ATOM     21  C   UNL     1       7.041   5.135  16.336  0.00  0.00    +0.000 C 
BRANCH  17  23
ATOM     22  C   UNL     1       6.622   3.848  12.719  0.00  0.00    +0.000 C 
ATOM     23  C   UNL     1       7.121   4.679  13.893  0.00  0.00    +0.000 C 
ENDBRANCH  17  23
ENDBRANCH  16  21
ENDBRANCH   1  16
TORSDOF 6
ENDMDL
MODEL 6
REMARK VINA RESULT:      -6.3      3.300      6.611
REMARK  Name = 
REMARK  8 active torsions:
REMARK  status: ('A' for Active; 'I' for Inactive)
REMARK    1  A    between atoms: C_1  and  C_2
REMARK    2  A    between atoms: C_2  and  N_3
REMARK    3  A    between atoms: C_7  and  C_8
REMARK    4  A    between atoms: C_8  and  N_9
REMARK    5  A    between atoms: C_10  and  C_12
REMARK    6  A    between atoms: C_17  and  O_18
REMARK    7  A    between atoms: C_19  and  O_20
REMARK    8  A    between atoms: O_20  and  C_21
REMARK                            x       y       z     vdW  Elec       q    Type
REMARK                         _______ _______ _______ _____ _____    ______ ____
ROOT
ATOM      1  N   UNL     1       3.929   5.886  18.060  0.00  0.00    +0.000 N 
ATOM      2  C   UNL     1       2.804   6.046  18.854  0.00  0.00    +0.000 C 
ATOM      3  O   UNL     1       2.240   7.122  18.996  0.00  0.00    +0.000 OA
ATOM      4  H   UNL     1       4.395   4.992  17.985  0.00  0.00    +0.000 HD
ENDROOT
BRANCH   2   5
ATOM      5  C   UNL     1       2.257   4.794  19.475  0.00  0.00    +0.000 A 
ATOM      6  C   UNL     1       2.359   4.659  20.867  0.00  0.00    +0.000 A 
ATOM      7  C   UNL     1       1.934   3.499  21.490  0.00  0.00    +0.000 A 
ATOM      8  F   UNL     1       2.041   3.388  22.821  0.00  0.00    +0.000 F 
ATOM      9  C   UNL     1       1.415   2.445  20.759  0.00  0.00    +0.000 A 
ATOM     10  C   UNL     1       1.314   2.560  19.369  0.00  0.00    +0.000 A 
ATOM     11  C   UNL     1       1.728   3.733  18.701  0.00  0.00    +0.000 A 
BRANCH  10  12
ATOM     12  O   UNL     1       0.792   1.490  18.693  0.00  0.00    +0.000 OA
ATOM     13  H   UNL     1       1.220   0.669  18.987  0.00  0.00    +0.000 HD
ENDBRANCH  10  12
BRANCH  11  14
ATOM     14  O   UNL     1       1.642   3.964  17.354  0.00  0.00    +0.000 OA
ATOM     15  C   UNL     1       2.584   3.367  16.475  0.00  0.00    +0.000 C 
ENDBRANCH  11  14
ENDBRANCH   2   5
BRANCH   1  16
ATOM     16  C   UNL     1       4.507   6.970  17.273  0.00  0.00    +0.000 C 
BRANCH  16  21
ATOM     17  N   UNL     1       6.827   6.432  18.132  0.00  0.00    +0.000 NA
ATOM     18  C   UNL     1       7.144   4.998  17.988  0.00  0.00    +0.000 C 
ATOM     19  C   UNL     1       7.300   4.766  16.500  0.00  0.00    +0.000 C 
ATOM     20  C   UNL     1       6.232   5.656  15.898  0.00  0.00    +0.000 C 
ATOM     21  C   UNL     1       6.010   6.775  16.929  0.00  0.00    +0.000 C 
BRANCH  17  23
ATOM     22  C   UNL     1       8.005   8.655  17.821  0.00  0.00    +0.000 C 
ATOM     23  C   UNL     1       8.095   7.187  18.217  0.00  0.00    +0.000 C 
ENDBRANCH  17  23
ENDBRANCH  16  21
ENDBRANCH   1  16
TORSDOF 6
ENDMDL
MODEL 7
REMARK VINA RESULT:      -6.3      1.473      2.475
REMARK  Name = 
REMARK  8 active torsions:
REMARK  status: ('A' for Active; 'I' for Inactive)
REMARK    1  A    between atoms: C_1  and  C_2
REMARK    2  A    between atoms: C_2  and  N_3
REMARK    3  A    between atoms: C_7  and  C_8
REMARK    4  A    between atoms: C_8  and  N_9
REMARK    5  A    between atoms: C_10  and  C_12
REMARK    6  A    between atoms: C_17  and  O_18
REMARK    7  A    between atoms: C_19  and  O_20
REMARK    8  A    between atoms: O_20  and  C_21
REMARK                            x       y       z     vdW  Elec       q    Type
REMARK                         _______ _______ _______ _____ _____    ______ ____
ROOT
ATOM      1  N   UNL     1       4.381   2.990  17.124  0.00  0.00    +0.000 N 
ATOM      2  C   UNL     1       5.448   3.871  17.030  0.00  0.00    +0.000 C 
ATOM      3  O   UNL     1       6.005   4.346  18.010  0.00  0.00    +0.000 OA
ATOM      4  H   UNL     1       3.917   2.637  16.298  0.00  0.00    +0.000 HD
ENDROOT
BRANCH   2   5
ATOM      5  C   UNL     1       5.943   4.152  15.641  0.00  0.00    +0.000 A 
ATOM      6  C   UNL     1       5.294   3.511  14.576  0.00  0.00    +0.000 A 
ATOM      7  C   UNL     1       5.747   3.678  13.280  0.00  0.00    +0.000 A 
ATOM      8  F   UNL     1       5.116   3.055  12.276  0.00  0.00    +0.000 F 
ATOM      9  C   UNL     1       6.852   4.466  13.006  0.00  0.00    +0.000 A 
ATOM     10  C   UNL     1       7.514   5.106  14.056  0.00  0.00    +0.000 A 
ATOM     11  C   UNL     1       7.074   4.966  15.390  0.00  0.00    +0.000 A 
BRANCH  10  12
ATOM     12  O   UNL     1       8.601   5.874  13.732  0.00  0.00    +0.000 OA
ATOM     13  H   UNL     1       8.524   6.188  12.815  0.00  0.00    +0.000 HD
ENDBRANCH  10  12
BRANCH  11  14
ATOM     14  O   UNL     1       7.625   5.573  16.488  0.00  0.00    +0.000 OA
ATOM     15  C   UNL     1       7.277   6.914  16.800  0.00  0.00    +0.000 C 
ENDBRANCH  11  14
ENDBRANCH   2   5
BRANCH   1  16
ATOM     16  C   UNL     1       3.866   2.501  18.398  0.00  0.00    +0.000 C 
BRANCH  16  21
ATOM     17  N   UNL     1       3.095   4.266  20.041  0.00  0.00    +0.000 NA
ATOM     18  C   UNL     1       3.054   5.606  19.425  0.00  0.00    +0.000 C 
ATOM     19  C   UNL     1       1.900   5.565  18.447  0.00  0.00    +0.000 C 
ATOM     20  C   UNL     1       1.981   4.164  17.875  0.00  0.00    +0.000 C 
ATOM     21  C   UNL     1       2.674   3.324  18.961  0.00  0.00    +0.000 C 
BRANCH  17  23
ATOM     22  C   UNL     1       1.461   2.948  21.463  0.00  0.00    +0.000 C 
ATOM     23  C   UNL     1       2.193   4.260  21.213  0.00  0.00    +0.000 C 
ENDBRANCH  17  23
ENDBRANCH  16  21
ENDBRANCH   1  16
TORSDOF 6
ENDMDL
MODEL 8
REMARK VINA RESULT:      -6.3      4.300      6.570
REMARK  Name = 
REMARK  8 active torsions:
REMARK  status: ('A' for Active; 'I' for Inactive)
REMARK    1  A    between atoms: C_1  and  C_2
REMARK    2  A    between atoms: C_2  and  N_3
REMARK    3  A    between atoms: C_7  and  C_8
REMARK    4  A    between atoms: C_8  and  N_9
REMARK    5  A    between atoms: C_10  and  C_12
REMARK    6  A    between atoms: C_17  and  O_18
REMARK    7  A    between atoms: C_19  and  O_20
REMARK    8  A    between atoms: O_20  and  C_21
REMARK                            x       y       z     vdW  Elec       q    Type
REMARK                         _______ _______ _______ _____ _____    ______ ____
ROOT
ATOM      1  N   UNL     1       2.032   7.346  20.239  0.00  0.00    +0.000 N 
ATOM      2  C   UNL     1       2.281   6.368  19.288  0.00  0.00    +0.000 C 
ATOM      3  O   UNL     1       2.365   6.610  18.092  0.00  0.00    +0.000 OA
ATOM      4  H   UNL     1       1.934   7.113  21.218  0.00  0.00    +0.000 HD
ENDROOT
BRANCH   2   5
ATOM      5  C   UNL     1       2.525   4.985  19.820  0.00  0.00    +0.000 A 
ATOM      6  C   UNL     1       1.575   4.450  20.703  0.00  0.00    +0.000 A 
ATOM      7  C   UNL     1       1.778   3.208  21.278  0.00  0.00    +0.000 A 
ATOM      8  F   UNL     1       0.861   2.715  22.120  0.00  0.00    +0.000 F 
ATOM      9  C   UNL     1       2.920   2.475  21.009  0.00  0.00    +0.000 A 
ATOM     10  C   UNL     1       3.880   2.997  20.138  0.00  0.00    +0.000 A 
ATOM     11  C   UNL     1       3.702   4.257  19.525  0.00  0.00    +0.000 A 
BRANCH  10  12
ATOM     12  O   UNL     1       4.992   2.232  19.904  0.00  0.00    +0.000 OA
ATOM     13  H   UNL     1       5.488   2.105  20.730  0.00  0.00    +0.000 HD
ENDBRANCH  10  12
BRANCH  11  14
ATOM     14  O   UNL     1       4.558   4.845  18.632  0.00  0.00    +0.000 OA
ATOM     15  C   UNL     1       5.801   5.361  19.084  0.00  0.00    +0.000 C 
ENDBRANCH  11  14
ENDBRANCH   2   5
BRANCH   1  16
ATOM     16  C   UNL     1       1.911   8.762  19.909  0.00  0.00    +0.000 C 
BRANCH  16  21
ATOM     17  N   UNL     1       0.667  10.553  21.195  0.00  0.00    +0.000 NA
ATOM     18  C   UNL     1       0.396  11.738  20.359  0.00  0.00    +0.000 C 
ATOM     19  C   UNL     1      -0.647  11.293  19.356  0.00  0.00    +0.000 C 
ATOM     20  C   UNL     1      -0.232   9.871  19.034  0.00  0.00    +0.000 C 
ATOM     21  C   UNL     1       0.534   9.384  20.274  0.00  0.00    +0.000 C 
BRANCH  17  23
ATOM     22  C   UNL     1      -0.076   9.442  23.350  0.00  0.00    +0.000 C 
ATOM     23  C   UNL     1      -0.301  10.534  22.313  0.00  0.00    +0.000 C 
ENDBRANCH  17  23
ENDBRANCH  16  21
ENDBRANCH   1  16
TORSDOF 6
ENDMDL
MODEL 9
REMARK VINA RESULT:      -6.3      4.712      6.817
REMARK  Name = 
REMARK  8 active torsions:
REMARK  status: ('A' for Active; 'I' for Inactive)
REMARK    1  A    between atoms: C_1  and  C_2
REMARK    2  A    between atoms: C_2  and  N_3
REMARK    3  A    between atoms: C_7  and  C_8
REMARK    4  A    between atoms: C_8  and  N_9
REMARK    5  A    between atoms: C_10  and  C_12
REMARK    6  A    between atoms: C_17  and  O_18
REMARK    7  A    between atoms: C_19  and  O_20
REMARK    8  A    between atoms: O_20  and  C_21
REMARK                            x       y       z     vdW  Elec       q    Type
REMARK                         _______ _______ _______ _____ _____    ______ ____
ROOT
ATOM      1  N   UNL     1       1.848   7.652  21.173  0.00  0.00    +0.000 N 
ATOM      2  C   UNL     1       2.156   7.007  19.985  0.00  0.00    +0.000 C 
ATOM      3  O   UNL     1       2.259   7.596  18.918  0.00  0.00    +0.000 OA
ATOM      4  H   UNL     1       1.737   7.136  22.036  0.00  0.00    +0.000 HD
ENDROOT
BRANCH   2   5
ATOM      5  C   UNL     1       2.442   5.538  20.093  0.00  0.00    +0.000 A 
ATOM      6  C   UNL     1       1.502   4.738  20.760  0.00  0.00    +0.000 A 
ATOM      7  C   UNL     1       1.741   3.389  20.950  0.00  0.00    +0.000 A 
ATOM      8  F   UNL     1       0.832   2.643  21.591  0.00  0.00    +0.000 F 
ATOM      9  C   UNL     1       2.911   2.802  20.501  0.00  0.00    +0.000 A 
ATOM     10  C   UNL     1       3.861   3.585  19.841  0.00  0.00    +0.000 A 
ATOM     11  C   UNL     1       3.646   4.963  19.621  0.00  0.00    +0.000 A 
BRANCH  10  12
ATOM     12  O   UNL     1       5.001   2.955  19.416  0.00  0.00    +0.000 OA
ATOM     13  H   UNL     1       5.502   3.539  18.823  0.00  0.00    +0.000 HD
ENDBRANCH  10  12
BRANCH  11  14
ATOM     14  O   UNL     1       4.491   5.813  18.958  0.00  0.00    +0.000 OA
ATOM     15  C   UNL     1       4.667   5.681  17.555  0.00  0.00    +0.000 C 
ENDBRANCH  11  14
ENDBRANCH   2   5
BRANCH   1  16
ATOM     16  C   UNL     1       1.679   9.097  21.272  0.00  0.00    +0.000 C 
BRANCH  16  21
ATOM     17  N   UNL     1       0.008  10.801  22.117  0.00  0.00    +0.000 NA
ATOM     18  C   UNL     1      -0.216  11.881  21.137  0.00  0.00    +0.000 C 
ATOM     19  C   UNL     1      -0.975  11.238  19.996  0.00  0.00    +0.000 C 
ATOM     20  C   UNL     1      -0.350   9.861  19.896  0.00  0.00    +0.000 C 
ATOM     21  C   UNL     1       0.197   9.564  21.302  0.00  0.00    +0.000 C 
BRANCH  17  23
ATOM     22  C   UNL     1      -1.839  12.072  23.300  0.00  0.00    +0.000 C 
ATOM     23  C   UNL     1      -1.160  10.738  23.022  0.00  0.00    +0.000 C 
ENDBRANCH  17  23
ENDBRANCH  16  21
ENDBRANCH   1  16
TORSDOF 6
ENDMDL
