MODEL 1
REMARK VINA RESULT:      -7.7      0.000      0.000
REMARK  Name = 
REMARK  3 active torsions:
REMARK  status: ('A' for Active; 'I' for Inactive)
REMARK    1  A    between atoms: C_8  and  C_9
REMARK    2  A    between atoms: C_13  and  N_14
REMARK    3  A    between atoms: N_14  and  C_15
REMARK                            x       y       z     vdW  Elec       q    Type
REMARK                         _______ _______ _______ _____ _____    ______ ____
ROOT
ATOM      1  C   UNL     1       2.661   6.136  19.479  0.00  0.00    +0.000 A 
ATOM      2  C   UNL     1       1.855   5.284  20.224  0.00  0.00    +0.000 A 
ATOM      3  C   UNL     1       2.332   4.014  20.524  0.00  0.00    +0.000 A 
ATOM      4  C   UNL     1       3.596   3.645  20.081  0.00  0.00    +0.000 A 
ATOM      5  C   UNL     1       4.341   4.547  19.331  0.00  0.00    +0.000 A 
ATOM      6  N   UNL     1       3.880   5.776  19.025  0.00  0.00    +0.000 NA
ENDROOT
BRANCH   1  14
ATOM      7 CL   UNL     1       0.110   9.405  23.444  0.00  0.00    +0.000 Cl
ATOM      8  C   UNL     1       0.605   9.414  21.799  0.00  0.00    +0.000 A 
ATOM      9  C   UNL     1       0.370  10.603  21.001  0.00  0.00    +0.000 A 
ATOM     10  C   UNL     1       0.737  10.657  19.707  0.00  0.00    +0.000 A 
ATOM     11  C   UNL     1       1.371   9.533  19.102  0.00  0.00    +0.000 A 
ATOM     12  N   UNL     1       1.797   9.359  17.872  0.00  0.00    +0.000 NA
ATOM     13  C   UNL     1       2.324   8.098  17.857  0.00  0.00    +0.000 A 
ATOM     14  C   UNL     1       2.220   7.467  19.084  0.00  0.00    +0.000 A 
ATOM     15  N   UNL     1       1.596   8.406  19.898  0.00  0.00    +0.000 N 
ATOM     16  C   UNL     1       1.200   8.349  21.238  0.00  0.00    +0.000 A 
ENDBRANCH   1  14
BRANCH   5  17
ATOM     17  N   UNL     1       5.589   4.130  18.832  0.00  0.00    +0.000 N 
ATOM     18  H   UNL     1       6.162   3.804  19.605  0.00  0.00    +0.000 HD
BRANCH  17  19
ATOM     19  C   UNL     1       6.338   4.917  17.885  0.00  0.00    +0.000 C 
ATOM     20  C   UNL     1       7.829   4.512  17.848  0.00  0.00    +0.000 C 
ATOM     21  N   UNL     1       7.770   4.518  16.373  0.00  0.00    +0.000 NA
ATOM     22  C   UNL     1       6.301   4.359  16.443  0.00  0.00    +0.000 C 
ATOM     23  H   UNL     1       8.245   3.733  15.930  0.00  0.00    +0.000 HD
ENDBRANCH  17  19
ENDBRANCH   5  17
TORSDOF 3
ENDMDL
MODEL 2
REMARK VINA RESULT:      -7.6      3.186      5.083
REMARK  Name = 
REMARK  3 active torsions:
REMARK  status: ('A' for Active; 'I' for Inactive)
REMARK    1  A    between atoms: C_8  and  C_9
REMARK    2  A    between atoms: C_13  and  N_14
REMARK    3  A    between atoms: N_14  and  C_15
REMARK                            x       y       z     vdW  Elec       q    Type
REMARK                         _______ _______ _______ _____ _____    ______ ____
ROOT
ATOM      1  C   UNL     1       5.410   4.638  18.007  0.00  0.00    +0.000 A 
ATOM      2  C   UNL     1       6.250   5.266  18.918  0.00  0.00    +0.000 A 
ATOM      3  C   UNL     1       7.278   6.064  18.431  0.00  0.00    +0.000 A 
ATOM      4  C   UNL     1       7.423   6.215  17.057  0.00  0.00    +0.000 A 
ATOM      5  C   UNL     1       6.550   5.546  16.206  0.00  0.00    +0.000 A 
ATOM      6  N   UNL     1       5.559   4.760  16.672  0.00  0.00    +0.000 NA
ENDROOT
BRANCH   1  14
ATOM      7 CL   UNL     1       1.120   6.894  21.075  0.00  0.00    +0.000 Cl
ATOM      8  C   UNL     1       1.662   5.412  20.396  0.00  0.00    +0.000 A 
ATOM      9  C   UNL     1       0.850   4.222  20.568  0.00  0.00    +0.000 A 
ATOM     10  C   UNL     1       1.235   3.038  20.056  0.00  0.00    +0.000 A 
ATOM     11  C   UNL     1       2.457   2.942  19.330  0.00  0.00    +0.000 A 
ATOM     12  N   UNL     1       3.028   1.904  18.762  0.00  0.00    +0.000 NA
ATOM     13  C   UNL     1       4.175   2.394  18.205  0.00  0.00    +0.000 A 
ATOM     14  C   UNL     1       4.336   3.750  18.433  0.00  0.00    +0.000 A 
ATOM     15  N   UNL     1       3.212   4.107  19.169  0.00  0.00    +0.000 N 
ATOM     16  C   UNL     1       2.816   5.333  19.715  0.00  0.00    +0.000 A 
ENDBRANCH   1  14
BRANCH   5  17
ATOM     17  N   UNL     1       6.756   5.654  14.818  0.00  0.00    +0.000 N 
ATOM     18  H   UNL     1       5.962   6.134  14.403  0.00  0.00    +0.000 HD
BRANCH  17  19
ATOM     19  C   UNL     1       7.205   4.541  14.021  0.00  0.00    +0.000 C 
ATOM     20  C   UNL     1       6.028   3.808  13.338  0.00  0.00    +0.000 C 
ATOM     21  N   UNL     1       6.796   3.802  12.076  0.00  0.00    +0.000 NA
ATOM     22  C   UNL     1       7.610   4.930  12.579  0.00  0.00    +0.000 C 
ATOM     23  H   UNL     1       6.246   4.031  11.250  0.00  0.00    +0.000 HD
ENDBRANCH  17  19
ENDBRANCH   5  17
TORSDOF 3
ENDMDL
MODEL 3
REMARK VINA RESULT:      -7.5      3.262      4.827
REMARK  Name = 
REMARK  3 active torsions:
REMARK  status: ('A' for Active; 'I' for Inactive)
REMARK    1  A    between atoms: C_8  and  C_9
REMARK    2  A    between atoms: C_13  and  N_14
REMARK    3  A    between atoms: N_14  and  C_15
REMARK                            x       y       z     vdW  Elec       q    Type
REMARK                         _______ _______ _______ _____ _____    ______ ____
ROOT
ATOM      1  C   UNL     1       1.530   8.806  19.087  0.00  0.00    +0.000 A 
ATOM      2  C   UNL     1       2.235   8.790  17.891  0.00  0.00    +0.000 A 
ATOM      3  C   UNL     1       3.069   7.710  17.628  0.00  0.00    +0.000 A 
ATOM      4  C   UNL     1       3.159   6.683  18.559  0.00  0.00    +0.000 A 
ATOM      5  C   UNL     1       2.431   6.774  19.740  0.00  0.00    +0.000 A 
ATOM      6  N   UNL     1       1.631   7.825  20.008  0.00  0.00    +0.000 NA
ENDROOT
BRANCH   1  14
ATOM      7 CL   UNL     1      -3.079   9.844  15.833  0.00  0.00    +0.000 Cl
ATOM      8  C   UNL     1      -2.255  10.411  17.230  0.00  0.00    +0.000 A 
ATOM      9  C   UNL     1      -2.802  11.541  17.959  0.00  0.00    +0.000 A 
ATOM     10  C   UNL     1      -2.192  12.022  19.057  0.00  0.00    +0.000 A 
ATOM     11  C   UNL     1      -0.989  11.417  19.523  0.00  0.00    +0.000 A 
ATOM     12  N   UNL     1      -0.227  11.721  20.548  0.00  0.00    +0.000 NA
ATOM     13  C   UNL     1       0.786  10.804  20.520  0.00  0.00    +0.000 A 
ATOM     14  C   UNL     1       0.669   9.921  19.461  0.00  0.00    +0.000 A 
ATOM     15  N   UNL     1      -0.492  10.322  18.809  0.00  0.00    +0.000 N 
ATOM     16  C   UNL     1      -1.122   9.834  17.659  0.00  0.00    +0.000 A 
ENDBRANCH   1  14
BRANCH   5  17
ATOM     17  N   UNL     1       2.590   5.760  20.702  0.00  0.00    +0.000 N 
ATOM     18  H   UNL     1       3.467   5.906  21.194  0.00  0.00    +0.000 HD
BRANCH  17  19
ATOM     19  C   UNL     1       2.354   4.371  20.398  0.00  0.00    +0.000 C 
ATOM     20  C   UNL     1       2.174   3.522  21.678  0.00  0.00    +0.000 C 
ATOM     21  N   UNL     1       0.997   2.881  21.058  0.00  0.00    +0.000 NA
ATOM     22  C   UNL     1       0.866   4.034  20.140  0.00  0.00    +0.000 C 
ATOM     23  H   UNL     1       0.202   2.766  21.686  0.00  0.00    +0.000 HD
ENDBRANCH  17  19
ENDBRANCH   5  17
TORSDOF 3
ENDMDL
MODEL 4
REMARK VINA RESULT:      -7.4      3.186      5.133
REMARK  Name = 
REMARK  3 active torsions:
REMARK  status: ('A' for Active; 'I' for Inactive)
REMARK    1  A    between atoms: C_8  and  C_9
REMARK    2  A    between atoms: C_13  and  N_14
REMARK    3  A    between atoms: N_14  and  C_15
REMARK                            x       y       z     vdW  Elec       q    Type
REMARK                         _______ _______ _______ _____ _____    ______ ____
ROOT
ATOM      1  C   UNL     1       4.772   3.967  16.874  0.00  0.00    +0.000 A 
ATOM      2  C   UNL     1       5.176   3.350  15.697  0.00  0.00    +0.000 A 
ATOM      3  C   UNL     1       6.055   4.028  14.861  0.00  0.00    +0.000 A 
ATOM      4  C   UNL     1       6.507   5.288  15.234  0.00  0.00    +0.000 A 
ATOM      5  C   UNL     1       6.050   5.846  16.423  0.00  0.00    +0.000 A 
ATOM      6  N   UNL     1       5.187   5.199  17.232  0.00  0.00    +0.000 NA
ENDROOT
BRANCH   1  14
ATOM      7 CL   UNL     1       1.859   7.376  20.451  0.00  0.00    +0.000 Cl
ATOM      8  C   UNL     1       2.040   5.728  20.003  0.00  0.00    +0.000 A 
ATOM      9  C   UNL     1       1.231   4.725  20.670  0.00  0.00    +0.000 A 
ATOM     10  C   UNL     1       1.340   3.421  20.354  0.00  0.00    +0.000 A 
ATOM     11  C   UNL     1       2.259   3.008  19.347  0.00  0.00    +0.000 A 
ATOM     12  N   UNL     1       2.538   1.808  18.891  0.00  0.00    +0.000 NA
ATOM     13  C   UNL     1       3.487   2.009  17.929  0.00  0.00    +0.000 A 
ATOM     14  C   UNL     1       3.820   3.344  17.784  0.00  0.00    +0.000 A 
ATOM     15  N   UNL     1       3.016   3.998  18.712  0.00  0.00    +0.000 N 
ATOM     16  C   UNL     1       2.911   5.350  19.053  0.00  0.00    +0.000 A 
ENDBRANCH   1  14
BRANCH   5  17
ATOM     17  N   UNL     1       6.463   7.151  16.750  0.00  0.00    +0.000 N 
ATOM     18  H   UNL     1       6.153   7.787  16.021  0.00  0.00    +0.000 HD
BRANCH  17  19
ATOM     19  C   UNL     1       7.800   7.441  17.202  0.00  0.00    +0.000 C 
ATOM     20  C   UNL     1       7.907   8.854  17.819  0.00  0.00    +0.000 C 
ATOM     21  N   UNL     1       8.665   8.278  18.948  0.00  0.00    +0.000 NA
ATOM     22  C   UNL     1       8.092   6.950  18.640  0.00  0.00    +0.000 C 
ATOM     23  H   UNL     1       8.395   8.638  19.862  0.00  0.00    +0.000 HD
ENDBRANCH  17  19
ENDBRANCH   5  17
TORSDOF 3
ENDMDL
MODEL 5
REMARK VINA RESULT:      -7.4      2.639      7.174
REMARK  Name = 
REMARK  3 active torsions:
REMARK  status: ('A' for Active; 'I' for Inactive)
REMARK    1  A    between atoms: C_8  and  C_9
REMARK    2  A    between atoms: C_13  and  N_14
REMARK    3  A    between atoms: N_14  and  C_15
REMARK                            x       y       z     vdW  Elec       q    Type
REMARK                         _______ _______ _______ _____ _____    ______ ____
ROOT
ATOM      1  C   UNL     1       3.023   6.995  18.932  0.00  0.00    +0.000 A 
ATOM      2  C   UNL     1       3.035   7.804  17.803  0.00  0.00    +0.000 A 
ATOM      3  C   UNL     1       2.204   8.917  17.777  0.00  0.00    +0.000 A 
ATOM      4  C   UNL     1       1.401   9.187  18.879  0.00  0.00    +0.000 A 
ATOM      5  C   UNL     1       1.435   8.325  19.969  0.00  0.00    +0.000 A 
ATOM      6  N   UNL     1       2.229   7.236  19.996  0.00  0.00    +0.000 NA
ENDROOT
BRANCH   1  14
ATOM      7 CL   UNL     1       0.325   1.938  18.668  0.00  0.00    +0.000 Cl
ATOM      8  C   UNL     1       1.890   2.629  18.823  0.00  0.00    +0.000 A 
ATOM      9  C   UNL     1       3.040   1.748  18.925  0.00  0.00    +0.000 A 
ATOM     10  C   UNL     1       4.285   2.242  19.051  0.00  0.00    +0.000 A 
ATOM     11  C   UNL     1       4.490   3.651  19.082  0.00  0.00    +0.000 A 
ATOM     12  N   UNL     1       5.598   4.346  19.208  0.00  0.00    +0.000 NA
ATOM     13  C   UNL     1       5.201   5.653  19.165  0.00  0.00    +0.000 A 
ATOM     14  C   UNL     1       3.831   5.785  19.023  0.00  0.00    +0.000 A 
ATOM     15  N   UNL     1       3.367   4.475  18.969  0.00  0.00    +0.000 N 
ATOM     16  C   UNL     1       2.072   3.959  18.853  0.00  0.00    +0.000 A 
ENDBRANCH   1  14
BRANCH   5  17
ATOM     17  N   UNL     1       0.564   8.575  21.046  0.00  0.00    +0.000 N 
ATOM     18  H   UNL     1      -0.394   8.526  20.713  0.00  0.00    +0.000 HD
BRANCH  17  19
ATOM     19  C   UNL     1       0.773   9.667  21.963  0.00  0.00    +0.000 C 
ATOM     20  C   UNL     1      -0.211  10.831  21.708  0.00  0.00    +0.000 C 
ATOM     21  N   UNL     1      -0.466  10.903  23.161  0.00  0.00    +0.000 NA
ATOM     22  C   UNL     1       0.013   9.510  23.301  0.00  0.00    +0.000 C 
ATOM     23  H   UNL     1      -1.446  11.025  23.409  0.00  0.00    +0.000 HD
ENDBRANCH  17  19
ENDBRANCH   5  17
TORSDOF 3
ENDMDL
MODEL 6
REMARK VINA RESULT:      -7.3      2.870      7.128
REMARK  Name = 
REMARK  3 active torsions:
REMARK  status: ('A' for Active; 'I' for Inactive)
REMARK    1  A    between atoms: C_8  and  C_9
REMARK    2  A    between atoms: C_13  and  N_14
REMARK    3  A    between atoms: N_14  and  C_15
REMARK                            x       y       z     vdW  Elec       q    Type
REMARK                         _______ _______ _______ _____ _____    ______ ____
ROOT
ATOM      1  C   UNL     1       2.219   7.671  19.135  0.00  0.00    +0.000 A 
ATOM      2  C   UNL     1       1.965   7.436  20.480  0.00  0.00    +0.000 A 
ATOM      3  C   UNL     1       1.208   8.365  21.184  0.00  0.00    +0.000 A 
ATOM      4  C   UNL     1       0.725   9.486  20.519  0.00  0.00    +0.000 A 
ATOM      5  C   UNL     1       1.030   9.659  19.174  0.00  0.00    +0.000 A 
ATOM      6  N   UNL     1       1.774   8.768  18.488  0.00  0.00    +0.000 NA
ENDROOT
BRANCH   1  14
ATOM      7 CL   UNL     1       0.630   2.168  18.812  0.00  0.00    +0.000 Cl
ATOM      8  C   UNL     1       1.831   3.263  18.255  0.00  0.00    +0.000 A 
ATOM      9  C   UNL     1       2.877   2.772  17.377  0.00  0.00    +0.000 A 
ATOM     10  C   UNL     1       3.841   3.591  16.917  0.00  0.00    +0.000 A 
ATOM     11  C   UNL     1       3.842   4.966  17.291  0.00  0.00    +0.000 A 
ATOM     12  N   UNL     1       4.676   5.931  16.978  0.00  0.00    +0.000 NA
ATOM     13  C   UNL     1       4.186   7.040  17.609  0.00  0.00    +0.000 A 
ATOM     14  C   UNL     1       3.040   6.770  18.336  0.00  0.00    +0.000 A 
ATOM     15  N   UNL     1       2.815   5.414  18.128  0.00  0.00    +0.000 N 
ATOM     16  C   UNL     1       1.823   4.556  18.615  0.00  0.00    +0.000 A 
ENDBRANCH   1  14
BRANCH   5  17
ATOM     17  N   UNL     1       0.592  10.834  18.536  0.00  0.00    +0.000 N 
ATOM     18  H   UNL     1       1.346  11.515  18.544  0.00  0.00    +0.000 HD
BRANCH  17  19
ATOM     19  C   UNL     1      -0.689  11.429  18.821  0.00  0.00    +0.000 C 
ATOM     20  C   UNL     1      -0.948  12.685  17.957  0.00  0.00    +0.000 C 
ATOM     21  N   UNL     1      -2.305  12.179  17.670  0.00  0.00    +0.000 NA
ATOM     22  C   UNL     1      -1.856  10.812  18.013  0.00  0.00    +0.000 C 
ATOM     23  H   UNL     1      -2.595  12.282  16.699  0.00  0.00    +0.000 HD
ENDBRANCH  17  19
ENDBRANCH   5  17
TORSDOF 3
ENDMDL
MODEL 7
REMARK VINA RESULT:      -7.3      2.643      7.071
REMARK  Name = 
REMARK  3 active torsions:
REMARK  status: ('A' for Active; 'I' for Inactive)
REMARK    1  A    between atoms: C_8  and  C_9
REMARK    2  A    between atoms: C_13  and  N_14
REMARK    3  A    between atoms: N_14  and  C_15
REMARK                            x       y       z     vdW  Elec       q    Type
REMARK                         _______ _______ _______ _____ _____    ______ ____
ROOT
ATOM      1  C   UNL     1       2.651   7.587  18.390  0.00  0.00    +0.000 A 
ATOM      2  C   UNL     1       2.313   8.597  17.499  0.00  0.00    +0.000 A 
ATOM      3  C   UNL     1       1.467   9.609  17.935  0.00  0.00    +0.000 A 
ATOM      4  C   UNL     1       0.999   9.583  19.243  0.00  0.00    +0.000 A 
ATOM      5  C   UNL     1       1.372   8.533  20.074  0.00  0.00    +0.000 A 
ATOM      6  N   UNL     1       2.182   7.541  19.654  0.00  0.00    +0.000 NA
ENDROOT
BRANCH   1  14
ATOM      7 CL   UNL     1       0.441   2.305  18.749  0.00  0.00    +0.000 Cl
ATOM      8  C   UNL     1       1.872   3.144  18.302  0.00  0.00    +0.000 A 
ATOM      9  C   UNL     1       3.008   2.385  17.814  0.00  0.00    +0.000 A 
ATOM     10  C   UNL     1       4.152   2.997  17.454  0.00  0.00    +0.000 A 
ATOM     11  C   UNL     1       4.257   4.415  17.547  0.00  0.00    +0.000 A 
ATOM     12  N   UNL     1       5.263   5.212  17.268  0.00  0.00    +0.000 NA
ATOM     13  C   UNL     1       4.801   6.470  17.537  0.00  0.00    +0.000 A 
ATOM     14  C   UNL     1       3.498   6.466  18.001  0.00  0.00    +0.000 A 
ATOM     15  N   UNL     1       3.142   5.121  18.008  0.00  0.00    +0.000 N 
ATOM     16  C   UNL     1       1.961   4.481  18.395  0.00  0.00    +0.000 A 
ENDBRANCH   1  14
BRANCH   5  17
ATOM     17  N   UNL     1       0.832   8.485  21.373  0.00  0.00    +0.000 N 
ATOM     18  H   UNL     1      -0.088   8.056  21.332  0.00  0.00    +0.000 HD
BRANCH  17  19
ATOM     19  C   UNL     1       0.873   9.618  22.262  0.00  0.00    +0.000 C 
ATOM     20  C   UNL     1      -0.142  10.709  21.854  0.00  0.00    +0.000 C 
ATOM     21  N   UNL     1      -0.561  10.814  23.266  0.00  0.00    +0.000 NA
ATOM     22  C   UNL     1      -0.021   9.460  23.515  0.00  0.00    +0.000 C 
ATOM     23  H   UNL     1      -1.569  10.883  23.401  0.00  0.00    +0.000 HD
ENDBRANCH  17  19
ENDBRANCH   5  17
TORSDOF 3
ENDMDL
MODEL 8
REMARK VINA RESULT:      -7.2      3.380      5.535
REMARK  Name = 
REMARK  3 active torsions:
REMARK  status: ('A' for Active; 'I' for Inactive)
REMARK    1  A    between atoms: C_8  and  C_9
REMARK    2  A    between atoms: C_13  and  N_14
REMARK    3  A    between atoms: N_14  and  C_15
REMARK                            x       y       z     vdW  Elec       q    Type
REMARK                         _______ _______ _______ _____ _____    ______ ____
ROOT
ATOM      1  C   UNL     1       4.456   4.231  16.788  0.00  0.00    +0.000 A 
ATOM      2  C   UNL     1       4.569   5.610  16.905  0.00  0.00    +0.000 A 
ATOM      3  C   UNL     1       5.334   6.295  15.969  0.00  0.00    +0.000 A 
ATOM      4  C   UNL     1       5.949   5.582  14.947  0.00  0.00    +0.000 A 
ATOM      5  C   UNL     1       5.800   4.200  14.901  0.00  0.00    +0.000 A 
ATOM      6  N   UNL     1       5.070   3.528  15.813  0.00  0.00    +0.000 NA
ENDROOT
BRANCH   1  14
ATOM      7 CL   UNL     1       1.502   7.001  20.851  0.00  0.00    +0.000 Cl
ATOM      8  C   UNL     1       1.866   5.420  20.285  0.00  0.00    +0.000 A 
ATOM      9  C   UNL     1       1.287   4.278  20.968  0.00  0.00    +0.000 A 
ATOM     10  C   UNL     1       1.545   3.021  20.563  0.00  0.00    +0.000 A 
ATOM     11  C   UNL     1       2.396   2.797  19.443  0.00  0.00    +0.000 A 
ATOM     12  N   UNL     1       2.791   1.674  18.887  0.00  0.00    +0.000 NA
ATOM     13  C   UNL     1       3.589   2.057  17.846  0.00  0.00    +0.000 A 
ATOM     14  C   UNL     1       3.709   3.433  17.751  0.00  0.00    +0.000 A 
ATOM     15  N   UNL     1       2.929   3.916  18.796  0.00  0.00    +0.000 N 
ATOM     16  C   UNL     1       2.671   5.221  19.229  0.00  0.00    +0.000 A 
ENDBRANCH   1  14
BRANCH   5  17
ATOM     17  N   UNL     1       6.488   3.488  13.901  0.00  0.00    +0.000 N 
ATOM     18  H   UNL     1       7.487   3.587  14.053  0.00  0.00    +0.000 HD
BRANCH  17  19
ATOM     19  C   UNL     1       6.130   3.584  12.509  0.00  0.00    +0.000 C 
ATOM     20  C   UNL     1       6.223   2.217  11.792  0.00  0.00    +0.000 C 
ATOM     21  N   UNL     1       4.909   2.478  11.173  0.00  0.00    +0.000 NA
ATOM     22  C   UNL     1       4.611   3.454  12.244  0.00  0.00    +0.000 C 
ATOM     23  H   UNL     1       4.281   1.675  11.167  0.00  0.00    +0.000 HD
ENDBRANCH  17  19
ENDBRANCH   5  17
TORSDOF 3
ENDMDL
MODEL 9
REMARK VINA RESULT:      -7.1      0.852      1.036
REMARK  Name = 
REMARK  3 active torsions:
REMARK  status: ('A' for Active; 'I' for Inactive)
REMARK    1  A    between atoms: C_8  and  C_9
REMARK    2  A    between atoms: C_13  and  N_14
REMARK    3  A    between atoms: N_14  and  C_15
REMARK                            x       y       z     vdW  Elec       q    Type
REMARK                         _______ _______ _______ _____ _____    ______ ____
ROOT
ATOM      1  C   UNL     1       3.023   6.267  18.929  0.00  0.00    +0.000 A 
ATOM      2  C   UNL     1       2.220   5.141  19.054  0.00  0.00    +0.000 A 
ATOM      3  C   UNL     1       2.828   3.919  19.310  0.00  0.00    +0.000 A 
ATOM      4  C   UNL     1       4.210   3.866  19.443  0.00  0.00    +0.000 A 
ATOM      5  C   UNL     1       4.950   5.034  19.294  0.00  0.00    +0.000 A 
ATOM      6  N   UNL     1       4.368   6.221  19.032  0.00  0.00    +0.000 NA
ENDROOT
BRANCH   1  14
ATOM      7 CL   UNL     1       0.179   9.034  23.073  0.00  0.00    +0.000 Cl
ATOM      8  C   UNL     1       0.679   9.195  21.437  0.00  0.00    +0.000 A 
ATOM      9  C   UNL     1       0.346  10.410  20.717  0.00  0.00    +0.000 A 
ATOM     10  C   UNL     1       0.713  10.581  19.433  0.00  0.00    +0.000 A 
ATOM     11  C   UNL     1       1.445   9.559  18.762  0.00  0.00    +0.000 A 
ATOM     12  N   UNL     1       1.891   9.504  17.528  0.00  0.00    +0.000 NA
ATOM     13  C   UNL     1       2.525   8.297  17.436  0.00  0.00    +0.000 A 
ATOM     14  C   UNL     1       2.470   7.579  18.618  0.00  0.00    +0.000 A 
ATOM     15  N   UNL     1       1.763   8.405  19.485  0.00  0.00    +0.000 N 
ATOM     16  C   UNL     1       1.367   8.224  20.814  0.00  0.00    +0.000 A 
ENDBRANCH   1  14
BRANCH   5  17
ATOM     17  N   UNL     1       6.353   4.948  19.361  0.00  0.00    +0.000 N 
ATOM     18  H   UNL     1       6.687   5.579  20.084  0.00  0.00    +0.000 HD
BRANCH  17  19
ATOM     19  C   UNL     1       7.179   4.975  18.181  0.00  0.00    +0.000 C 
ATOM     20  C   UNL     1       6.345   4.829  16.888  0.00  0.00    +0.000 C 
ATOM     21  N   UNL     1       7.108   5.947  16.297  0.00  0.00    +0.000 NA
ATOM     22  C   UNL     1       7.473   6.401  17.657  0.00  0.00    +0.000 C 
ATOM     23  H   UNL     1       6.540   6.617  15.782  0.00  0.00    +0.000 HD
ENDBRANCH  17  19
ENDBRANCH   5  17
TORSDOF 3
ENDMDL
