MODEL 1
REMARK VINA RESULT:      -8.0      0.000      0.000
REMARK  Name = 
REMARK  14 active torsions:
REMARK  status: ('A' for Active; 'I' for Inactive)
REMARK    1  A    between atoms: C_2  and  C_3
REMARK    2  A    between atoms: C_3  and  O_4
REMARK    3  A    between atoms: O_4  and  C_5
REMARK    4  A    between atoms: N_7  and  C_8
REMARK    5  A    between atoms: C_8  and  C_9
REMARK    6  A    between atoms: C_8  and  C_13
REMARK    7  A    between atoms: C_9  and  C_10
REMARK    8  A    between atoms: C_10  and  O_12
REMARK    9  A    between atoms: C_13  and  C_15
REMARK   10  A    between atoms: C_15  and  N_16
REMARK   11  A    between atoms: N_16  and  C_17
REMARK   12  A    between atoms: C_17  and  C_18
REMARK   13  A    between atoms: C_17  and  C_25
REMARK   14  A    between atoms: C_18  and  C_19
REMARK                            x       y       z     vdW  Elec       q    Type
REMARK                         _______ _______ _______ _____ _____    ______ ____
ROOT
ATOM      1  C   UNL     1       5.681   4.395  18.212  0.00  0.00    +0.000 C 
ENDROOT
BRANCH   1   2
ATOM      2  C   UNL     1       7.078   4.882  17.845  0.00  0.00    +0.000 C 
ATOM      3  O   UNL     1       8.090   4.482  18.435  0.00  0.00    +0.000 OA
BRANCH   2   4
ATOM      4  C   UNL     1       7.145   5.932  16.732  0.00  0.00    +0.000 C 
BRANCH   4   7
ATOM      5  C   UNL     1       6.948   5.219  14.387  0.00  0.00    +0.000 C 
ATOM      6  O   UNL     1       8.148   5.316  14.176  0.00  0.00    +0.000 OA
ATOM      7  N   UNL     1       6.372   5.495  15.585  0.00  0.00    +0.000 N 
ATOM      8  H   UNL     1       5.366   5.391  15.675  0.00  0.00    +0.000 HD
BRANCH   5   9
ATOM      9  O   UNL     1       6.003   4.866  13.491  0.00  0.00    +0.000 OA
BRANCH   9  10
ATOM     10  C   UNL     1       6.312   3.722  12.689  0.00  0.00    +0.000 C 
BRANCH  10  12
ATOM     11  C   UNL     1       4.309   3.364  11.230  0.00  0.00    +0.000 C 
ATOM     12  C   UNL     1       5.026   3.053  12.316  0.00  0.00    +0.000 C 
ENDBRANCH  10  12
ENDBRANCH   9  10
ENDBRANCH   5   9
ENDBRANCH   4   7
BRANCH   4  13
ATOM     13  C   UNL     1       6.784   7.350  17.179  0.00  0.00    +0.000 C 
BRANCH  13  14
ATOM     14  C   UNL     1       7.913   8.059  17.883  0.00  0.00    +0.000 C 
ATOM     15  O   UNL     1       8.318   9.176  17.613  0.00  0.00    +0.000 OA
BRANCH  14  16
ATOM     16  O   UNL     1       8.416   7.339  18.911  0.00  0.00    +0.000 OA
ATOM     17  H   UNL     1       8.266   6.375  18.853  0.00  0.00    +0.000 HD
ENDBRANCH  14  16
ENDBRANCH  13  14
ENDBRANCH   4  13
ENDBRANCH   2   4
ENDBRANCH   1   2
BRANCH   1  18
ATOM     18  N   UNL     1       5.209   4.969  19.470  0.00  0.00    +0.000 NA
ATOM     19  H   UNL     1       5.844   5.740  19.706  0.00  0.00    +0.000 HD
BRANCH  18  20
ATOM     20  C   UNL     1       3.839   5.543  19.481  0.00  0.00    +0.000 C 
BRANCH  20  21
ATOM     21  C   UNL     1       2.778   4.422  19.450  0.00  0.00    +0.000 A 
ATOM     22  C   UNL     1       2.204   3.976  18.242  0.00  0.00    +0.000 A 
ATOM     23  C   UNL     1       1.231   2.974  18.221  0.00  0.00    +0.000 A 
ATOM     24  C   UNL     1       0.799   2.401  19.412  0.00  0.00    +0.000 A 
ATOM     25  C   UNL     1       1.360   2.814  20.617  0.00  0.00    +0.000 A 
ATOM     26  C   UNL     1       2.349   3.805  20.636  0.00  0.00    +0.000 A 
ENDBRANCH  20  21
BRANCH  20  27
ATOM     27  C   UNL     1       3.552   6.651  18.408  0.00  0.00    +0.000 C 
BRANCH  27  28
ATOM     28  C   UNL     1       2.493   7.692  18.712  0.00  0.00    +0.000 A 
ATOM     29  C   UNL     1       2.054   8.543  17.683  0.00  0.00    +0.000 A 
ATOM     30  C   UNL     1       1.187   9.603  17.957  0.00  0.00    +0.000 A 
ATOM     31  C   UNL     1       0.732   9.814  19.256  0.00  0.00    +0.000 A 
ATOM     32  C   UNL     1       1.096   8.931  20.266  0.00  0.00    +0.000 A 
ATOM     33  C   UNL     1       1.951   7.865  19.990  0.00  0.00    +0.000 A 
ENDBRANCH  27  28
ENDBRANCH  20  27
ENDBRANCH  18  20
ENDBRANCH   1  18
TORSDOF 14
ENDMDL
MODEL 2
REMARK VINA RESULT:      -7.8      1.456      4.283
REMARK  Name = 
REMARK  14 active torsions:
REMARK  status: ('A' for Active; 'I' for Inactive)
REMARK    1  A    between atoms: C_2  and  C_3
REMARK    2  A    between atoms: C_3  and  O_4
REMARK    3  A    between atoms: O_4  and  C_5
REMARK    4  A    between atoms: N_7  and  C_8
REMARK    5  A    between atoms: C_8  and  C_9
REMARK    6  A    between atoms: C_8  and  C_13
REMARK    7  A    between atoms: C_9  and  C_10
REMARK    8  A    between atoms: C_10  and  O_12
REMARK    9  A    between atoms: C_13  and  C_15
REMARK   10  A    between atoms: C_15  and  N_16
REMARK   11  A    between atoms: N_16  and  C_17
REMARK   12  A    between atoms: C_17  and  C_18
REMARK   13  A    between atoms: C_17  and  C_25
REMARK   14  A    between atoms: C_18  and  C_19
REMARK                            x       y       z     vdW  Elec       q    Type
REMARK                         _______ _______ _______ _____ _____    ______ ____
ROOT
ATOM      1  C   UNL     1       4.649   6.967  16.629  0.00  0.00    +0.000 C 
ENDROOT
BRANCH   1   2
ATOM      2  C   UNL     1       6.124   6.852  16.995  0.00  0.00    +0.000 C 
ATOM      3  O   UNL     1       6.848   7.847  17.130  0.00  0.00    +0.000 OA
BRANCH   2   4
ATOM      4  C   UNL     1       6.663   5.426  17.143  0.00  0.00    +0.000 C 
BRANCH   4   7
ATOM      5  C   UNL     1       6.177   4.092  15.135  0.00  0.00    +0.000 C 
ATOM      6  O   UNL     1       5.068   3.763  15.528  0.00  0.00    +0.000 OA
ATOM      7  N   UNL     1       7.018   4.888  15.843  0.00  0.00    +0.000 N 
ATOM      8  H   UNL     1       7.925   5.112  15.444  0.00  0.00    +0.000 HD
BRANCH   5   9
ATOM      9  O   UNL     1       6.765   3.710  13.982  0.00  0.00    +0.000 OA
BRANCH   9  10
ATOM     10  C   UNL     1       5.914   3.700  12.832  0.00  0.00    +0.000 C 
BRANCH  10  12
ATOM     11  C   UNL     1       6.023   1.661  11.382  0.00  0.00    +0.000 C 
ATOM     12  C   UNL     1       6.543   2.823  11.794  0.00  0.00    +0.000 C 
ENDBRANCH  10  12
ENDBRANCH   9  10
ENDBRANCH   5   9
ENDBRANCH   4   7
BRANCH   4  13
ATOM     13  C   UNL     1       7.790   5.281  18.167  0.00  0.00    +0.000 C 
BRANCH  13  14
ATOM     14  C   UNL     1       7.298   5.226  19.591  0.00  0.00    +0.000 C 
ATOM     15  O   UNL     1       6.170   4.916  19.933  0.00  0.00    +0.000 OA
BRANCH  14  16
ATOM     16  O   UNL     1       8.271   5.508  20.486  0.00  0.00    +0.000 OA
ATOM     17  H   UNL     1       8.789   4.739  20.789  0.00  0.00    +0.000 HD
ENDBRANCH  14  16
ENDBRANCH  13  14
ENDBRANCH   4  13
ENDBRANCH   2   4
ENDBRANCH   1   2
BRANCH   1  18
ATOM     18  N   UNL     1       3.918   7.837  17.548  0.00  0.00    +0.000 NA
ATOM     19  H   UNL     1       3.529   8.605  16.990  0.00  0.00    +0.000 HD
BRANCH  18  20
ATOM     20  C   UNL     1       2.775   7.237  18.283  0.00  0.00    +0.000 C 
BRANCH  20  21
ATOM     21  C   UNL     1       1.838   8.336  18.827  0.00  0.00    +0.000 A 
ATOM     22  C   UNL     1       1.523   8.430  20.199  0.00  0.00    +0.000 A 
ATOM     23  C   UNL     1       0.660   9.415  20.684  0.00  0.00    +0.000 A 
ATOM     24  C   UNL     1       0.082  10.326  19.807  0.00  0.00    +0.000 A 
ATOM     25  C   UNL     1       0.389  10.264  18.451  0.00  0.00    +0.000 A 
ATOM     26  C   UNL     1       1.268   9.287  17.967  0.00  0.00    +0.000 A 
ENDBRANCH  20  21
BRANCH  20  27
ATOM     27  C   UNL     1       3.147   6.184  19.385  0.00  0.00    +0.000 C 
BRANCH  27  28
ATOM     28  C   UNL     1       2.373   4.881  19.429  0.00  0.00    +0.000 A 
ATOM     29  C   UNL     1       2.185   4.156  18.241  0.00  0.00    +0.000 A 
ATOM     30  C   UNL     1       1.359   3.029  18.218  0.00  0.00    +0.000 A 
ATOM     31  C   UNL     1       0.728   2.603  19.384  0.00  0.00    +0.000 A 
ATOM     32  C   UNL     1       0.971   3.266  20.581  0.00  0.00    +0.000 A 
ATOM     33  C   UNL     1       1.806   4.382  20.607  0.00  0.00    +0.000 A 
ENDBRANCH  27  28
ENDBRANCH  20  27
ENDBRANCH  18  20
ENDBRANCH   1  18
TORSDOF 14
ENDMDL
MODEL 3
REMARK VINA RESULT:      -7.7      1.414      2.415
REMARK  Name = 
REMARK  14 active torsions:
REMARK  status: ('A' for Active; 'I' for Inactive)
REMARK    1  A    between atoms: C_2  and  C_3
REMARK    2  A    between atoms: C_3  and  O_4
REMARK    3  A    between atoms: O_4  and  C_5
REMARK    4  A    between atoms: N_7  and  C_8
REMARK    5  A    between atoms: C_8  and  C_9
REMARK    6  A    between atoms: C_8  and  C_13
REMARK    7  A    between atoms: C_9  and  C_10
REMARK    8  A    between atoms: C_10  and  O_12
REMARK    9  A    between atoms: C_13  and  C_15
REMARK   10  A    between atoms: C_15  and  N_16
REMARK   11  A    between atoms: N_16  and  C_17
REMARK   12  A    between atoms: C_17  and  C_18
REMARK   13  A    between atoms: C_17  and  C_25
REMARK   14  A    between atoms: C_18  and  C_19
REMARK                            x       y       z     vdW  Elec       q    Type
REMARK                         _______ _______ _______ _____ _____    ______ ____
ROOT
ATOM      1  C   UNL     1       4.383   7.345  17.359  0.00  0.00    +0.000 C 
ENDROOT
BRANCH   1   2
ATOM      2  C   UNL     1       5.183   6.820  16.172  0.00  0.00    +0.000 C 
ATOM      3  O   UNL     1       4.955   7.185  15.012  0.00  0.00    +0.000 OA
BRANCH   2   4
ATOM      4  C   UNL     1       6.255   5.777  16.503  0.00  0.00    +0.000 C 
BRANCH   4   7
ATOM      5  C   UNL     1       6.419   4.045  14.765  0.00  0.00    +0.000 C 
ATOM      6  O   UNL     1       5.564   3.340  15.280  0.00  0.00    +0.000 OA
ATOM      7  N   UNL     1       6.820   5.235  15.282  0.00  0.00    +0.000 N 
ATOM      8  H   UNL     1       7.540   5.759  14.792  0.00  0.00    +0.000 HD
BRANCH   5   9
ATOM      9  O   UNL     1       7.123   3.766  13.649  0.00  0.00    +0.000 OA
BRANCH   9  10
ATOM     10  C   UNL     1       6.496   4.135  12.417  0.00  0.00    +0.000 C 
BRANCH  10  12
ATOM     11  C   UNL     1       4.384   3.190  11.460  0.00  0.00    +0.000 C 
ATOM     12  C   UNL     1       5.597   3.014  11.996  0.00  0.00    +0.000 C 
ENDBRANCH  10  12
ENDBRANCH   9  10
ENDBRANCH   5   9
ENDBRANCH   4   7
BRANCH   4  13
ATOM     13  C   UNL     1       7.327   6.264  17.480  0.00  0.00    +0.000 C 
BRANCH  13  14
ATOM     14  C   UNL     1       7.672   5.249  18.540  0.00  0.00    +0.000 C 
ATOM     15  O   UNL     1       8.232   5.496  19.594  0.00  0.00    +0.000 OA
BRANCH  14  16
ATOM     16  O   UNL     1       7.241   4.006  18.227  0.00  0.00    +0.000 OA
ATOM     17  H   UNL     1       7.223   3.804  17.272  0.00  0.00    +0.000 HD
ENDBRANCH  14  16
ENDBRANCH  13  14
ENDBRANCH   4  13
ENDBRANCH   2   4
ENDBRANCH   1   2
BRANCH   1  18
ATOM     18  N   UNL     1       4.090   6.296  18.334  0.00  0.00    +0.000 NA
ATOM     19  H   UNL     1       4.884   6.258  18.982  0.00  0.00    +0.000 HD
BRANCH  18  20
ATOM     20  C   UNL     1       2.876   6.472  19.173  0.00  0.00    +0.000 C 
BRANCH  20  21
ATOM     21  C   UNL     1       2.118   5.136  19.322  0.00  0.00    +0.000 A 
ATOM     22  C   UNL     1       1.697   4.659  20.581  0.00  0.00    +0.000 A 
ATOM     23  C   UNL     1       1.027   3.440  20.713  0.00  0.00    +0.000 A 
ATOM     24  C   UNL     1       0.771   2.663  19.590  0.00  0.00    +0.000 A 
ATOM     25  C   UNL     1       1.163   3.119  18.334  0.00  0.00    +0.000 A 
ATOM     26  C   UNL     1       1.818   4.349  18.199  0.00  0.00    +0.000 A 
ENDBRANCH  20  21
BRANCH  20  27
ATOM     27  C   UNL     1       1.922   7.646  18.757  0.00  0.00    +0.000 C 
BRANCH  27  28
ATOM     28  C   UNL     1       1.307   8.497  19.851  0.00  0.00    +0.000 A 
ATOM     29  C   UNL     1       0.645   9.686  19.503  0.00  0.00    +0.000 A 
ATOM     30  C   UNL     1       0.191  10.564  20.490  0.00  0.00    +0.000 A 
ATOM     31  C   UNL     1       0.376  10.255  21.836  0.00  0.00    +0.000 A 
ATOM     32  C   UNL     1       0.956   9.044  22.192  0.00  0.00    +0.000 A 
ATOM     33  C   UNL     1       1.397   8.161  21.207  0.00  0.00    +0.000 A 
ENDBRANCH  27  28
ENDBRANCH  20  27
ENDBRANCH  18  20
ENDBRANCH   1  18
TORSDOF 14
ENDMDL
MODEL 4
REMARK VINA RESULT:      -7.7      1.269      2.100
REMARK  Name = 
REMARK  14 active torsions:
REMARK  status: ('A' for Active; 'I' for Inactive)
REMARK    1  A    between atoms: C_2  and  C_3
REMARK    2  A    between atoms: C_3  and  O_4
REMARK    3  A    between atoms: O_4  and  C_5
REMARK    4  A    between atoms: N_7  and  C_8
REMARK    5  A    between atoms: C_8  and  C_9
REMARK    6  A    between atoms: C_8  and  C_13
REMARK    7  A    between atoms: C_9  and  C_10
REMARK    8  A    between atoms: C_10  and  O_12
REMARK    9  A    between atoms: C_13  and  C_15
REMARK   10  A    between atoms: C_15  and  N_16
REMARK   11  A    between atoms: N_16  and  C_17
REMARK   12  A    between atoms: C_17  and  C_18
REMARK   13  A    between atoms: C_17  and  C_25
REMARK   14  A    between atoms: C_18  and  C_19
REMARK                            x       y       z     vdW  Elec       q    Type
REMARK                         _______ _______ _______ _____ _____    ______ ____
ROOT
ATOM      1  C   UNL     1       5.106   7.443  17.229  0.00  0.00    +0.000 C 
ENDROOT
BRANCH   1   2
ATOM      2  C   UNL     1       6.556   7.022  17.020  0.00  0.00    +0.000 C 
ATOM      3  O   UNL     1       7.484   7.842  17.006  0.00  0.00    +0.000 OA
BRANCH   2   4
ATOM      4  C   UNL     1       6.787   5.527  16.782  0.00  0.00    +0.000 C 
BRANCH   4   7
ATOM      5  C   UNL     1       6.775   4.274  14.666  0.00  0.00    +0.000 C 
ATOM      6  O   UNL     1       5.947   3.466  15.060  0.00  0.00    +0.000 OA
ATOM      7  N   UNL     1       7.241   5.300  15.423  0.00  0.00    +0.000 N 
ATOM      8  H   UNL     1       7.931   5.927  15.019  0.00  0.00    +0.000 HD
BRANCH   5   9
ATOM      9  O   UNL     1       7.382   4.277  13.461  0.00  0.00    +0.000 OA
BRANCH   9  10
ATOM     10  C   UNL     1       6.515   4.432  12.335  0.00  0.00    +0.000 C 
BRANCH  10  12
ATOM     11  C   UNL     1       4.587   3.083  11.478  0.00  0.00    +0.000 C 
ATOM     12  C   UNL     1       5.728   3.169  12.172  0.00  0.00    +0.000 C 
ENDBRANCH  10  12
ENDBRANCH   9  10
ENDBRANCH   5   9
ENDBRANCH   4   7
BRANCH   4  13
ATOM     13  C   UNL     1       7.684   4.854  17.822  0.00  0.00    +0.000 C 
BRANCH  13  14
ATOM     14  C   UNL     1       7.152   4.962  19.228  0.00  0.00    +0.000 C 
ATOM     15  O   UNL     1       7.738   5.478  20.164  0.00  0.00    +0.000 OA
BRANCH  14  16
ATOM     16  O   UNL     1       5.900   4.466  19.347  0.00  0.00    +0.000 OA
ATOM     17  H   UNL     1       5.463   4.241  18.503  0.00  0.00    +0.000 HD
ENDBRANCH  14  16
ENDBRANCH  13  14
ENDBRANCH   4  13
ENDBRANCH   2   4
ENDBRANCH   1   2
BRANCH   1  18
ATOM     18  N   UNL     1       4.263   6.326  17.648  0.00  0.00    +0.000 NA
ATOM     19  H   UNL     1       4.852   5.696  18.204  0.00  0.00    +0.000 HD
BRANCH  18  20
ATOM     20  C   UNL     1       3.084   6.646  18.494  0.00  0.00    +0.000 C 
BRANCH  20  21
ATOM     21  C   UNL     1       2.308   5.364  18.858  0.00  0.00    +0.000 A 
ATOM     22  C   UNL     1       1.945   4.413  17.881  0.00  0.00    +0.000 A 
ATOM     23  C   UNL     1       1.226   3.262  18.213  0.00  0.00    +0.000 A 
ATOM     24  C   UNL     1       0.843   3.039  19.530  0.00  0.00    +0.000 A 
ATOM     25  C   UNL     1       1.201   3.955  20.516  0.00  0.00    +0.000 A 
ATOM     26  C   UNL     1       1.937   5.099  20.186  0.00  0.00    +0.000 A 
ENDBRANCH  20  21
BRANCH  20  27
ATOM     27  C   UNL     1       2.136   7.772  17.947  0.00  0.00    +0.000 C 
BRANCH  27  28
ATOM     28  C   UNL     1       1.466   8.696  18.944  0.00  0.00    +0.000 A 
ATOM     29  C   UNL     1       0.813   9.849  18.476  0.00  0.00    +0.000 A 
ATOM     30  C   UNL     1       0.308  10.795  19.372  0.00  0.00    +0.000 A 
ATOM     31  C   UNL     1       0.432  10.591  20.744  0.00  0.00    +0.000 A 
ATOM     32  C   UNL     1       1.004   9.416  21.218  0.00  0.00    +0.000 A 
ATOM     33  C   UNL     1       1.496   8.466  20.324  0.00  0.00    +0.000 A 
ENDBRANCH  27  28
ENDBRANCH  20  27
ENDBRANCH  18  20
ENDBRANCH   1  18
TORSDOF 14
ENDMDL
MODEL 5
REMARK VINA RESULT:      -7.6      3.146      7.927
REMARK  Name = 
REMARK  14 active torsions:
REMARK  status: ('A' for Active; 'I' for Inactive)
REMARK    1  A    between atoms: C_2  and  C_3
REMARK    2  A    between atoms: C_3  and  O_4
REMARK    3  A    between atoms: O_4  and  C_5
REMARK    4  A    between atoms: N_7  and  C_8
REMARK    5  A    between atoms: C_8  and  C_9
REMARK    6  A    between atoms: C_8  and  C_13
REMARK    7  A    between atoms: C_9  and  C_10
REMARK    8  A    between atoms: C_10  and  O_12
REMARK    9  A    between atoms: C_13  and  C_15
REMARK   10  A    between atoms: C_15  and  N_16
REMARK   11  A    between atoms: N_16  and  C_17
REMARK   12  A    between atoms: C_17  and  C_18
REMARK   13  A    between atoms: C_17  and  C_25
REMARK   14  A    between atoms: C_18  and  C_19
REMARK                            x       y       z     vdW  Elec       q    Type
REMARK                         _______ _______ _______ _____ _____    ______ ____
ROOT
ATOM      1  C   UNL     1       3.708   3.046  17.266  0.00  0.00    +0.000 C 
ENDROOT
BRANCH   1   2
ATOM      2  C   UNL     1       2.558   3.255  18.245  0.00  0.00    +0.000 C 
ATOM      3  O   UNL     1       1.390   2.957  17.962  0.00  0.00    +0.000 OA
BRANCH   2   4
ATOM      4  C   UNL     1       2.934   3.899  19.584  0.00  0.00    +0.000 C 
BRANCH   4   7
ATOM      5  C   UNL     1       2.680   6.332  19.337  0.00  0.00    +0.000 C 
ATOM      6  O   UNL     1       3.756   6.464  18.771  0.00  0.00    +0.000 OA
ATOM      7  N   UNL     1       2.201   5.137  19.767  0.00  0.00    +0.000 N 
ATOM      8  H   UNL     1       1.297   5.115  20.231  0.00  0.00    +0.000 HD
BRANCH   5   9
ATOM      9  O   UNL     1       1.818   7.318  19.660  0.00  0.00    +0.000 OA
BRANCH   9  10
ATOM     10  C   UNL     1       1.732   7.629  21.054  0.00  0.00    +0.000 C 
BRANCH  10  12
ATOM     11  C   UNL     1       0.262   9.135  22.409  0.00  0.00    +0.000 C 
ATOM     12  C   UNL     1       0.527   8.491  21.267  0.00  0.00    +0.000 C 
ENDBRANCH  10  12
ENDBRANCH   9  10
ENDBRANCH   5   9
ENDBRANCH   4   7
BRANCH   4  13
ATOM     13  C   UNL     1       2.817   2.963  20.788  0.00  0.00    +0.000 C 
BRANCH  13  14
ATOM     14  C   UNL     1       1.424   2.899  21.361  0.00  0.00    +0.000 C 
ATOM     15  O   UNL     1       1.145   2.540  22.492  0.00  0.00    +0.000 OA
BRANCH  14  16
ATOM     16  O   UNL     1       0.487   3.344  20.494  0.00  0.00    +0.000 OA
ATOM     17  H   UNL     1      -0.057   4.086  20.819  0.00  0.00    +0.000 HD
ENDBRANCH  14  16
ENDBRANCH  13  14
ENDBRANCH   4  13
ENDBRANCH   2   4
ENDBRANCH   1   2
BRANCH   1  18
ATOM     18  N   UNL     1       4.963   3.605  17.763  0.00  0.00    +0.000 NA
ATOM     19  H   UNL     1       5.502   2.828  18.160  0.00  0.00    +0.000 HD
BRANCH  18  20
ATOM     20  C   UNL     1       5.851   4.262  16.769  0.00  0.00    +0.000 C 
BRANCH  20  21
ATOM     21  C   UNL     1       6.716   5.348  17.444  0.00  0.00    +0.000 A 
ATOM     22  C   UNL     1       7.373   5.118  18.670  0.00  0.00    +0.000 A 
ATOM     23  C   UNL     1       8.139   6.111  19.285  0.00  0.00    +0.000 A 
ATOM     24  C   UNL     1       8.258   7.363  18.694  0.00  0.00    +0.000 A 
ATOM     25  C   UNL     1       7.632   7.611  17.477  0.00  0.00    +0.000 A 
ATOM     26  C   UNL     1       6.878   6.610  16.850  0.00  0.00    +0.000 A 
ENDBRANCH  20  21
BRANCH  20  27
ATOM     27  C   UNL     1       5.150   4.793  15.470  0.00  0.00    +0.000 C 
BRANCH  27  28
ATOM     28  C   UNL     1       5.790   4.489  14.130  0.00  0.00    +0.000 A 
ATOM     29  C   UNL     1       5.149   3.600  13.251  0.00  0.00    +0.000 A 
ATOM     30  C   UNL     1       5.776   3.188  12.072  0.00  0.00    +0.000 A 
ATOM     31  C   UNL     1       7.040   3.674  11.748  0.00  0.00    +0.000 A 
ATOM     32  C   UNL     1       7.648   4.616  12.570  0.00  0.00    +0.000 A 
ATOM     33  C   UNL     1       7.017   5.038  13.739  0.00  0.00    +0.000 A 
ENDBRANCH  27  28
ENDBRANCH  20  27
ENDBRANCH  18  20
ENDBRANCH   1  18
TORSDOF 14
ENDMDL
MODEL 6
REMARK VINA RESULT:      -7.6      0.649      1.496
REMARK  Name = 
REMARK  14 active torsions:
REMARK  status: ('A' for Active; 'I' for Inactive)
REMARK    1  A    between atoms: C_2  and  C_3
REMARK    2  A    between atoms: C_3  and  O_4
REMARK    3  A    between atoms: O_4  and  C_5
REMARK    4  A    between atoms: N_7  and  C_8
REMARK    5  A    between atoms: C_8  and  C_9
REMARK    6  A    between atoms: C_8  and  C_13
REMARK    7  A    between atoms: C_9  and  C_10
REMARK    8  A    between atoms: C_10  and  O_12
REMARK    9  A    between atoms: C_13  and  C_15
REMARK   10  A    between atoms: C_15  and  N_16
REMARK   11  A    between atoms: N_16  and  C_17
REMARK   12  A    between atoms: C_17  and  C_18
REMARK   13  A    between atoms: C_17  and  C_25
REMARK   14  A    between atoms: C_18  and  C_19
REMARK                            x       y       z     vdW  Elec       q    Type
REMARK                         _______ _______ _______ _____ _____    ______ ____
ROOT
ATOM      1  C   UNL     1       6.125   5.362  19.401  0.00  0.00    +0.000 C 
ENDROOT
BRANCH   1   2
ATOM      2  C   UNL     1       7.383   5.285  18.543  0.00  0.00    +0.000 C 
ATOM      3  O   UNL     1       8.409   4.712  18.930  0.00  0.00    +0.000 OA
BRANCH   2   4
ATOM      4  C   UNL     1       7.309   5.999  17.190  0.00  0.00    +0.000 C 
BRANCH   4   7
ATOM      5  C   UNL     1       6.928   5.011  14.970  0.00  0.00    +0.000 C 
ATOM      6  O   UNL     1       7.962   5.466  14.506  0.00  0.00    +0.000 OA
ATOM      7  N   UNL     1       6.528   5.216  16.252  0.00  0.00    +0.000 N 
ATOM      8  H   UNL     1       5.651   4.803  16.558  0.00  0.00    +0.000 HD
BRANCH   5   9
ATOM      9  O   UNL     1       6.007   4.278  14.311  0.00  0.00    +0.000 OA
BRANCH   9  10
ATOM     10  C   UNL     1       6.187   4.193  12.895  0.00  0.00    +0.000 C 
BRANCH  10  12
ATOM     11  C   UNL     1       5.159   2.536  11.325  0.00  0.00    +0.000 C 
ATOM     12  C   UNL     1       5.815   2.810  12.458  0.00  0.00    +0.000 C 
ENDBRANCH  10  12
ENDBRANCH   9  10
ENDBRANCH   5   9
ENDBRANCH   4   7
BRANCH   4  13
ATOM     13  C   UNL     1       6.844   7.454  17.271  0.00  0.00    +0.000 C 
BRANCH  13  14
ATOM     14  C   UNL     1       7.852   8.367  17.920  0.00  0.00    +0.000 C 
ATOM     15  O   UNL     1       8.739   8.010  18.676  0.00  0.00    +0.000 OA
BRANCH  14  16
ATOM     16  O   UNL     1       7.711   9.654  17.532  0.00  0.00    +0.000 OA
ATOM     17  H   UNL     1       8.185   9.893  16.712  0.00  0.00    +0.000 HD
ENDBRANCH  14  16
ENDBRANCH  13  14
ENDBRANCH   4  13
ENDBRANCH   2   4
ENDBRANCH   1   2
BRANCH   1  18
ATOM     18  N   UNL     1       4.937   4.908  18.681  0.00  0.00    +0.000 NA
ATOM     19  H   UNL     1       4.822   3.910  18.890  0.00  0.00    +0.000 HD
BRANCH  18  20
ATOM     20  C   UNL     1       3.647   5.557  19.027  0.00  0.00    +0.000 C 
BRANCH  20  21
ATOM     21  C   UNL     1       2.561   4.497  19.308  0.00  0.00    +0.000 A 
ATOM     22  C   UNL     1       2.186   4.148  20.622  0.00  0.00    +0.000 A 
ATOM     23  C   UNL     1       1.216   3.175  20.872  0.00  0.00    +0.000 A 
ATOM     24  C   UNL     1       0.602   2.519  19.811  0.00  0.00    +0.000 A 
ATOM     25  C   UNL     1       0.943   2.855  18.504  0.00  0.00    +0.000 A 
ATOM     26  C   UNL     1       1.903   3.843  18.254  0.00  0.00    +0.000 A 
ENDBRANCH  20  21
BRANCH  20  27
ATOM     27  C   UNL     1       3.146   6.660  18.030  0.00  0.00    +0.000 C 
BRANCH  27  28
ATOM     28  C   UNL     1       2.373   7.839  18.587  0.00  0.00    +0.000 A 
ATOM     29  C   UNL     1       1.955   7.811  19.928  0.00  0.00    +0.000 A 
ATOM     30  C   UNL     1       1.122   8.811  20.436  0.00  0.00    +0.000 A 
ATOM     31  C   UNL     1       0.712   9.859  19.615  0.00  0.00    +0.000 A 
ATOM     32  C   UNL     1       1.184   9.940  18.311  0.00  0.00    +0.000 A 
ATOM     33  C   UNL     1       2.027   8.949  17.808  0.00  0.00    +0.000 A 
ENDBRANCH  27  28
ENDBRANCH  20  27
ENDBRANCH  18  20
ENDBRANCH   1  18
TORSDOF 14
ENDMDL
MODEL 7
REMARK VINA RESULT:      -7.5      2.984      7.655
REMARK  Name = 
REMARK  14 active torsions:
REMARK  status: ('A' for Active; 'I' for Inactive)
REMARK    1  A    between atoms: C_2  and  C_3
REMARK    2  A    between atoms: C_3  and  O_4
REMARK    3  A    between atoms: O_4  and  C_5
REMARK    4  A    between atoms: N_7  and  C_8
REMARK    5  A    between atoms: C_8  and  C_9
REMARK    6  A    between atoms: C_8  and  C_13
REMARK    7  A    between atoms: C_9  and  C_10
REMARK    8  A    between atoms: C_10  and  O_12
REMARK    9  A    between atoms: C_13  and  C_15
REMARK   10  A    between atoms: C_15  and  N_16
REMARK   11  A    between atoms: N_16  and  C_17
REMARK   12  A    between atoms: C_17  and  C_18
REMARK   13  A    between atoms: C_17  and  C_25
REMARK   14  A    between atoms: C_18  and  C_19
REMARK                            x       y       z     vdW  Elec       q    Type
REMARK                         _______ _______ _______ _____ _____    ______ ____
ROOT
ATOM      1  C   UNL     1       3.477   3.418  17.211  0.00  0.00    +0.000 C 
ENDROOT
BRANCH   1   2
ATOM      2  C   UNL     1       2.427   4.294  17.885  0.00  0.00    +0.000 C 
ATOM      3  O   UNL     1       1.263   4.363  17.470  0.00  0.00    +0.000 OA
BRANCH   2   4
ATOM      4  C   UNL     1       2.916   5.118  19.080  0.00  0.00    +0.000 C 
BRANCH   4   7
ATOM      5  C   UNL     1       2.714   7.437  18.286  0.00  0.00    +0.000 C 
ATOM      6  O   UNL     1       3.659   7.337  17.518  0.00  0.00    +0.000 OA
ATOM      7  N   UNL     1       2.284   6.423  19.081  0.00  0.00    +0.000 N 
ATOM      8  H   UNL     1       1.491   6.591  19.694  0.00  0.00    +0.000 HD
BRANCH   5   9
ATOM      9  O   UNL     1       1.973   8.542  18.507  0.00  0.00    +0.000 OA
BRANCH   9  10
ATOM     10  C   UNL     1       1.346   8.617  19.790  0.00  0.00    +0.000 C 
BRANCH  10  12
ATOM     11  C   UNL     1      -0.309  10.220  20.771  0.00  0.00    +0.000 C 
ATOM     12  C   UNL     1       0.676   9.951  19.906  0.00  0.00    +0.000 C 
ENDBRANCH  10  12
ENDBRANCH   9  10
ENDBRANCH   5   9
ENDBRANCH   4   7
BRANCH   4  13
ATOM     13  C   UNL     1       2.796   4.405  20.428  0.00  0.00    +0.000 C 
BRANCH  13  14
ATOM     14  C   UNL     1       1.626   3.457  20.499  0.00  0.00    +0.000 C 
ATOM     15  O   UNL     1       1.707   2.253  20.669  0.00  0.00    +0.000 OA
BRANCH  14  16
ATOM     16  O   UNL     1       0.437   4.094  20.407  0.00  0.00    +0.000 OA
ATOM     17  H   UNL     1      -0.285   3.566  20.016  0.00  0.00    +0.000 HD
ENDBRANCH  14  16
ENDBRANCH  13  14
ENDBRANCH   4  13
ENDBRANCH   2   4
ENDBRANCH   1   2
BRANCH   1  18
ATOM     18  N   UNL     1       4.821   3.675  17.725  0.00  0.00    +0.000 NA
ATOM     19  H   UNL     1       5.213   2.771  18.008  0.00  0.00    +0.000 HD
BRANCH  18  20
ATOM     20  C   UNL     1       5.802   4.275  16.784  0.00  0.00    +0.000 C 
BRANCH  20  21
ATOM     21  C   UNL     1       6.665   5.336  17.498  0.00  0.00    +0.000 A 
ATOM     22  C   UNL     1       6.887   6.612  16.939  0.00  0.00    +0.000 A 
ATOM     23  C   UNL     1       7.684   7.562  17.581  0.00  0.00    +0.000 A 
ATOM     24  C   UNL     1       8.288   7.257  18.795  0.00  0.00    +0.000 A 
ATOM     25  C   UNL     1       8.073   6.010  19.375  0.00  0.00    +0.000 A 
ATOM     26  C   UNL     1       7.259   5.064  18.741  0.00  0.00    +0.000 A 
ENDBRANCH  20  21
BRANCH  20  27
ATOM     27  C   UNL     1       5.213   4.811  15.431  0.00  0.00    +0.000 C 
BRANCH  27  28
ATOM     28  C   UNL     1       5.887   4.398  14.138  0.00  0.00    +0.000 A 
ATOM     29  C   UNL     1       7.092   5.016  13.766  0.00  0.00    +0.000 A 
ATOM     30  C   UNL     1       7.666   4.765  12.517  0.00  0.00    +0.000 A 
ATOM     31  C   UNL     1       7.054   3.878  11.635  0.00  0.00    +0.000 A 
ATOM     32  C   UNL     1       5.905   3.199  12.024  0.00  0.00    +0.000 A 
ATOM     33  C   UNL     1       5.340   3.441  13.276  0.00  0.00    +0.000 A 
ENDBRANCH  27  28
ENDBRANCH  20  27
ENDBRANCH  18  20
ENDBRANCH   1  18
TORSDOF 14
ENDMDL
MODEL 8
REMARK VINA RESULT:      -7.5      4.461      7.803
REMARK  Name = 
REMARK  14 active torsions:
REMARK  status: ('A' for Active; 'I' for Inactive)
REMARK    1  A    between atoms: C_2  and  C_3
REMARK    2  A    between atoms: C_3  and  O_4
REMARK    3  A    between atoms: O_4  and  C_5
REMARK    4  A    between atoms: N_7  and  C_8
REMARK    5  A    between atoms: C_8  and  C_9
REMARK    6  A    between atoms: C_8  and  C_13
REMARK    7  A    between atoms: C_9  and  C_10
REMARK    8  A    between atoms: C_10  and  O_12
REMARK    9  A    between atoms: C_13  and  C_15
REMARK   10  A    between atoms: C_15  and  N_16
REMARK   11  A    between atoms: N_16  and  C_17
REMARK   12  A    between atoms: C_17  and  C_18
REMARK   13  A    between atoms: C_17  and  C_25
REMARK   14  A    between atoms: C_18  and  C_19
REMARK                            x       y       z     vdW  Elec       q    Type
REMARK                         _______ _______ _______ _____ _____    ______ ____
ROOT
ATOM      1  C   UNL     1       1.666   8.136  19.586  0.00  0.00    +0.000 C 
ENDROOT
BRANCH   1   2
ATOM      2  C   UNL     1       1.526   9.267  18.573  0.00  0.00    +0.000 C 
ATOM      3  O   UNL     1       2.020   9.200  17.440  0.00  0.00    +0.000 OA
BRANCH   2   4
ATOM      4  C   UNL     1       0.774  10.508  19.063  0.00  0.00    +0.000 C 
BRANCH   4   7
ATOM      5  C   UNL     1       1.871  12.702  18.886  0.00  0.00    +0.000 C 
ATOM      6  O   UNL     1       2.177  12.730  20.069  0.00  0.00    +0.000 OA
ATOM      7  N   UNL     1       1.193  11.676  18.311  0.00  0.00    +0.000 N 
ATOM      8  H   UNL     1       0.976  11.733  17.320  0.00  0.00    +0.000 HD
BRANCH   5   9
ATOM      9  O   UNL     1       2.108  13.667  17.974  0.00  0.00    +0.000 OA
BRANCH   9  10
ATOM     10  C   UNL     1       2.329  14.977  18.506  0.00  0.00    +0.000 C 
BRANCH  10  12
ATOM     11  C   UNL     1       3.032  16.897  17.062  0.00  0.00    +0.000 C 
ATOM     12  C   UNL     1       3.277  15.696  17.598  0.00  0.00    +0.000 C 
ENDBRANCH  10  12
ENDBRANCH   9  10
ENDBRANCH   5   9
ENDBRANCH   4   7
BRANCH   4  13
ATOM     13  C   UNL     1      -0.746  10.349  19.103  0.00  0.00    +0.000 C 
BRANCH  13  14
ATOM     14  C   UNL     1      -1.400  10.531  17.756  0.00  0.00    +0.000 C 
ATOM     15  O   UNL     1      -1.805   9.628  17.044  0.00  0.00    +0.000 OA
BRANCH  14  16
ATOM     16  O   UNL     1      -1.551  11.833  17.425  0.00  0.00    +0.000 OA
ATOM     17  H   UNL     1      -2.143  12.342  18.011  0.00  0.00    +0.000 HD
ENDBRANCH  14  16
ENDBRANCH  13  14
ENDBRANCH   4  13
ENDBRANCH   2   4
ENDBRANCH   1   2
BRANCH   1  18
ATOM     18  N   UNL     1       2.821   7.285  19.306  0.00  0.00    +0.000 NA
ATOM     19  H   UNL     1       3.156   6.927  20.207  0.00  0.00    +0.000 HD
BRANCH  18  20
ATOM     20  C   UNL     1       2.593   6.095  18.446  0.00  0.00    +0.000 C 
BRANCH  20  21
ATOM     21  C   UNL     1       2.132   4.890  19.292  0.00  0.00    +0.000 A 
ATOM     22  C   UNL     1       1.350   3.853  18.741  0.00  0.00    +0.000 A 
ATOM     23  C   UNL     1       0.920   2.773  19.516  0.00  0.00    +0.000 A 
ATOM     24  C   UNL     1       1.252   2.709  20.864  0.00  0.00    +0.000 A 
ATOM     25  C   UNL     1       2.035   3.712  21.428  0.00  0.00    +0.000 A 
ATOM     26  C   UNL     1       2.482   4.785  20.647  0.00  0.00    +0.000 A 
ENDBRANCH  20  21
BRANCH  20  27
ATOM     27  C   UNL     1       3.768   5.718  17.476  0.00  0.00    +0.000 C 
BRANCH  27  28
ATOM     28  C   UNL     1       5.188   6.016  17.913  0.00  0.00    +0.000 A 
ATOM     29  C   UNL     1       5.945   6.953  17.191  0.00  0.00    +0.000 A 
ATOM     30  C   UNL     1       7.298   7.149  17.476  0.00  0.00    +0.000 A 
ATOM     31  C   UNL     1       7.907   6.425  18.499  0.00  0.00    +0.000 A 
ATOM     32  C   UNL     1       7.148   5.554  19.273  0.00  0.00    +0.000 A 
ATOM     33  C   UNL     1       5.794   5.369  18.996  0.00  0.00    +0.000 A 
ENDBRANCH  27  28
ENDBRANCH  20  27
ENDBRANCH  18  20
ENDBRANCH   1  18
TORSDOF 14
ENDMDL
MODEL 9
REMARK VINA RESULT:      -7.5      4.480      8.067
REMARK  Name = 
REMARK  14 active torsions:
REMARK  status: ('A' for Active; 'I' for Inactive)
REMARK    1  A    between atoms: C_2  and  C_3
REMARK    2  A    between atoms: C_3  and  O_4
REMARK    3  A    between atoms: O_4  and  C_5
REMARK    4  A    between atoms: N_7  and  C_8
REMARK    5  A    between atoms: C_8  and  C_9
REMARK    6  A    between atoms: C_8  and  C_13
REMARK    7  A    between atoms: C_9  and  C_10
REMARK    8  A    between atoms: C_10  and  O_12
REMARK    9  A    between atoms: C_13  and  C_15
REMARK   10  A    between atoms: C_15  and  N_16
REMARK   11  A    between atoms: N_16  and  C_17
REMARK   12  A    between atoms: C_17  and  C_18
REMARK   13  A    between atoms: C_17  and  C_25
REMARK   14  A    between atoms: C_18  and  C_19
REMARK                            x       y       z     vdW  Elec       q    Type
REMARK                         _______ _______ _______ _____ _____    ______ ____
ROOT
ATOM      1  C   UNL     1       1.846   8.547  17.758  0.00  0.00    +0.000 C 
ENDROOT
BRANCH   1   2
ATOM      2  C   UNL     1       1.760   9.940  18.371  0.00  0.00    +0.000 C 
ATOM      3  O   UNL     1       2.324  10.918  17.864  0.00  0.00    +0.000 OA
BRANCH   2   4
ATOM      4  C   UNL     1       0.969  10.043  19.679  0.00  0.00    +0.000 C 
BRANCH   4   7
ATOM      5  C   UNL     1      -0.941  11.572  19.928  0.00  0.00    +0.000 C 
ATOM      6  O   UNL     1      -0.331  12.336  20.661  0.00  0.00    +0.000 OA
ATOM      7  N   UNL     1      -0.399  10.441  19.407  0.00  0.00    +0.000 N 
ATOM      8  H   UNL     1      -0.976   9.858  18.807  0.00  0.00    +0.000 HD
BRANCH   5   9
ATOM      9  O   UNL     1      -2.228  11.686  19.542  0.00  0.00    +0.000 OA
BRANCH   9  10
ATOM     10  C   UNL     1      -2.535  11.147  18.253  0.00  0.00    +0.000 C 
BRANCH  10  12
ATOM     11  C   UNL     1      -4.534  11.232  16.748  0.00  0.00    +0.000 C 
ATOM     12  C   UNL     1      -3.943  11.523  17.913  0.00  0.00    +0.000 C 
ENDBRANCH  10  12
ENDBRANCH   9  10
ENDBRANCH   5   9
ENDBRANCH   4   7
BRANCH   4  13
ATOM     13  C   UNL     1       1.054   8.799  20.566  0.00  0.00    +0.000 C 
BRANCH  13  14
ATOM     14  C   UNL     1       0.731   9.075  22.012  0.00  0.00    +0.000 C 
ATOM     15  O   UNL     1       1.530   9.451  22.852  0.00  0.00    +0.000 OA
BRANCH  14  16
ATOM     16  O   UNL     1      -0.582   8.912  22.290  0.00  0.00    +0.000 OA
ATOM     17  H   UNL     1      -0.820   8.044  22.668  0.00  0.00    +0.000 HD
ENDBRANCH  14  16
ENDBRANCH  13  14
ENDBRANCH   4  13
ENDBRANCH   2   4
ENDBRANCH   1   2
BRANCH   1  18
ATOM     18  N   UNL     1       3.219   8.048  17.713  0.00  0.00    +0.000 NA
ATOM     19  H   UNL     1       3.768   8.621  18.363  0.00  0.00    +0.000 HD
BRANCH  18  20
ATOM     20  C   UNL     1       3.439   6.636  18.116  0.00  0.00    +0.000 C 
BRANCH  20  21
ATOM     21  C   UNL     1       4.657   6.041  17.380  0.00  0.00    +0.000 A 
ATOM     22  C   UNL     1       4.571   4.832  16.658  0.00  0.00    +0.000 A 
ATOM     23  C   UNL     1       5.682   4.289  16.008  0.00  0.00    +0.000 A 
ATOM     24  C   UNL     1       6.910   4.935  16.074  0.00  0.00    +0.000 A 
ATOM     25  C   UNL     1       7.019   6.137  16.768  0.00  0.00    +0.000 A 
ATOM     26  C   UNL     1       5.901   6.692  17.404  0.00  0.00    +0.000 A 
ENDBRANCH  20  21
BRANCH  20  27
ATOM     27  C   UNL     1       2.185   5.696  18.030  0.00  0.00    +0.000 C 
BRANCH  27  28
ATOM     28  C   UNL     1       1.979   4.666  19.122  0.00  0.00    +0.000 A 
ATOM     29  C   UNL     1       1.254   3.498  18.834  0.00  0.00    +0.000 A 
ATOM     30  C   UNL     1       0.923   2.595  19.848  0.00  0.00    +0.000 A 
ATOM     31  C   UNL     1       1.330   2.839  21.158  0.00  0.00    +0.000 A 
ATOM     32  C   UNL     1       2.117   3.950  21.440  0.00  0.00    +0.000 A 
ATOM     33  C   UNL     1       2.458   4.843  20.425  0.00  0.00    +0.000 A 
ENDBRANCH  27  28
ENDBRANCH  20  27
ENDBRANCH  18  20
ENDBRANCH   1  18
TORSDOF 14
ENDMDL
