MODEL 1
REMARK VINA RESULT:      -8.4      0.000      0.000
REMARK  Name = 
REMARK  4 active torsions:
REMARK  status: ('A' for Active; 'I' for Inactive)
REMARK    1  A    between atoms: N_1  and  C_2
REMARK    2  A    between atoms: C_5  and  C_6
REMARK    3  A    between atoms: C_7  and  O_8
REMARK    4  A    between atoms: C_22  and  O_23
REMARK                            x       y       z     vdW  Elec       q    Type
REMARK                         _______ _______ _______ _____ _____    ______ ____
ROOT
ATOM      1  C   UNL     1       3.984   4.523  18.935  0.00  0.00    +0.000 A 
ATOM      2  C   UNL     1       4.073   3.293  19.659  0.00  0.00    +0.000 A 
ATOM      3  C   UNL     1       3.254   2.969  20.737  0.00  0.00    +0.000 A 
ATOM      4  C   UNL     1       2.351   3.899  21.210  0.00  0.00    +0.000 A 
ATOM      5  C   UNL     1       2.257   5.134  20.581  0.00  0.00    +0.000 A 
ATOM      6  N   UNL     1       1.382   6.057  21.195  0.00  0.00    +0.000 N 
ATOM      7  C   UNL     1       1.218   7.357  20.790  0.00  0.00    +0.000 A 
ATOM      8  O   UNL     1       0.493   8.107  21.436  0.00  0.00    +0.000 OA
ATOM      9  C   UNL     1       1.932   7.683  19.576  0.00  0.00    +0.000 A 
ATOM     10  S   UNL     1       1.838   9.255  18.925  0.00  0.00    +0.000 S 
ATOM     11  C   UNL     1       2.710   8.777  17.543  0.00  0.00    +0.000 A 
ATOM     12  C   UNL     1       3.021   7.433  17.578  0.00  0.00    +0.000 A 
ATOM     13  C   UNL     1       2.727   6.817  18.842  0.00  0.00    +0.000 A 
ATOM     14  C   UNL     1       3.015   5.468  19.414  0.00  0.00    +0.000 A 
ATOM     15  H   UNL     1       0.879   5.805  22.033  0.00  0.00    +0.000 HD
ENDROOT
BRANCH   1  19
ATOM     16  C   UNL     1       6.555   5.172  15.482  0.00  0.00    +0.000 A 
ATOM     17  C   UNL     1       5.522   4.244  15.435  0.00  0.00    +0.000 A 
ATOM     18  C   UNL     1       4.661   4.092  16.531  0.00  0.00    +0.000 A 
ATOM     19  C   UNL     1       4.895   4.734  17.770  0.00  0.00    +0.000 A 
ATOM     20  C   UNL     1       6.044   5.534  17.846  0.00  0.00    +0.000 A 
ATOM     21  C   UNL     1       6.804   5.809  16.702  0.00  0.00    +0.000 A 
BRANCH  16  22
ATOM     22  N   UNL     1       7.444   5.308  14.409  0.00  0.00    +0.000 N 
ATOM     23  H   UNL     1       8.366   5.642  14.663  0.00  0.00    +0.000 HD
ATOM     24  H   UNL     1       7.462   4.457  13.847  0.00  0.00    +0.000 HD
ENDBRANCH  16  22
BRANCH  21  25
ATOM     25  O   UNL     1       7.772   6.782  16.736  0.00  0.00    +0.000 OA
ATOM     26  H   UNL     1       7.656   7.292  17.556  0.00  0.00    +0.000 HD
ENDBRANCH  21  25
ENDBRANCH   1  19
BRANCH   2  27
ATOM     27  O   UNL     1       4.999   2.311  19.385  0.00  0.00    +0.000 OA
ATOM     28  H   UNL     1       4.759   1.507  19.880  0.00  0.00    +0.000 HD
ENDBRANCH   2  27
TORSDOF 4
ENDMDL
MODEL 2
REMARK VINA RESULT:      -8.0      0.949      1.368
REMARK  Name = 
REMARK  4 active torsions:
REMARK  status: ('A' for Active; 'I' for Inactive)
REMARK    1  A    between atoms: N_1  and  C_2
REMARK    2  A    between atoms: C_5  and  C_6
REMARK    3  A    between atoms: C_7  and  O_8
REMARK    4  A    between atoms: C_22  and  O_23
REMARK                            x       y       z     vdW  Elec       q    Type
REMARK                         _______ _______ _______ _____ _____    ______ ____
ROOT
ATOM      1  C   UNL     1       4.047   4.522  18.929  0.00  0.00    +0.000 A 
ATOM      2  C   UNL     1       4.126   3.279  19.633  0.00  0.00    +0.000 A 
ATOM      3  C   UNL     1       3.284   2.933  20.686  0.00  0.00    +0.000 A 
ATOM      4  C   UNL     1       2.366   3.851  21.155  0.00  0.00    +0.000 A 
ATOM      5  C   UNL     1       2.281   5.097  20.546  0.00  0.00    +0.000 A 
ATOM      6  N   UNL     1       1.389   6.005  21.157  0.00  0.00    +0.000 N 
ATOM      7  C   UNL     1       1.228   7.312  20.771  0.00  0.00    +0.000 A 
ATOM      8  O   UNL     1       0.485   8.047  21.414  0.00  0.00    +0.000 OA
ATOM      9  C   UNL     1       1.968   7.662  19.580  0.00  0.00    +0.000 A 
ATOM     10  S   UNL     1       1.881   9.244  18.955  0.00  0.00    +0.000 S 
ATOM     11  C   UNL     1       2.785   8.795  17.585  0.00  0.00    +0.000 A 
ATOM     12  C   UNL     1       3.103   7.452  17.602  0.00  0.00    +0.000 A 
ATOM     13  C   UNL     1       2.782   6.812  18.848  0.00  0.00    +0.000 A 
ATOM     14  C   UNL     1       3.064   5.454  19.402  0.00  0.00    +0.000 A 
ATOM     15  H   UNL     1       0.868   5.736  21.979  0.00  0.00    +0.000 HD
ENDROOT
BRANCH   1  19
ATOM     16  C   UNL     1       6.849   5.156  15.658  0.00  0.00    +0.000 A 
ATOM     17  C   UNL     1       7.105   5.669  16.923  0.00  0.00    +0.000 A 
ATOM     18  C   UNL     1       6.227   5.402  17.983  0.00  0.00    +0.000 A 
ATOM     19  C   UNL     1       4.983   4.758  17.788  0.00  0.00    +0.000 A 
ATOM     20  C   UNL     1       4.670   4.401  16.469  0.00  0.00    +0.000 A 
ATOM     21  C   UNL     1       5.619   4.524  15.448  0.00  0.00    +0.000 A 
BRANCH  16  22
ATOM     22  N   UNL     1       7.698   5.447  14.583  0.00  0.00    +0.000 N 
ATOM     23  H   UNL     1       7.227   5.784  13.751  0.00  0.00    +0.000 HD
ATOM     24  H   UNL     1       8.467   6.044  14.883  0.00  0.00    +0.000 HD
ENDBRANCH  16  22
BRANCH  21  25
ATOM     25  O   UNL     1       5.392   3.948  14.223  0.00  0.00    +0.000 OA
ATOM     26  H   UNL     1       5.142   4.653  13.601  0.00  0.00    +0.000 HD
ENDBRANCH  21  25
ENDBRANCH   1  19
BRANCH   2  27
ATOM     27  O   UNL     1       5.062   2.306  19.362  0.00  0.00    +0.000 OA
ATOM     28  H   UNL     1       5.174   1.751  20.155  0.00  0.00    +0.000 HD
ENDBRANCH   2  27
TORSDOF 4
ENDMDL
MODEL 3
REMARK VINA RESULT:      -6.7      2.521      5.947
REMARK  Name = 
REMARK  4 active torsions:
REMARK  status: ('A' for Active; 'I' for Inactive)
REMARK    1  A    between atoms: N_1  and  C_2
REMARK    2  A    between atoms: C_5  and  C_6
REMARK    3  A    between atoms: C_7  and  O_8
REMARK    4  A    between atoms: C_22  and  O_23
REMARK                            x       y       z     vdW  Elec       q    Type
REMARK                         _______ _______ _______ _____ _____    ______ ____
ROOT
ATOM      1  C   UNL     1       3.679   6.118  17.624  0.00  0.00    +0.000 A 
ATOM      2  C   UNL     1       4.712   6.492  16.709  0.00  0.00    +0.000 A 
ATOM      3  C   UNL     1       5.516   5.578  16.034  0.00  0.00    +0.000 A 
ATOM      4  C   UNL     1       5.388   4.230  16.302  0.00  0.00    +0.000 A 
ATOM      5  C   UNL     1       4.437   3.809  17.224  0.00  0.00    +0.000 A 
ATOM      6  N   UNL     1       4.448   2.427  17.511  0.00  0.00    +0.000 N 
ATOM      7  C   UNL     1       3.659   1.825  18.458  0.00  0.00    +0.000 A 
ATOM      8  O   UNL     1       3.795   0.628  18.691  0.00  0.00    +0.000 OA
ATOM      9  C   UNL     1       2.698   2.717  19.067  0.00  0.00    +0.000 A 
ATOM     10  S   UNL     1       1.632   2.137  20.262  0.00  0.00    +0.000 S 
ATOM     11  C   UNL     1       0.800   3.622  20.296  0.00  0.00    +0.000 A 
ATOM     12  C   UNL     1       1.314   4.515  19.378  0.00  0.00    +0.000 A 
ATOM     13  C   UNL     1       2.537   4.062  18.774  0.00  0.00    +0.000 A 
ATOM     14  C   UNL     1       3.531   4.711  17.868  0.00  0.00    +0.000 A 
ATOM     15  H   UNL     1       5.116   1.816  17.062  0.00  0.00    +0.000 HD
ENDROOT
BRANCH   1  19
ATOM     16  C   UNL     1       1.205   9.227  19.404  0.00  0.00    +0.000 A 
ATOM     17  C   UNL     1       1.493   9.238  18.045  0.00  0.00    +0.000 A 
ATOM     18  C   UNL     1       2.236   8.196  17.473  0.00  0.00    +0.000 A 
ATOM     19  C   UNL     1       2.858   7.195  18.256  0.00  0.00    +0.000 A 
ATOM     20  C   UNL     1       2.695   7.304  19.644  0.00  0.00    +0.000 A 
ATOM     21  C   UNL     1       1.820   8.249  20.192  0.00  0.00    +0.000 A 
BRANCH  16  22
ATOM     22  N   UNL     1       0.496  10.281  19.993  0.00  0.00    +0.000 N 
ATOM     23  H   UNL     1      -0.509  10.153  20.018  0.00  0.00    +0.000 HD
ATOM     24  H   UNL     1       0.896  10.521  20.899  0.00  0.00    +0.000 HD
ENDBRANCH  16  22
BRANCH  21  25
ATOM     25  O   UNL     1       1.481   8.185  21.521  0.00  0.00    +0.000 OA
ATOM     26  H   UNL     1       2.032   8.825  22.003  0.00  0.00    +0.000 HD
ENDBRANCH  21  25
ENDBRANCH   1  19
BRANCH   2  27
ATOM     27  O   UNL     1       5.042   7.798  16.422  0.00  0.00    +0.000 OA
ATOM     28  H   UNL     1       4.273   8.365  16.614  0.00  0.00    +0.000 HD
ENDBRANCH   2  27
TORSDOF 4
ENDMDL
MODEL 4
REMARK VINA RESULT:      -6.6      2.677      6.027
REMARK  Name = 
REMARK  4 active torsions:
REMARK  status: ('A' for Active; 'I' for Inactive)
REMARK    1  A    between atoms: N_1  and  C_2
REMARK    2  A    between atoms: C_5  and  C_6
REMARK    3  A    between atoms: C_7  and  O_8
REMARK    4  A    between atoms: C_22  and  O_23
REMARK                            x       y       z     vdW  Elec       q    Type
REMARK                         _______ _______ _______ _____ _____    ______ ____
ROOT
ATOM      1  C   UNL     1       3.626   6.240  17.837  0.00  0.00    +0.000 A 
ATOM      2  C   UNL     1       4.697   6.698  17.009  0.00  0.00    +0.000 A 
ATOM      3  C   UNL     1       5.568   5.849  16.331  0.00  0.00    +0.000 A 
ATOM      4  C   UNL     1       5.469   4.485  16.513  0.00  0.00    +0.000 A 
ATOM      5  C   UNL     1       4.481   3.982  17.351  0.00  0.00    +0.000 A 
ATOM      6  N   UNL     1       4.521   2.586  17.557  0.00  0.00    +0.000 N 
ATOM      7  C   UNL     1       3.698   1.906  18.419  0.00  0.00    +0.000 A 
ATOM      8  O   UNL     1       3.860   0.702  18.590  0.00  0.00    +0.000 OA
ATOM      9  C   UNL     1       2.675   2.732  19.020  0.00  0.00    +0.000 A 
ATOM     10  S   UNL     1       1.561   2.050  20.114  0.00  0.00    +0.000 S 
ATOM     11  C   UNL     1       0.680   3.505  20.183  0.00  0.00    +0.000 A 
ATOM     12  C   UNL     1       1.217   4.466  19.350  0.00  0.00    +0.000 A 
ATOM     13  C   UNL     1       2.487   4.086  18.796  0.00  0.00    +0.000 A 
ATOM     14  C   UNL     1       3.510   4.817  17.989  0.00  0.00    +0.000 A 
ATOM     15  H   UNL     1       5.233   2.023  17.115  0.00  0.00    +0.000 HD
ENDROOT
BRANCH   1  19
ATOM     16  C   UNL     1       1.109   9.218  19.773  0.00  0.00    +0.000 A 
ATOM     17  C   UNL     1       1.624   8.147  20.492  0.00  0.00    +0.000 A 
ATOM     18  C   UNL     1       2.486   7.231  19.872  0.00  0.00    +0.000 A 
ATOM     19  C   UNL     1       2.734   7.253  18.479  0.00  0.00    +0.000 A 
ATOM     20  C   UNL     1       2.065   8.242  17.745  0.00  0.00    +0.000 A 
ATOM     21  C   UNL     1       1.339   9.248  18.393  0.00  0.00    +0.000 A 
BRANCH  16  22
ATOM     22  N   UNL     1       0.218  10.119  20.370  0.00  0.00    +0.000 N 
ATOM     23  H   UNL     1      -0.577   9.687  20.827  0.00  0.00    +0.000 HD
ATOM     24  H   UNL     1       0.718  10.778  20.965  0.00  0.00    +0.000 HD
ENDBRANCH  16  22
BRANCH  21  25
ATOM     25  O   UNL     1       0.899  10.342  17.690  0.00  0.00    +0.000 OA
ATOM     26  H   UNL     1       0.056  10.631  18.080  0.00  0.00    +0.000 HD
ENDBRANCH  21  25
ENDBRANCH   1  19
BRANCH   2  27
ATOM     27  O   UNL     1       5.000   8.028  16.818  0.00  0.00    +0.000 OA
ATOM     28  H   UNL     1       5.369   8.140  15.923  0.00  0.00    +0.000 HD
ENDBRANCH   2  27
TORSDOF 4
ENDMDL
MODEL 5
REMARK VINA RESULT:      -6.3      7.363     10.737
REMARK  Name = 
REMARK  4 active torsions:
REMARK  status: ('A' for Active; 'I' for Inactive)
REMARK    1  A    between atoms: N_1  and  C_2
REMARK    2  A    between atoms: C_5  and  C_6
REMARK    3  A    between atoms: C_7  and  O_8
REMARK    4  A    between atoms: C_22  and  O_23
REMARK                            x       y       z     vdW  Elec       q    Type
REMARK                         _______ _______ _______ _____ _____    ______ ____
ROOT
ATOM      1  C   UNL     1      -1.238  11.933  20.535  0.00  0.00    +0.000 A 
ATOM      2  C   UNL     1       0.141  11.575  20.652  0.00  0.00    +0.000 A 
ATOM      3  C   UNL     1       0.873  10.973  19.632  0.00  0.00    +0.000 A 
ATOM      4  C   UNL     1       0.240  10.615  18.459  0.00  0.00    +0.000 A 
ATOM      5  C   UNL     1      -1.114  10.888  18.308  0.00  0.00    +0.000 A 
ATOM      6  N   UNL     1      -1.698  10.395  17.122  0.00  0.00    +0.000 N 
ATOM      7  C   UNL     1      -3.035  10.474  16.825  0.00  0.00    +0.000 A 
ATOM      8  O   UNL     1      -3.463   9.946  15.803  0.00  0.00    +0.000 OA
ATOM      9  C   UNL     1      -3.801  11.234  17.788  0.00  0.00    +0.000 A 
ATOM     10  S   UNL     1      -5.479  11.439  17.574  0.00  0.00    +0.000 S 
ATOM     11  C   UNL     1      -5.556  12.506  18.897  0.00  0.00    +0.000 A 
ATOM     12  C   UNL     1      -4.311  12.722  19.452  0.00  0.00    +0.000 A 
ATOM     13  C   UNL     1      -3.299  11.848  18.924  0.00  0.00    +0.000 A 
ATOM     14  C   UNL     1      -1.876  11.589  19.296  0.00  0.00    +0.000 A 
ATOM     15  H   UNL     1      -1.143   9.881  16.453  0.00  0.00    +0.000 HD
ENDROOT
BRANCH   1  19
ATOM     16  C   UNL     1      -3.223  13.970  23.831  0.00  0.00    +0.000 A 
ATOM     17  C   UNL     1      -2.388  14.665  22.965  0.00  0.00    +0.000 A 
ATOM     18  C   UNL     1      -1.807  14.011  21.870  0.00  0.00    +0.000 A 
ATOM     19  C   UNL     1      -1.901  12.611  21.690  0.00  0.00    +0.000 A 
ATOM     20  C   UNL     1      -2.607  11.906  22.675  0.00  0.00    +0.000 A 
ATOM     21  C   UNL     1      -3.319  12.584  23.672  0.00  0.00    +0.000 A 
BRANCH  16  22
ATOM     22  N   UNL     1      -3.779  14.603  24.950  0.00  0.00    +0.000 N 
ATOM     23  H   UNL     1      -3.465  14.238  25.842  0.00  0.00    +0.000 HD
ATOM     24  H   UNL     1      -3.690  15.615  24.872  0.00  0.00    +0.000 HD
ENDBRANCH  16  22
BRANCH  21  25
ATOM     25  O   UNL     1      -4.200  11.902  24.473  0.00  0.00    +0.000 OA
ATOM     26  H   UNL     1      -5.060  11.877  24.020  0.00  0.00    +0.000 HD
ENDBRANCH  21  25
ENDBRANCH   1  19
BRANCH   2  27
ATOM     27  O   UNL     1       0.884  11.759  21.797  0.00  0.00    +0.000 OA
ATOM     28  H   UNL     1       0.290  12.052  22.512  0.00  0.00    +0.000 HD
ENDBRANCH   2  27
TORSDOF 4
ENDMDL
MODEL 6
REMARK VINA RESULT:      -6.1      2.328      3.843
REMARK  Name = 
REMARK  4 active torsions:
REMARK  status: ('A' for Active; 'I' for Inactive)
REMARK    1  A    between atoms: N_1  and  C_2
REMARK    2  A    between atoms: C_5  and  C_6
REMARK    3  A    between atoms: C_7  and  O_8
REMARK    4  A    between atoms: C_22  and  O_23
REMARK                            x       y       z     vdW  Elec       q    Type
REMARK                         _______ _______ _______ _____ _____    ______ ____
ROOT
ATOM      1  C   UNL     1       3.535   6.223  18.524  0.00  0.00    +0.000 A 
ATOM      2  C   UNL     1       2.857   7.482  18.503  0.00  0.00    +0.000 A 
ATOM      3  C   UNL     1       1.873   7.845  19.419  0.00  0.00    +0.000 A 
ATOM      4  C   UNL     1       1.448   6.930  20.361  0.00  0.00    +0.000 A 
ATOM      5  C   UNL     1       2.032   5.670  20.395  0.00  0.00    +0.000 A 
ATOM      6  N   UNL     1       1.465   4.769  21.322  0.00  0.00    +0.000 N 
ATOM      7  C   UNL     1       1.830   3.452  21.447  0.00  0.00    +0.000 A 
ATOM      8  O   UNL     1       1.224   2.725  22.227  0.00  0.00    +0.000 OA
ATOM      9  C   UNL     1       2.959   3.081  20.623  0.00  0.00    +0.000 A 
ATOM     10  S   UNL     1       3.552   1.484  20.655  0.00  0.00    +0.000 S 
ATOM     11  C   UNL     1       4.865   1.910  19.660  0.00  0.00    +0.000 A 
ATOM     12  C   UNL     1       4.857   3.256  19.354  0.00  0.00    +0.000 A 
ATOM     13  C   UNL     1       3.651   3.921  19.765  0.00  0.00    +0.000 A 
ATOM     14  C   UNL     1       3.110   5.294  19.532  0.00  0.00    +0.000 A 
ATOM     15  H   UNL     1       0.687   5.051  21.901  0.00  0.00    +0.000 HD
ENDROOT
BRANCH   1  19
ATOM     16  C   UNL     1       6.577   5.515  15.491  0.00  0.00    +0.000 A 
ATOM     17  C   UNL     1       5.381   4.809  15.477  0.00  0.00    +0.000 A 
ATOM     18  C   UNL     1       4.383   5.093  16.420  0.00  0.00    +0.000 A 
ATOM     19  C   UNL     1       4.602   5.969  17.509  0.00  0.00    +0.000 A 
ATOM     20  C   UNL     1       5.880   6.540  17.598  0.00  0.00    +0.000 A 
ATOM     21  C   UNL     1       6.811   6.379  16.566  0.00  0.00    +0.000 A 
BRANCH  16  22
ATOM     22  N   UNL     1       7.596   5.216  14.578  0.00  0.00    +0.000 N 
ATOM     23  H   UNL     1       7.444   4.372  14.036  0.00  0.00    +0.000 HD
ATOM     24  H   UNL     1       7.817   6.030  14.006  0.00  0.00    +0.000 HD
ENDBRANCH  16  22
BRANCH  21  25
ATOM     25  O   UNL     1       7.956   7.137  16.547  0.00  0.00    +0.000 OA
ATOM     26  H   UNL     1       7.774   7.941  16.031  0.00  0.00    +0.000 HD
ENDBRANCH  21  25
ENDBRANCH   1  19
BRANCH   2  27
ATOM     27  O   UNL     1       3.083   8.456  17.557  0.00  0.00    +0.000 OA
ATOM     28  H   UNL     1       2.669   8.182  16.719  0.00  0.00    +0.000 HD
ENDBRANCH   2  27
TORSDOF 4
ENDMDL
MODEL 7
REMARK VINA RESULT:      -6.1      8.156     10.119
REMARK  Name = 
REMARK  4 active torsions:
REMARK  status: ('A' for Active; 'I' for Inactive)
REMARK    1  A    between atoms: N_1  and  C_2
REMARK    2  A    between atoms: C_5  and  C_6
REMARK    3  A    between atoms: C_7  and  O_8
REMARK    4  A    between atoms: C_22  and  O_23
REMARK                            x       y       z     vdW  Elec       q    Type
REMARK                         _______ _______ _______ _____ _____    ______ ____
ROOT
ATOM      1  C   UNL     1      -2.735  11.956  18.732  0.00  0.00    +0.000 A 
ATOM      2  C   UNL     1      -2.863  11.368  17.435  0.00  0.00    +0.000 A 
ATOM      3  C   UNL     1      -4.084  11.057  16.844  0.00  0.00    +0.000 A 
ATOM      4  C   UNL     1      -5.252  11.239  17.557  0.00  0.00    +0.000 A 
ATOM      5  C   UNL     1      -5.187  11.756  18.845  0.00  0.00    +0.000 A 
ATOM      6  N   UNL     1      -6.418  11.810  19.534  0.00  0.00    +0.000 N 
ATOM      7  C   UNL     1      -6.558  12.196  20.843  0.00  0.00    +0.000 A 
ATOM      8  O   UNL     1      -7.659  12.135  21.380  0.00  0.00    +0.000 OA
ATOM      9  C   UNL     1      -5.333  12.678  21.442  0.00  0.00    +0.000 A 
ATOM     10  S   UNL     1      -5.323  13.205  23.062  0.00  0.00    +0.000 S 
ATOM     11  C   UNL     1      -3.712  13.737  22.920  0.00  0.00    +0.000 A 
ATOM     12  C   UNL     1      -3.223  13.546  21.643  0.00  0.00    +0.000 A 
ATOM     13  C   UNL     1      -4.100  12.766  20.813  0.00  0.00    +0.000 A 
ATOM     14  C   UNL     1      -3.959  12.174  19.450  0.00  0.00    +0.000 A 
ATOM     15  H   UNL     1      -7.266  11.484  19.094  0.00  0.00    +0.000 HD
ENDROOT
BRANCH   1  19
ATOM     16  C   UNL     1       1.213  12.987  20.250  0.00  0.00    +0.000 A 
ATOM     17  C   UNL     1       0.581  13.790  19.309  0.00  0.00    +0.000 A 
ATOM     18  C   UNL     1      -0.717  13.482  18.877  0.00  0.00    +0.000 A 
ATOM     19  C   UNL     1      -1.367  12.279  19.240  0.00  0.00    +0.000 A 
ATOM     20  C   UNL     1      -0.638  11.402  20.055  0.00  0.00    +0.000 A 
ATOM     21  C   UNL     1       0.586  11.790  20.612  0.00  0.00    +0.000 A 
BRANCH  16  22
ATOM     22  N   UNL     1       2.523  13.263  20.662  0.00  0.00    +0.000 N 
ATOM     23  H   UNL     1       3.108  13.688  19.952  0.00  0.00    +0.000 HD
ATOM     24  H   UNL     1       2.523  13.772  21.545  0.00  0.00    +0.000 HD
ENDBRANCH  16  22
BRANCH  21  25
ATOM     25  O   UNL     1       1.167  11.031  21.597  0.00  0.00    +0.000 OA
ATOM     26  H   UNL     1       2.009  11.451  21.843  0.00  0.00    +0.000 HD
ENDBRANCH  21  25
ENDBRANCH   1  19
BRANCH   2  27
ATOM     27  O   UNL     1      -1.790  11.019  16.645  0.00  0.00    +0.000 OA
ATOM     28  H   UNL     1      -1.946  11.348  15.742  0.00  0.00    +0.000 HD
ENDBRANCH   2  27
TORSDOF 4
ENDMDL
MODEL 8
REMARK VINA RESULT:      -6.1      2.500      4.048
REMARK  Name = 
REMARK  4 active torsions:
REMARK  status: ('A' for Active; 'I' for Inactive)
REMARK    1  A    between atoms: N_1  and  C_2
REMARK    2  A    between atoms: C_5  and  C_6
REMARK    3  A    between atoms: C_7  and  O_8
REMARK    4  A    between atoms: C_22  and  O_23
REMARK                            x       y       z     vdW  Elec       q    Type
REMARK                         _______ _______ _______ _____ _____    ______ ____
ROOT
ATOM      1  C   UNL     1       3.630   6.341  18.376  0.00  0.00    +0.000 A 
ATOM      2  C   UNL     1       2.949   7.596  18.313  0.00  0.00    +0.000 A 
ATOM      3  C   UNL     1       1.955   7.983  19.208  0.00  0.00    +0.000 A 
ATOM      4  C   UNL     1       1.523   7.094  20.172  0.00  0.00    +0.000 A 
ATOM      5  C   UNL     1       2.111   5.837  20.247  0.00  0.00    +0.000 A 
ATOM      6  N   UNL     1       1.536   4.961  21.193  0.00  0.00    +0.000 N 
ATOM      7  C   UNL     1       1.904   3.649  21.359  0.00  0.00    +0.000 A 
ATOM      8  O   UNL     1       1.292   2.943  22.154  0.00  0.00    +0.000 OA
ATOM      9  C   UNL     1       3.042   3.258  20.557  0.00  0.00    +0.000 A 
ATOM     10  S   UNL     1       3.638   1.665  20.640  0.00  0.00    +0.000 S 
ATOM     11  C   UNL     1       4.960   2.066  19.646  0.00  0.00    +0.000 A 
ATOM     12  C   UNL     1       4.951   3.403  19.302  0.00  0.00    +0.000 A 
ATOM     13  C   UNL     1       3.740   4.076  19.682  0.00  0.00    +0.000 A 
ATOM     14  C   UNL     1       3.198   5.439  19.405  0.00  0.00    +0.000 A 
ATOM     15  H   UNL     1       0.752   5.257  21.756  0.00  0.00    +0.000 HD
ENDROOT
BRANCH   1  19
ATOM     16  C   UNL     1       6.826   5.479  15.548  0.00  0.00    +0.000 A 
ATOM     17  C   UNL     1       7.051   6.297  16.647  0.00  0.00    +0.000 A 
ATOM     18  C   UNL     1       6.032   6.514  17.586  0.00  0.00    +0.000 A 
ATOM     19  C   UNL     1       4.708   6.061  17.378  0.00  0.00    +0.000 A 
ATOM     20  C   UNL     1       4.465   5.384  16.175  0.00  0.00    +0.000 A 
ATOM     21  C   UNL     1       5.520   5.031  15.325  0.00  0.00    +0.000 A 
BRANCH  16  22
ATOM     22  N   UNL     1       7.824   5.285  14.584  0.00  0.00    +0.000 N 
ATOM     23  H   UNL     1       8.469   6.059  14.482  0.00  0.00    +0.000 HD
ATOM     24  H   UNL     1       8.287   4.387  14.722  0.00  0.00    +0.000 HD
ENDBRANCH  16  22
BRANCH  21  25
ATOM     25  O   UNL     1       5.305   4.161  14.285  0.00  0.00    +0.000 OA
ATOM     26  H   UNL     1       4.534   4.478  13.783  0.00  0.00    +0.000 HD
ENDBRANCH  21  25
ENDBRANCH   1  19
BRANCH   2  27
ATOM     27  O   UNL     1       3.182   8.545  17.341  0.00  0.00    +0.000 OA
ATOM     28  H   UNL     1       2.726   8.275  16.524  0.00  0.00    +0.000 HD
ENDBRANCH   2  27
TORSDOF 4
ENDMDL
MODEL 9
REMARK VINA RESULT:      -6.0      9.194     12.519
REMARK  Name = 
REMARK  4 active torsions:
REMARK  status: ('A' for Active; 'I' for Inactive)
REMARK    1  A    between atoms: N_1  and  C_2
REMARK    2  A    between atoms: C_5  and  C_6
REMARK    3  A    between atoms: C_7  and  O_8
REMARK    4  A    between atoms: C_22  and  O_23
REMARK                            x       y       z     vdW  Elec       q    Type
REMARK                         _______ _______ _______ _____ _____    ______ ____
ROOT
ATOM      1  C   UNL     1      -5.463  12.809  20.440  0.00  0.00    +0.000 A 
ATOM      2  C   UNL     1      -6.870  12.771  20.192  0.00  0.00    +0.000 A 
ATOM      3  C   UNL     1      -7.441  12.189  19.064  0.00  0.00    +0.000 A 
ATOM      4  C   UNL     1      -6.626  11.683  18.071  0.00  0.00    +0.000 A 
ATOM      5  C   UNL     1      -5.246  11.742  18.231  0.00  0.00    +0.000 A 
ATOM      6  N   UNL     1      -4.493  11.296  17.123  0.00  0.00    +0.000 N 
ATOM      7  C   UNL     1      -3.125  11.359  17.040  0.00  0.00    +0.000 A 
ATOM      8  O   UNL     1      -2.564  11.020  16.003  0.00  0.00    +0.000 OA
ATOM      9  C   UNL     1      -2.488  11.811  18.257  0.00  0.00    +0.000 A 
ATOM     10  S   UNL     1      -0.792  11.945  18.334  0.00  0.00    +0.000 S 
ATOM     11  C   UNL     1      -0.857  12.307  19.996  0.00  0.00    +0.000 A 
ATOM     12  C   UNL     1      -2.152  12.281  20.472  0.00  0.00    +0.000 A 
ATOM     13  C   UNL     1      -3.135  12.165  19.430  0.00  0.00    +0.000 A 
ATOM     14  C   UNL     1      -4.626  12.247  19.418  0.00  0.00    +0.000 A 
ATOM     15  H   UNL     1      -4.956  10.969  16.288  0.00  0.00    +0.000 HD
ENDROOT
BRANCH   1  19
ATOM     16  C   UNL     1      -4.124  14.688  24.132  0.00  0.00    +0.000 A 
ATOM     17  C   UNL     1      -4.101  15.385  22.931  0.00  0.00    +0.000 A 
ATOM     18  C   UNL     1      -4.596  14.791  21.761  0.00  0.00    +0.000 A 
ATOM     19  C   UNL     1      -4.977  13.429  21.710  0.00  0.00    +0.000 A 
ATOM     20  C   UNL     1      -4.828  12.699  22.898  0.00  0.00    +0.000 A 
ATOM     21  C   UNL     1      -4.490  13.339  24.096  0.00  0.00    +0.000 A 
BRANCH  16  22
ATOM     22  N   UNL     1      -3.599  15.257  25.299  0.00  0.00    +0.000 N 
ATOM     23  H   UNL     1      -4.048  16.118  25.590  0.00  0.00    +0.000 HD
ATOM     24  H   UNL     1      -3.537  14.561  26.042  0.00  0.00    +0.000 HD
ENDBRANCH  16  22
BRANCH  21  25
ATOM     25  O   UNL     1      -4.589  12.666  25.288  0.00  0.00    +0.000 OA
ATOM     26  H   UNL     1      -5.531  12.496  25.460  0.00  0.00    +0.000 HD
ENDBRANCH  21  25
ENDBRANCH   1  19
BRANCH   2  27
ATOM     27  O   UNL     1      -7.809  13.334  21.028  0.00  0.00    +0.000 OA
ATOM     28  H   UNL     1      -7.670  14.298  21.051  0.00  0.00    +0.000 HD
ENDBRANCH   2  27
TORSDOF 4
ENDMDL
