MODEL 1
REMARK VINA RESULT:      -7.4      0.000      0.000
REMARK  Name = 
REMARK  8 active torsions:
REMARK  status: ('A' for Active; 'I' for Inactive)
REMARK    1  A    between atoms: C_1  and  C_2
REMARK    2  A    between atoms: C_2  and  O_3
REMARK    3  A    between atoms: O_3  and  C_4
REMARK    4  A    between atoms: C_7  and  C_8
REMARK    5  A    between atoms: C_8  and  N_9
REMARK    6  A    between atoms: C_10  and  C_12
REMARK    7  A    between atoms: C_17  and  N_18
REMARK    8  A    between atoms: C_19  and  C_21
REMARK                            x       y       z     vdW  Elec       q    Type
REMARK                         _______ _______ _______ _____ _____    ______ ____
ROOT
ATOM      1  C   UNL     1       3.048   3.777  18.087  0.00  0.00    +0.000 A 
ATOM      2  C   UNL     1       3.055   2.357  18.091  0.00  0.00    +0.000 A 
ATOM      3  C   UNL     1       2.089   1.635  18.780  0.00  0.00    +0.000 A 
ATOM      4  C   UNL     1       1.076   2.307  19.440  0.00  0.00    +0.000 A 
ATOM      5  C   UNL     1       1.036   3.706  19.410  0.00  0.00    +0.000 A 
ATOM      6  C   UNL     1       2.020   4.475  18.760  0.00  0.00    +0.000 A 
ENDROOT
BRANCH   1   8
ATOM      7  N   UNL     1       5.347   3.768  17.267  0.00  0.00    +0.000 N 
ATOM      8  C   UNL     1       4.156   4.471  17.356  0.00  0.00    +0.000 C 
ATOM      9  O   UNL     1       3.979   5.585  16.882  0.00  0.00    +0.000 OA
ATOM     10  H   UNL     1       5.504   2.985  17.887  0.00  0.00    +0.000 HD
BRANCH   7  11
ATOM     11  C   UNL     1       6.498   4.256  16.540  0.00  0.00    +0.000 C 
BRANCH  11  15
ATOM     12  C   UNL     1       8.283   7.691  18.526  0.00  0.00    +0.000 A 
ATOM     13  C   UNL     1       8.227   6.441  19.146  0.00  0.00    +0.000 A 
ATOM     14  C   UNL     1       7.636   5.348  18.499  0.00  0.00    +0.000 A 
ATOM     15  C   UNL     1       7.101   5.470  17.214  0.00  0.00    +0.000 A 
ATOM     16  C   UNL     1       7.138   6.731  16.599  0.00  0.00    +0.000 A 
ATOM     17  C   UNL     1       7.726   7.829  17.250  0.00  0.00    +0.000 A 
BRANCH  12  18
ATOM     18  O   UNL     1       8.843   8.817  19.075  0.00  0.00    +0.000 OA
BRANCH  18  20
ATOM     19  C   UNL     1       9.704  11.061  18.726  0.00  0.00    +0.000 C 
ATOM     20  C   UNL     1       8.682  10.023  18.308  0.00  0.00    +0.000 C 
ENDBRANCH  18  20
ENDBRANCH  12  18
ENDBRANCH  11  15
ENDBRANCH   7  11
ENDBRANCH   1   8
BRANCH   6  21
ATOM     21  N   UNL     1       1.947   5.907  18.780  0.00  0.00    +0.000 N 
ATOM     22  C   UNL     1       1.978   6.677  19.934  0.00  0.00    +0.000 C 
ATOM     23  O   UNL     1       2.234   6.231  21.053  0.00  0.00    +0.000 OA
ATOM     24  H   UNL     1       1.933   6.382  17.878  0.00  0.00    +0.000 HD
BRANCH  22  25
ATOM     25  C   UNL     1       1.677   8.156  19.780  0.00  0.00    +0.000 C 
ATOM     26  C   UNL     1       1.149   8.729  20.881  0.00  0.00    +0.000 C 
ATOM     27  S   UNL     1       0.618  10.361  21.021  0.00  0.00    +0.000 S 
ATOM     28  C   UNL     1       1.227  11.037  19.468  0.00  0.00    +0.000 C 
ATOM     29  C   UNL     1       1.234  10.014  18.338  0.00  0.00    +0.000 C 
ATOM     30  O   UNL     1       1.928   8.782  18.578  0.00  0.00    +0.000 OA
ENDBRANCH  22  25
ENDBRANCH   6  21
TORSDOF 7
ENDMDL
MODEL 2
REMARK VINA RESULT:      -7.3      3.443      7.471
REMARK  Name = 
REMARK  8 active torsions:
REMARK  status: ('A' for Active; 'I' for Inactive)
REMARK    1  A    between atoms: C_1  and  C_2
REMARK    2  A    between atoms: C_2  and  O_3
REMARK    3  A    between atoms: O_3  and  C_4
REMARK    4  A    between atoms: C_7  and  C_8
REMARK    5  A    between atoms: C_8  and  N_9
REMARK    6  A    between atoms: C_10  and  C_12
REMARK    7  A    between atoms: C_17  and  N_18
REMARK    8  A    between atoms: C_19  and  C_21
REMARK                            x       y       z     vdW  Elec       q    Type
REMARK                         _______ _______ _______ _____ _____    ______ ____
ROOT
ATOM      1  C   UNL     1       2.581   4.564  20.034  0.00  0.00    +0.000 A 
ATOM      2  C   UNL     1       1.904   4.354  21.265  0.00  0.00    +0.000 A 
ATOM      3  C   UNL     1       2.044   3.164  21.969  0.00  0.00    +0.000 A 
ATOM      4  C   UNL     1       2.888   2.181  21.487  0.00  0.00    +0.000 A 
ATOM      5  C   UNL     1       3.591   2.392  20.295  0.00  0.00    +0.000 A 
ATOM      6  C   UNL     1       3.445   3.566  19.530  0.00  0.00    +0.000 A 
ENDROOT
BRANCH   1   8
ATOM      7  N   UNL     1       2.072   6.949  20.137  0.00  0.00    +0.000 N 
ATOM      8  C   UNL     1       2.334   5.858  19.323  0.00  0.00    +0.000 C 
ATOM      9  O   UNL     1       2.373   5.907  18.101  0.00  0.00    +0.000 OA
ATOM     10  H   UNL     1       1.806   6.792  21.099  0.00  0.00    +0.000 HD
BRANCH   7  11
ATOM     11  C   UNL     1       1.879   8.287  19.625  0.00  0.00    +0.000 C 
BRANCH  11  15
ATOM     12  C   UNL     1      -0.367  10.797  22.379  0.00  0.00    +0.000 A 
ATOM     13  C   UNL     1      -0.118  11.201  21.065  0.00  0.00    +0.000 A 
ATOM     14  C   UNL     1       0.619  10.388  20.195  0.00  0.00    +0.000 A 
ATOM     15  C   UNL     1       1.113   9.147  20.607  0.00  0.00    +0.000 A 
ATOM     16  C   UNL     1       0.881   8.750  21.933  0.00  0.00    +0.000 A 
ATOM     17  C   UNL     1       0.146   9.569  22.808  0.00  0.00    +0.000 A 
BRANCH  12  18
ATOM     18  O   UNL     1      -1.079  11.520  23.302  0.00  0.00    +0.000 OA
BRANCH  18  20
ATOM     19  C   UNL     1      -2.406  13.536  23.023  0.00  0.00    +0.000 C 
ATOM     20  C   UNL     1      -2.343  12.032  22.844  0.00  0.00    +0.000 C 
ENDBRANCH  18  20
ENDBRANCH  12  18
ENDBRANCH  11  15
ENDBRANCH   7  11
ENDBRANCH   1   8
BRANCH   6  21
ATOM     21  N   UNL     1       4.169   3.722  18.303  0.00  0.00    +0.000 N 
ATOM     22  C   UNL     1       5.449   4.247  18.210  0.00  0.00    +0.000 C 
ATOM     23  O   UNL     1       6.168   4.485  19.182  0.00  0.00    +0.000 OA
ATOM     24  H   UNL     1       3.727   3.363  17.457  0.00  0.00    +0.000 HD
BRANCH  22  25
ATOM     25  C   UNL     1       5.975   4.533  16.816  0.00  0.00    +0.000 C 
ATOM     26  C   UNL     1       5.185   4.076  15.823  0.00  0.00    +0.000 C 
ATOM     27  S   UNL     1       5.522   4.157  14.137  0.00  0.00    +0.000 S 
ATOM     28  C   UNL     1       6.978   5.217  14.146  0.00  0.00    +0.000 C 
ATOM     29  C   UNL     1       7.834   5.039  15.395  0.00  0.00    +0.000 C 
ATOM     30  O   UNL     1       7.178   5.188  16.662  0.00  0.00    +0.000 OA
ENDBRANCH  22  25
ENDBRANCH   6  21
TORSDOF 7
ENDMDL
MODEL 3
REMARK VINA RESULT:      -7.3      3.580      7.850
REMARK  Name = 
REMARK  8 active torsions:
REMARK  status: ('A' for Active; 'I' for Inactive)
REMARK    1  A    between atoms: C_1  and  C_2
REMARK    2  A    between atoms: C_2  and  O_3
REMARK    3  A    between atoms: O_3  and  C_4
REMARK    4  A    between atoms: C_7  and  C_8
REMARK    5  A    between atoms: C_8  and  N_9
REMARK    6  A    between atoms: C_10  and  C_12
REMARK    7  A    between atoms: C_17  and  N_18
REMARK    8  A    between atoms: C_19  and  C_21
REMARK                            x       y       z     vdW  Elec       q    Type
REMARK                         _______ _______ _______ _____ _____    ______ ____
ROOT
ATOM      1  C   UNL     1       2.544   4.996  19.995  0.00  0.00    +0.000 A 
ATOM      2  C   UNL     1       1.761   4.600  21.112  0.00  0.00    +0.000 A 
ATOM      3  C   UNL     1       1.945   3.363  21.717  0.00  0.00    +0.000 A 
ATOM      4  C   UNL     1       2.936   2.517  21.254  0.00  0.00    +0.000 A 
ATOM      5  C   UNL     1       3.741   2.913  20.179  0.00  0.00    +0.000 A 
ATOM      6  C   UNL     1       3.558   4.140  19.511  0.00  0.00    +0.000 A 
ENDROOT
BRANCH   1   8
ATOM      7  N   UNL     1       1.985   7.356  20.271  0.00  0.00    +0.000 N 
ATOM      8  C   UNL     1       2.243   6.327  19.379  0.00  0.00    +0.000 C 
ATOM      9  O   UNL     1       2.240   6.457  18.162  0.00  0.00    +0.000 OA
ATOM     10  H   UNL     1       1.755   7.130  21.229  0.00  0.00    +0.000 HD
BRANCH   7  11
ATOM     11  C   UNL     1       1.743   8.720  19.854  0.00  0.00    +0.000 C 
BRANCH  11  15
ATOM     12  C   UNL     1      -0.870  10.850  22.604  0.00  0.00    +0.000 A 
ATOM     13  C   UNL     1      -0.460  11.424  21.399  0.00  0.00    +0.000 A 
ATOM     14  C   UNL     1       0.394  10.731  20.530  0.00  0.00    +0.000 A 
ATOM     15  C   UNL     1       0.846   9.444  20.834  0.00  0.00    +0.000 A 
ATOM     16  C   UNL     1       0.451   8.875  22.055  0.00  0.00    +0.000 A 
ATOM     17  C   UNL     1      -0.401   9.572  22.929  0.00  0.00    +0.000 A 
BRANCH  12  18
ATOM     18  O   UNL     1      -1.705  11.446  23.515  0.00  0.00    +0.000 OA
BRANCH  18  20
ATOM     19  C   UNL     1      -3.759  12.626  24.054  0.00  0.00    +0.000 C 
ATOM     20  C   UNL     1      -2.830  12.146  22.956  0.00  0.00    +0.000 C 
ENDBRANCH  18  20
ENDBRANCH  12  18
ENDBRANCH  11  15
ENDBRANCH   7  11
ENDBRANCH   1   8
BRANCH   6  21
ATOM     21  N   UNL     1       4.394   4.487  18.400  0.00  0.00    +0.000 N 
ATOM     22  C   UNL     1       4.177   4.069  17.095  0.00  0.00    +0.000 C 
ATOM     23  O   UNL     1       3.157   3.489  16.718  0.00  0.00    +0.000 OA
ATOM     24  H   UNL     1       5.160   5.136  18.582  0.00  0.00    +0.000 HD
BRANCH  22  25
ATOM     25  C   UNL     1       5.276   4.357  16.089  0.00  0.00    +0.000 C 
ATOM     26  C   UNL     1       5.085   3.784  14.884  0.00  0.00    +0.000 C 
ATOM     27  S   UNL     1       6.171   3.839  13.549  0.00  0.00    +0.000 S 
ATOM     28  C   UNL     1       7.367   5.043  14.150  0.00  0.00    +0.000 C 
ATOM     29  C   UNL     1       7.542   5.001  15.664  0.00  0.00    +0.000 C 
ATOM     30  O   UNL     1       6.356   5.128  16.462  0.00  0.00    +0.000 OA
ENDBRANCH  22  25
ENDBRANCH   6  21
TORSDOF 7
ENDMDL
MODEL 4
REMARK VINA RESULT:      -7.2      3.689      7.042
REMARK  Name = 
REMARK  8 active torsions:
REMARK  status: ('A' for Active; 'I' for Inactive)
REMARK    1  A    between atoms: C_1  and  C_2
REMARK    2  A    between atoms: C_2  and  O_3
REMARK    3  A    between atoms: O_3  and  C_4
REMARK    4  A    between atoms: C_7  and  C_8
REMARK    5  A    between atoms: C_8  and  N_9
REMARK    6  A    between atoms: C_10  and  C_12
REMARK    7  A    between atoms: C_17  and  N_18
REMARK    8  A    between atoms: C_19  and  C_21
REMARK                            x       y       z     vdW  Elec       q    Type
REMARK                         _______ _______ _______ _____ _____    ______ ____
ROOT
ATOM      1  C   UNL     1       0.395  10.227  20.625  0.00  0.00    +0.000 A 
ATOM      2  C   UNL     1      -0.021   9.163  21.469  0.00  0.00    +0.000 A 
ATOM      3  C   UNL     1      -0.638   9.412  22.688  0.00  0.00    +0.000 A 
ATOM      4  C   UNL     1      -0.892  10.716  23.072  0.00  0.00    +0.000 A 
ATOM      5  C   UNL     1      -0.523  11.772  22.230  0.00  0.00    +0.000 A 
ATOM      6  C   UNL     1       0.143  11.564  21.007  0.00  0.00    +0.000 A 
ENDROOT
BRANCH   1   8
ATOM      7  N   UNL     1       1.600   8.575  19.292  0.00  0.00    +0.000 N 
ATOM      8  C   UNL     1       1.094   9.864  19.351  0.00  0.00    +0.000 C 
ATOM      9  O   UNL     1       1.188  10.681  18.445  0.00  0.00    +0.000 OA
ATOM     10  H   UNL     1       1.713   8.051  20.148  0.00  0.00    +0.000 HD
BRANCH   7  11
ATOM     11  C   UNL     1       2.244   8.035  18.115  0.00  0.00    +0.000 C 
BRANCH  11  15
ATOM     12  C   UNL     1       4.403   4.386  19.089  0.00  0.00    +0.000 A 
ATOM     13  C   UNL     1       3.285   4.786  19.823  0.00  0.00    +0.000 A 
ATOM     14  C   UNL     1       2.608   5.972  19.506  0.00  0.00    +0.000 A 
ATOM     15  C   UNL     1       3.021   6.778  18.441  0.00  0.00    +0.000 A 
ATOM     16  C   UNL     1       4.158   6.386  17.717  0.00  0.00    +0.000 A 
ATOM     17  C   UNL     1       4.840   5.200  18.038  0.00  0.00    +0.000 A 
BRANCH  12  18
ATOM     18  O   UNL     1       5.127   3.244  19.320  0.00  0.00    +0.000 OA
BRANCH  18  20
ATOM     19  C   UNL     1       3.572   1.559  18.516  0.00  0.00    +0.000 C 
ATOM     20  C   UNL     1       4.357   2.090  19.699  0.00  0.00    +0.000 C 
ENDBRANCH  18  20
ENDBRANCH  12  18
ENDBRANCH  11  15
ENDBRANCH   7  11
ENDBRANCH   1   8
BRANCH   6  21
ATOM     21  N   UNL     1       0.523  12.681  20.193  0.00  0.00    +0.000 N 
ATOM     22  C   UNL     1       1.641  13.470  20.417  0.00  0.00    +0.000 C 
ATOM     23  O   UNL     1       2.520  13.202  21.238  0.00  0.00    +0.000 OA
ATOM     24  H   UNL     1      -0.041  12.860  19.362  0.00  0.00    +0.000 HD
BRANCH  22  25
ATOM     25  C   UNL     1       1.770  14.732  19.585  0.00  0.00    +0.000 C 
ATOM     26  C   UNL     1       2.909  14.806  18.866  0.00  0.00    +0.000 C 
ATOM     27  S   UNL     1       3.407  16.130  17.885  0.00  0.00    +0.000 S 
ATOM     28  C   UNL     1       1.912  17.132  17.905  0.00  0.00    +0.000 C 
ATOM     29  C   UNL     1       1.132  17.008  19.210  0.00  0.00    +0.000 C 
ATOM     30  O   UNL     1       0.775  15.685  19.633  0.00  0.00    +0.000 OA
ENDBRANCH  22  25
ENDBRANCH   6  21
TORSDOF 7
ENDMDL
MODEL 5
REMARK VINA RESULT:      -7.2      3.727      6.980
REMARK  Name = 
REMARK  8 active torsions:
REMARK  status: ('A' for Active; 'I' for Inactive)
REMARK    1  A    between atoms: C_1  and  C_2
REMARK    2  A    between atoms: C_2  and  O_3
REMARK    3  A    between atoms: O_3  and  C_4
REMARK    4  A    between atoms: C_7  and  C_8
REMARK    5  A    between atoms: C_8  and  N_9
REMARK    6  A    between atoms: C_10  and  C_12
REMARK    7  A    between atoms: C_17  and  N_18
REMARK    8  A    between atoms: C_19  and  C_21
REMARK                            x       y       z     vdW  Elec       q    Type
REMARK                         _______ _______ _______ _____ _____    ______ ____
ROOT
ATOM      1  C   UNL     1       0.256  10.185  20.500  0.00  0.00    +0.000 A 
ATOM      2  C   UNL     1      -0.185   9.138  21.352  0.00  0.00    +0.000 A 
ATOM      3  C   UNL     1      -0.712   9.408  22.609  0.00  0.00    +0.000 A 
ATOM      4  C   UNL     1      -0.851  10.719  23.024  0.00  0.00    +0.000 A 
ATOM      5  C   UNL     1      -0.458  11.762  22.176  0.00  0.00    +0.000 A 
ATOM      6  C   UNL     1       0.121  11.529  20.913  0.00  0.00    +0.000 A 
ENDROOT
BRANCH   1   8
ATOM      7  N   UNL     1       1.792   8.779  19.227  0.00  0.00    +0.000 N 
ATOM      8  C   UNL     1       0.853   9.797  19.182  0.00  0.00    +0.000 C 
ATOM      9  O   UNL     1       0.506  10.366  18.156  0.00  0.00    +0.000 OA
ATOM     10  H   UNL     1       2.212   8.535  20.113  0.00  0.00    +0.000 HD
BRANCH   7  11
ATOM     11  C   UNL     1       2.419   8.231  18.044  0.00  0.00    +0.000 C 
BRANCH  11  15
ATOM     12  C   UNL     1       4.387   4.464  18.974  0.00  0.00    +0.000 A 
ATOM     13  C   UNL     1       3.455   5.032  19.846  0.00  0.00    +0.000 A 
ATOM     14  C   UNL     1       2.841   6.253  19.539  0.00  0.00    +0.000 A 
ATOM     15  C   UNL     1       3.128   6.930  18.350  0.00  0.00    +0.000 A 
ATOM     16  C   UNL     1       4.081   6.370  17.484  0.00  0.00    +0.000 A 
ATOM     17  C   UNL     1       4.701   5.147  17.794  0.00  0.00    +0.000 A 
BRANCH  12  18
ATOM     18  O   UNL     1       5.037   3.275  19.184  0.00  0.00    +0.000 OA
BRANCH  18  20
ATOM     19  C   UNL     1       3.511   1.598  18.310  0.00  0.00    +0.000 C 
ATOM     20  C   UNL     1       4.194   2.165  19.539  0.00  0.00    +0.000 C 
ENDBRANCH  18  20
ENDBRANCH  12  18
ENDBRANCH  11  15
ENDBRANCH   7  11
ENDBRANCH   1   8
BRANCH   6  21
ATOM     21  N   UNL     1       0.530  12.632  20.093  0.00  0.00    +0.000 N 
ATOM     22  C   UNL     1       1.554  13.510  20.415  0.00  0.00    +0.000 C 
ATOM     23  O   UNL     1       2.332  13.346  21.357  0.00  0.00    +0.000 OA
ATOM     24  H   UNL     1       0.071  12.730  19.188  0.00  0.00    +0.000 HD
BRANCH  22  25
ATOM     25  C   UNL     1       1.708  14.737  19.537  0.00  0.00    +0.000 C 
ATOM     26  C   UNL     1       0.575  15.452  19.383  0.00  0.00    +0.000 C 
ATOM     27  S   UNL     1       0.380  16.846  18.392  0.00  0.00    +0.000 S 
ATOM     28  C   UNL     1       2.091  17.161  17.929  0.00  0.00    +0.000 C 
ATOM     29  C   UNL     1       2.920  15.886  17.821  0.00  0.00    +0.000 C 
ATOM     30  O   UNL     1       2.930  15.015  18.962  0.00  0.00    +0.000 OA
ENDBRANCH  22  25
ENDBRANCH   6  21
TORSDOF 7
ENDMDL
MODEL 6
REMARK VINA RESULT:      -7.1      3.493      7.196
REMARK  Name = 
REMARK  8 active torsions:
REMARK  status: ('A' for Active; 'I' for Inactive)
REMARK    1  A    between atoms: C_1  and  C_2
REMARK    2  A    between atoms: C_2  and  O_3
REMARK    3  A    between atoms: O_3  and  C_4
REMARK    4  A    between atoms: C_7  and  C_8
REMARK    5  A    between atoms: C_8  and  N_9
REMARK    6  A    between atoms: C_10  and  C_12
REMARK    7  A    between atoms: C_17  and  N_18
REMARK    8  A    between atoms: C_19  and  C_21
REMARK                            x       y       z     vdW  Elec       q    Type
REMARK                         _______ _______ _______ _____ _____    ______ ____
ROOT
ATOM      1  C   UNL     1       2.506   4.477  19.757  0.00  0.00    +0.000 A 
ATOM      2  C   UNL     1       1.769   4.324  20.961  0.00  0.00    +0.000 A 
ATOM      3  C   UNL     1       1.997   3.251  21.812  0.00  0.00    +0.000 A 
ATOM      4  C   UNL     1       2.987   2.335  21.507  0.00  0.00    +0.000 A 
ATOM      5  C   UNL     1       3.748   2.497  20.343  0.00  0.00    +0.000 A 
ATOM      6  C   UNL     1       3.519   3.547  19.432  0.00  0.00    +0.000 A 
ENDROOT
BRANCH   1   8
ATOM      7  N   UNL     1       2.437   6.891  19.403  0.00  0.00    +0.000 N 
ATOM      8  C   UNL     1       2.160   5.639  18.877  0.00  0.00    +0.000 C 
ATOM      9  O   UNL     1       1.669   5.452  17.773  0.00  0.00    +0.000 OA
ATOM     10  H   UNL     1       2.598   6.983  20.396  0.00  0.00    +0.000 HD
BRANCH   7  11
ATOM     11  C   UNL     1       2.232   8.119  18.666  0.00  0.00    +0.000 C 
BRANCH  11  15
ATOM     12  C   UNL     1      -0.354  10.806  20.907  0.00  0.00    +0.000 A 
ATOM     13  C   UNL     1       0.054   9.580  21.437  0.00  0.00    +0.000 A 
ATOM     14  C   UNL     1       0.875   8.719  20.697  0.00  0.00    +0.000 A 
ATOM     15  C   UNL     1       1.322   9.065  19.419  0.00  0.00    +0.000 A 
ATOM     16  C   UNL     1       0.894  10.287  18.877  0.00  0.00    +0.000 A 
ATOM     17  C   UNL     1       0.065  11.149  19.617  0.00  0.00    +0.000 A 
BRANCH  12  18
ATOM     18  O   UNL     1      -1.152  11.715  21.553  0.00  0.00    +0.000 OA
BRANCH  18  20
ATOM     19  C   UNL     1      -2.742  12.070  23.356  0.00  0.00    +0.000 C 
ATOM     20  C   UNL     1      -1.444  11.413  22.929  0.00  0.00    +0.000 C 
ENDBRANCH  18  20
ENDBRANCH  12  18
ENDBRANCH  11  15
ENDBRANCH   7  11
ENDBRANCH   1   8
BRANCH   6  21
ATOM     21  N   UNL     1       4.310   3.654  18.242  0.00  0.00    +0.000 N 
ATOM     22  C   UNL     1       5.368   4.537  18.079  0.00  0.00    +0.000 C 
ATOM     23  O   UNL     1       5.849   5.210  18.992  0.00  0.00    +0.000 OA
ATOM     24  H   UNL     1       4.112   2.989  17.494  0.00  0.00    +0.000 HD
BRANCH  22  25
ATOM     25  C   UNL     1       5.953   4.659  16.685  0.00  0.00    +0.000 C 
ATOM     26  C   UNL     1       5.216   4.068  15.723  0.00  0.00    +0.000 C 
ATOM     27  S   UNL     1       5.629   3.948  14.056  0.00  0.00    +0.000 S 
ATOM     28  C   UNL     1       7.067   5.028  13.997  0.00  0.00    +0.000 C 
ATOM     29  C   UNL     1       7.868   5.022  15.295  0.00  0.00    +0.000 C 
ATOM     30  O   UNL     1       7.153   5.314  16.504  0.00  0.00    +0.000 OA
ENDBRANCH  22  25
ENDBRANCH   6  21
TORSDOF 7
ENDMDL
MODEL 7
REMARK VINA RESULT:      -7.1      3.633      6.419
REMARK  Name = 
REMARK  8 active torsions:
REMARK  status: ('A' for Active; 'I' for Inactive)
REMARK    1  A    between atoms: C_1  and  C_2
REMARK    2  A    between atoms: C_2  and  O_3
REMARK    3  A    between atoms: O_3  and  C_4
REMARK    4  A    between atoms: C_7  and  C_8
REMARK    5  A    between atoms: C_8  and  N_9
REMARK    6  A    between atoms: C_10  and  C_12
REMARK    7  A    between atoms: C_17  and  N_18
REMARK    8  A    between atoms: C_19  and  C_21
REMARK                            x       y       z     vdW  Elec       q    Type
REMARK                         _______ _______ _______ _____ _____    ______ ____
ROOT
ATOM      1  C   UNL     1       0.167  10.085  20.619  0.00  0.00    +0.000 A 
ATOM      2  C   UNL     1      -0.163   8.941  21.391  0.00  0.00    +0.000 A 
ATOM      3  C   UNL     1      -0.622   9.062  22.697  0.00  0.00    +0.000 A 
ATOM      4  C   UNL     1      -0.803  10.319  23.243  0.00  0.00    +0.000 A 
ATOM      5  C   UNL     1      -0.519  11.457  22.477  0.00  0.00    +0.000 A 
ATOM      6  C   UNL     1      -0.011  11.376  21.166  0.00  0.00    +0.000 A 
ENDROOT
BRANCH   1   8
ATOM      7  N   UNL     1       1.567   8.785  19.100  0.00  0.00    +0.000 N 
ATOM      8  C   UNL     1       0.699   9.856  19.238  0.00  0.00    +0.000 C 
ATOM      9  O   UNL     1       0.362  10.589  18.318  0.00  0.00    +0.000 OA
ATOM     10  H   UNL     1       1.995   8.389  19.926  0.00  0.00    +0.000 HD
BRANCH   7  11
ATOM     11  C   UNL     1       2.121   8.377  17.828  0.00  0.00    +0.000 C 
BRANCH  11  15
ATOM     12  C   UNL     1       5.141   5.296  18.391  0.00  0.00    +0.000 A 
ATOM     13  C   UNL     1       4.102   5.471  19.308  0.00  0.00    +0.000 A 
ATOM     14  C   UNL     1       3.146   6.478  19.120  0.00  0.00    +0.000 A 
ATOM     15  C   UNL     1       3.192   7.323  18.008  0.00  0.00    +0.000 A 
ATOM     16  C   UNL     1       4.249   7.160  17.098  0.00  0.00    +0.000 A 
ATOM     17  C   UNL     1       5.212   6.154  17.289  0.00  0.00    +0.000 A 
BRANCH  12  18
ATOM     18  O   UNL     1       6.120   4.340  18.486  0.00  0.00    +0.000 OA
BRANCH  18  20
ATOM     19  C   UNL     1       8.055   5.629  19.191  0.00  0.00    +0.000 C 
ATOM     20  C   UNL     1       7.440   4.767  18.106  0.00  0.00    +0.000 C 
ENDBRANCH  18  20
ENDBRANCH  12  18
ENDBRANCH  11  15
ENDBRANCH   7  11
ENDBRANCH   1   8
BRANCH   6  21
ATOM     21  N   UNL     1       0.288  12.571  20.434  0.00  0.00    +0.000 N 
ATOM     22  C   UNL     1       1.378  13.391  20.682  0.00  0.00    +0.000 C 
ATOM     23  O   UNL     1       2.298  13.101  21.449  0.00  0.00    +0.000 OA
ATOM     24  H   UNL     1      -0.314  12.789  19.639  0.00  0.00    +0.000 HD
BRANCH  22  25
ATOM     25  C   UNL     1       1.420  14.720  19.952  0.00  0.00    +0.000 C 
ATOM     26  C   UNL     1       0.381  15.535  20.229  0.00  0.00    +0.000 C 
ATOM     27  S   UNL     1       0.077  17.072  19.515  0.00  0.00    +0.000 S 
ATOM     28  C   UNL     1       1.611  17.319  18.606  0.00  0.00    +0.000 C 
ATOM     29  C   UNL     1       2.221  16.015  18.104  0.00  0.00    +0.000 C 
ATOM     30  O   UNL     1       2.452  14.986  19.078  0.00  0.00    +0.000 OA
ENDBRANCH  22  25
ENDBRANCH   6  21
TORSDOF 7
ENDMDL
MODEL 8
REMARK VINA RESULT:      -7.0      4.764      8.170
REMARK  Name = 
REMARK  8 active torsions:
REMARK  status: ('A' for Active; 'I' for Inactive)
REMARK    1  A    between atoms: C_1  and  C_2
REMARK    2  A    between atoms: C_2  and  O_3
REMARK    3  A    between atoms: O_3  and  C_4
REMARK    4  A    between atoms: C_7  and  C_8
REMARK    5  A    between atoms: C_8  and  N_9
REMARK    6  A    between atoms: C_10  and  C_12
REMARK    7  A    between atoms: C_17  and  N_18
REMARK    8  A    between atoms: C_19  and  C_21
REMARK                            x       y       z     vdW  Elec       q    Type
REMARK                         _______ _______ _______ _____ _____    ______ ____
ROOT
ATOM      1  C   UNL     1      -1.932  10.618  17.847  0.00  0.00    +0.000 A 
ATOM      2  C   UNL     1      -2.140   9.803  16.703  0.00  0.00    +0.000 A 
ATOM      3  C   UNL     1      -3.289   9.926  15.933  0.00  0.00    +0.000 A 
ATOM      4  C   UNL     1      -4.230  10.885  16.258  0.00  0.00    +0.000 A 
ATOM      5  C   UNL     1      -4.018  11.721  17.360  0.00  0.00    +0.000 A 
ATOM      6  C   UNL     1      -2.887  11.601  18.192  0.00  0.00    +0.000 A 
ENDROOT
BRANCH   1   8
ATOM      7  N   UNL     1       0.441  10.049  17.909  0.00  0.00    +0.000 N 
ATOM      8  C   UNL     1      -0.685  10.384  18.644  0.00  0.00    +0.000 C 
ATOM      9  O   UNL     1      -0.702  10.494  19.862  0.00  0.00    +0.000 OA
ATOM     10  H   UNL     1       0.331   9.730  16.957  0.00  0.00    +0.000 HD
BRANCH   7  11
ATOM     11  C   UNL     1       1.744   9.856  18.507  0.00  0.00    +0.000 C 
BRANCH  11  15
ATOM     12  C   UNL     1       2.364   5.682  19.565  0.00  0.00    +0.000 A 
ATOM     13  C   UNL     1       1.961   6.621  20.517  0.00  0.00    +0.000 A 
ATOM     14  C   UNL     1       1.779   7.964  20.164  0.00  0.00    +0.000 A 
ATOM     15  C   UNL     1       1.980   8.401  18.851  0.00  0.00    +0.000 A 
ATOM     16  C   UNL     1       2.406   7.462  17.900  0.00  0.00    +0.000 A 
ATOM     17  C   UNL     1       2.594   6.115  18.255  0.00  0.00    +0.000 A 
BRANCH  12  18
ATOM     18  O   UNL     1       2.564   4.347  19.813  0.00  0.00    +0.000 OA
BRANCH  18  20
ATOM     19  C   UNL     1       1.322   2.824  21.241  0.00  0.00    +0.000 C 
ATOM     20  C   UNL     1       1.370   3.552  19.912  0.00  0.00    +0.000 C 
ENDBRANCH  18  20
ENDBRANCH  12  18
ENDBRANCH  11  15
ENDBRANCH   7  11
ENDBRANCH   1   8
BRANCH   6  21
ATOM     21  N   UNL     1      -2.728  12.465  19.323  0.00  0.00    +0.000 N 
ATOM     22  C   UNL     1      -3.743  12.786  20.213  0.00  0.00    +0.000 C 
ATOM     23  O   UNL     1      -4.847  12.238  20.226  0.00  0.00    +0.000 OA
ATOM     24  H   UNL     1      -1.788  12.813  19.512  0.00  0.00    +0.000 HD
BRANCH  22  25
ATOM     25  C   UNL     1      -3.450  13.878  21.225  0.00  0.00    +0.000 C 
ATOM     26  C   UNL     1      -4.372  13.986  22.204  0.00  0.00    +0.000 C 
ATOM     27  S   UNL     1      -4.390  15.165  23.458  0.00  0.00    +0.000 S 
ATOM     28  C   UNL     1      -2.774  15.922  23.217  0.00  0.00    +0.000 C 
ATOM     29  C   UNL     1      -2.333  15.927  21.757  0.00  0.00    +0.000 C 
ATOM     30  O   UNL     1      -2.330  14.666  21.073  0.00  0.00    +0.000 OA
ENDBRANCH  22  25
ENDBRANCH   6  21
TORSDOF 7
ENDMDL
MODEL 9
REMARK VINA RESULT:      -6.9      2.598      4.291
REMARK  Name = 
REMARK  8 active torsions:
REMARK  status: ('A' for Active; 'I' for Inactive)
REMARK    1  A    between atoms: C_1  and  C_2
REMARK    2  A    between atoms: C_2  and  O_3
REMARK    3  A    between atoms: O_3  and  C_4
REMARK    4  A    between atoms: C_7  and  C_8
REMARK    5  A    between atoms: C_8  and  N_9
REMARK    6  A    between atoms: C_10  and  C_12
REMARK    7  A    between atoms: C_17  and  N_18
REMARK    8  A    between atoms: C_19  and  C_21
REMARK                            x       y       z     vdW  Elec       q    Type
REMARK                         _______ _______ _______ _____ _____    ______ ____
ROOT
ATOM      1  C   UNL     1       3.439   4.394  19.703  0.00  0.00    +0.000 A 
ATOM      2  C   UNL     1       3.481   3.016  20.044  0.00  0.00    +0.000 A 
ATOM      3  C   UNL     1       2.394   2.388  20.636  0.00  0.00    +0.000 A 
ATOM      4  C   UNL     1       1.232   3.103  20.861  0.00  0.00    +0.000 A 
ATOM      5  C   UNL     1       1.163   4.452  20.493  0.00  0.00    +0.000 A 
ATOM      6  C   UNL     1       2.258   5.137  19.930  0.00  0.00    +0.000 A 
ENDROOT
BRANCH   1   8
ATOM      7  N   UNL     1       5.497   4.122  18.420  0.00  0.00    +0.000 N 
ATOM      8  C   UNL     1       4.675   4.998  19.111  0.00  0.00    +0.000 C 
ATOM      9  O   UNL     1       4.905   6.191  19.248  0.00  0.00    +0.000 OA
ATOM     10  H   UNL     1       5.385   3.127  18.561  0.00  0.00    +0.000 HD
BRANCH   7  11
ATOM     11  C   UNL     1       6.695   4.544  17.728  0.00  0.00    +0.000 C 
BRANCH  11  15
ATOM     12  C   UNL     1       6.379   4.062  13.415  0.00  0.00    +0.000 A 
ATOM     13  C   UNL     1       7.379   4.852  13.987  0.00  0.00    +0.000 A 
ATOM     14  C   UNL     1       7.459   5.008  15.377  0.00  0.00    +0.000 A 
ATOM     15  C   UNL     1       6.554   4.371  16.231  0.00  0.00    +0.000 A 
ATOM     16  C   UNL     1       5.536   3.595  15.655  0.00  0.00    +0.000 A 
ATOM     17  C   UNL     1       5.452   3.442  14.260  0.00  0.00    +0.000 A 
BRANCH  12  18
ATOM     18  O   UNL     1       6.221   3.845  12.070  0.00  0.00    +0.000 OA
BRANCH  18  20
ATOM     19  C   UNL     1       6.745   1.642  11.189  0.00  0.00    +0.000 C 
ATOM     20  C   UNL     1       5.664   2.568  11.711  0.00  0.00    +0.000 C 
ENDBRANCH  18  20
ENDBRANCH  12  18
ENDBRANCH  11  15
ENDBRANCH   7  11
ENDBRANCH   1   8
BRANCH   6  21
ATOM     21  N   UNL     1       2.145   6.525  19.594  0.00  0.00    +0.000 N 
ATOM     22  C   UNL     1       1.635   7.498  20.441  0.00  0.00    +0.000 C 
ATOM     23  O   UNL     1       1.376   7.308  21.631  0.00  0.00    +0.000 OA
ATOM     24  H   UNL     1       2.523   6.815  18.692  0.00  0.00    +0.000 HD
BRANCH  22  25
ATOM     25  C   UNL     1       1.395   8.872  19.845  0.00  0.00    +0.000 C 
ATOM     26  C   UNL     1       0.615   9.673  20.599  0.00  0.00    +0.000 C 
ATOM     27  S   UNL     1       0.080  11.255  20.182  0.00  0.00    +0.000 S 
ATOM     28  C   UNL     1       1.062  11.553  18.703  0.00  0.00    +0.000 C 
ATOM     29  C   UNL     1       1.341  10.281  17.910  0.00  0.00    +0.000 C 
ATOM     30  O   UNL     1       1.943   9.189  18.620  0.00  0.00    +0.000 OA
ENDBRANCH  22  25
ENDBRANCH   6  21
TORSDOF 7
ENDMDL
