MODEL 1
REMARK VINA RESULT:      -8.3      0.000      0.000
REMARK  Name = 
REMARK  12 active torsions:
REMARK  status: ('A' for Active; 'I' for Inactive)
REMARK    1  A    between atoms: C_1  and  C_2
REMARK    2  A    between atoms: C_4  and  C_5
REMARK    3  A    between atoms: C_7  and  S_8
REMARK    4  A    between atoms: S_8  and  C_9
REMARK    5  A    between atoms: C_9  and  C_10
REMARK    6  A    between atoms: N_12  and  C_13
REMARK    7  A    between atoms: C_16  and  S_17
REMARK    8  A    between atoms: S_17  and  N_20
REMARK    9  A    between atoms: N_20  and  C_21
REMARK   10  A    between atoms: C_21  and  C_22
REMARK   11  A    between atoms: C_21  and  C_23
REMARK   12  A    between atoms: C_21  and  C_24
REMARK                            x       y       z     vdW  Elec       q    Type
REMARK                         _______ _______ _______ _____ _____    ______ ____
ROOT
ATOM      1  C   UNL     1       1.359   8.521  19.765  0.00  0.00    +0.000 A 
ATOM      2  C   UNL     1       0.424   9.075  20.643  0.00  0.00    +0.000 A 
ATOM      3  C   UNL     1      -0.370  10.152  20.253  0.00  0.00    +0.000 A 
ATOM      4  C   UNL     1      -0.216  10.707  18.985  0.00  0.00    +0.000 A 
ATOM      5  C   UNL     1       0.702  10.166  18.085  0.00  0.00    +0.000 A 
ATOM      6  C   UNL     1       1.497   9.080  18.485  0.00  0.00    +0.000 A 
ENDROOT
BRANCH   1   9
ATOM      7  C   UNL     1       2.391   6.269  19.422  0.00  0.00    +0.000 C 
ATOM      8  O   UNL     1       2.074   6.098  18.243  0.00  0.00    +0.000 OA
ATOM      9  N   UNL     1       2.187   7.440  20.144  0.00  0.00    +0.000 N 
ATOM     10  H   UNL     1       2.663   7.514  21.037  0.00  0.00    +0.000 HD
BRANCH   7  11
ATOM     11  C   UNL     1       3.179   5.187  20.142  0.00  0.00    +0.000 C 
BRANCH  11  12
ATOM     12  S   UNL     1       3.443   3.690  19.145  0.00  0.00    +0.000 S 
BRANCH  12  19
ATOM     13  C   UNL     1       6.185   3.915  14.876  0.00  0.00    +0.000 C 
ATOM     14  C   UNL     1       6.118   4.235  16.339  0.00  0.00    +0.000 A 
ATOM     15  C   UNL     1       7.175   4.852  16.979  0.00  0.00    +0.000 A 
ATOM     16  C   UNL     1       7.027   5.092  18.330  0.00  0.00    +0.000 A 
ATOM     17  C   UNL     1       8.113   5.754  19.122  0.00  0.00    +0.000 C 
ATOM     18  N   UNL     1       5.911   4.746  19.004  0.00  0.00    +0.000 NA
ATOM     19  C   UNL     1       4.934   4.159  18.299  0.00  0.00    +0.000 A 
ATOM     20  N   UNL     1       4.987   3.887  16.986  0.00  0.00    +0.000 NA
ENDBRANCH  12  19
ENDBRANCH  11  12
ENDBRANCH   7  11
ENDBRANCH   1   9
BRANCH   4  21
ATOM     21  S   UNL     1      -1.287  12.044  18.517  0.00  0.00    +0.000 S 
ATOM     22  O   UNL     1      -2.471  11.942  19.349  0.00  0.00    +0.000 OA
ATOM     23  O   UNL     1      -0.509  13.259  18.483  0.00  0.00    +0.000 OA
BRANCH  21  24
ATOM     24  N   UNL     1      -1.804  11.668  16.956  0.00  0.00    +0.000 NA
ATOM     25  H   UNL     1      -0.993  11.576  16.344  0.00  0.00    +0.000 HD
BRANCH  24  26
ATOM     26  C   UNL     1      -2.976  10.812  16.633  0.00  0.00    +0.000 C 
ATOM     27  C   UNL     1      -3.037   9.589  17.549  0.00  0.00    +0.000 C 
ATOM     28  C   UNL     1      -4.246  11.654  16.877  0.00  0.00    +0.000 C 
ATOM     29  C   UNL     1      -2.980  10.409  15.156  0.00  0.00    +0.000 C 
ENDBRANCH  24  26
ENDBRANCH  21  24
ENDBRANCH   4  21
TORSDOF 7
ENDMDL
MODEL 2
REMARK VINA RESULT:      -8.2      1.164      1.491
REMARK  Name = 
REMARK  12 active torsions:
REMARK  status: ('A' for Active; 'I' for Inactive)
REMARK    1  A    between atoms: C_1  and  C_2
REMARK    2  A    between atoms: C_4  and  C_5
REMARK    3  A    between atoms: C_7  and  S_8
REMARK    4  A    between atoms: S_8  and  C_9
REMARK    5  A    between atoms: C_9  and  C_10
REMARK    6  A    between atoms: N_12  and  C_13
REMARK    7  A    between atoms: C_16  and  S_17
REMARK    8  A    between atoms: S_17  and  N_20
REMARK    9  A    between atoms: N_20  and  C_21
REMARK   10  A    between atoms: C_21  and  C_22
REMARK   11  A    between atoms: C_21  and  C_23
REMARK   12  A    between atoms: C_21  and  C_24
REMARK                            x       y       z     vdW  Elec       q    Type
REMARK                         _______ _______ _______ _____ _____    ______ ____
ROOT
ATOM      1  C   UNL     1       2.229   7.225  19.718  0.00  0.00    +0.000 A 
ATOM      2  C   UNL     1       1.499   7.870  20.719  0.00  0.00    +0.000 A 
ATOM      3  C   UNL     1       0.819   9.057  20.453  0.00  0.00    +0.000 A 
ATOM      4  C   UNL     1       0.885   9.628  19.185  0.00  0.00    +0.000 A 
ATOM      5  C   UNL     1       1.598   8.999  18.165  0.00  0.00    +0.000 A 
ATOM      6  C   UNL     1       2.280   7.802  18.440  0.00  0.00    +0.000 A 
ENDROOT
BRANCH   1   9
ATOM      7  C   UNL     1       2.429   4.739  19.903  0.00  0.00    +0.000 C 
ATOM      8  O   UNL     1       1.352   4.428  19.389  0.00  0.00    +0.000 OA
ATOM      9  N   UNL     1       2.941   6.030  19.969  0.00  0.00    +0.000 N 
ATOM     10  H   UNL     1       3.914   6.121  20.243  0.00  0.00    +0.000 HD
BRANCH   7  11
ATOM     11  C   UNL     1       3.354   3.643  20.404  0.00  0.00    +0.000 C 
BRANCH  11  12
ATOM     12  S   UNL     1       3.975   2.554  19.088  0.00  0.00    +0.000 S 
BRANCH  12  19
ATOM     13  C   UNL     1       5.559   4.745  14.788  0.00  0.00    +0.000 C 
ATOM     14  C   UNL     1       5.718   4.646  16.275  0.00  0.00    +0.000 A 
ATOM     15  C   UNL     1       6.666   5.402  16.937  0.00  0.00    +0.000 A 
ATOM     16  C   UNL     1       6.747   5.232  18.305  0.00  0.00    +0.000 A 
ATOM     17  C   UNL     1       7.742   6.000  19.122  0.00  0.00    +0.000 C 
ATOM     18  N   UNL     1       5.948   4.376  18.973  0.00  0.00    +0.000 NA
ATOM     19  C   UNL     1       5.053   3.690  18.248  0.00  0.00    +0.000 A 
ATOM     20  N   UNL     1       4.899   3.790  16.918  0.00  0.00    +0.000 NA
ENDBRANCH  12  19
ENDBRANCH  11  12
ENDBRANCH   7  11
ENDBRANCH   1   9
BRANCH   4  21
ATOM     21  S   UNL     1      -0.042  11.112  18.882  0.00  0.00    +0.000 S 
ATOM     22  O   UNL     1      -1.044  11.200  19.927  0.00  0.00    +0.000 OA
ATOM     23  O   UNL     1       0.889  12.192  18.656  0.00  0.00    +0.000 OA
BRANCH  21  24
ATOM     24  N   UNL     1      -0.903  10.812  17.463  0.00  0.00    +0.000 NA
ATOM     25  H   UNL     1      -0.410  10.109  16.911  0.00  0.00    +0.000 HD
BRANCH  24  26
ATOM     26  C   UNL     1      -2.385  10.819  17.351  0.00  0.00    +0.000 C 
ATOM     27  C   UNL     1      -2.992  11.995  18.117  0.00  0.00    +0.000 C 
ATOM     28  C   UNL     1      -2.737  10.989  15.858  0.00  0.00    +0.000 C 
ATOM     29  C   UNL     1      -2.984   9.484  17.805  0.00  0.00    +0.000 C 
ENDBRANCH  24  26
ENDBRANCH  21  24
ENDBRANCH   4  21
TORSDOF 7
ENDMDL
MODEL 3
REMARK VINA RESULT:      -8.2      0.391      1.308
REMARK  Name = 
REMARK  12 active torsions:
REMARK  status: ('A' for Active; 'I' for Inactive)
REMARK    1  A    between atoms: C_1  and  C_2
REMARK    2  A    between atoms: C_4  and  C_5
REMARK    3  A    between atoms: C_7  and  S_8
REMARK    4  A    between atoms: S_8  and  C_9
REMARK    5  A    between atoms: C_9  and  C_10
REMARK    6  A    between atoms: N_12  and  C_13
REMARK    7  A    between atoms: C_16  and  S_17
REMARK    8  A    between atoms: S_17  and  N_20
REMARK    9  A    between atoms: N_20  and  C_21
REMARK   10  A    between atoms: C_21  and  C_22
REMARK   11  A    between atoms: C_21  and  C_23
REMARK   12  A    between atoms: C_21  and  C_24
REMARK                            x       y       z     vdW  Elec       q    Type
REMARK                         _______ _______ _______ _____ _____    ______ ____
ROOT
ATOM      1  C   UNL     1       1.663   8.147  19.711  0.00  0.00    +0.000 A 
ATOM      2  C   UNL     1       1.716   8.712  18.434  0.00  0.00    +0.000 A 
ATOM      3  C   UNL     1       0.920   9.808  18.106  0.00  0.00    +0.000 A 
ATOM      4  C   UNL     1       0.039  10.335  19.046  0.00  0.00    +0.000 A 
ATOM      5  C   UNL     1      -0.026   9.796  20.332  0.00  0.00    +0.000 A 
ATOM      6  C   UNL     1       0.780   8.693  20.656  0.00  0.00    +0.000 A 
ENDROOT
BRANCH   1   9
ATOM      7  C   UNL     1       2.397   5.769  19.464  0.00  0.00    +0.000 C 
ATOM      8  O   UNL     1       1.839   5.513  18.394  0.00  0.00    +0.000 OA
ATOM      9  N   UNL     1       2.447   7.024  20.061  0.00  0.00    +0.000 N 
ATOM     10  H   UNL     1       3.095   7.136  20.833  0.00  0.00    +0.000 HD
BRANCH   7  11
ATOM     11  C   UNL     1       3.209   4.685  20.153  0.00  0.00    +0.000 C 
BRANCH  11  12
ATOM     12  S   UNL     1       3.614   3.279  19.075  0.00  0.00    +0.000 S 
BRANCH  12  19
ATOM     13  C   UNL     1       6.199   4.011  14.765  0.00  0.00    +0.000 C 
ATOM     14  C   UNL     1       6.133   4.256  16.242  0.00  0.00    +0.000 A 
ATOM     15  C   UNL     1       7.127   4.966  16.888  0.00  0.00    +0.000 A 
ATOM     16  C   UNL     1       6.986   5.128  18.251  0.00  0.00    +0.000 A 
ATOM     17  C   UNL     1       8.008   5.879  19.051  0.00  0.00    +0.000 C 
ATOM     18  N   UNL     1       5.937   4.624  18.931  0.00  0.00    +0.000 NA
ATOM     19  C   UNL     1       5.017   3.956  18.221  0.00  0.00    +0.000 A 
ATOM     20  N   UNL     1       5.068   3.750  16.896  0.00  0.00    +0.000 NA
ENDBRANCH  12  19
ENDBRANCH  11  12
ENDBRANCH   7  11
ENDBRANCH   1   9
BRANCH   4  21
ATOM     21  S   UNL     1      -0.915  11.764  18.597  0.00  0.00    +0.000 S 
ATOM     22  O   UNL     1      -2.076  11.781  19.466  0.00  0.00    +0.000 OA
ATOM     23  O   UNL     1      -0.027  12.900  18.527  0.00  0.00    +0.000 OA
BRANCH  21  24
ATOM     24  N   UNL     1      -1.514  11.428  17.057  0.00  0.00    +0.000 NA
ATOM     25  H   UNL     1      -0.739  11.191  16.437  0.00  0.00    +0.000 HD
BRANCH  24  26
ATOM     26  C   UNL     1      -2.811  10.758  16.778  0.00  0.00    +0.000 C 
ATOM     27  C   UNL     1      -2.889  10.283  15.327  0.00  0.00    +0.000 C 
ATOM     28  C   UNL     1      -2.897   9.515  17.691  0.00  0.00    +0.000 C 
ATOM     29  C   UNL     1      -3.994  11.662  17.139  0.00  0.00    +0.000 C 
ENDBRANCH  24  26
ENDBRANCH  21  24
ENDBRANCH   4  21
TORSDOF 7
ENDMDL
MODEL 4
REMARK VINA RESULT:      -8.0      2.386      3.412
REMARK  Name = 
REMARK  12 active torsions:
REMARK  status: ('A' for Active; 'I' for Inactive)
REMARK    1  A    between atoms: C_1  and  C_2
REMARK    2  A    between atoms: C_4  and  C_5
REMARK    3  A    between atoms: C_7  and  S_8
REMARK    4  A    between atoms: S_8  and  C_9
REMARK    5  A    between atoms: C_9  and  C_10
REMARK    6  A    between atoms: N_12  and  C_13
REMARK    7  A    between atoms: C_16  and  S_17
REMARK    8  A    between atoms: S_17  and  N_20
REMARK    9  A    between atoms: N_20  and  C_21
REMARK   10  A    between atoms: C_21  and  C_22
REMARK   11  A    between atoms: C_21  and  C_23
REMARK   12  A    between atoms: C_21  and  C_24
REMARK                            x       y       z     vdW  Elec       q    Type
REMARK                         _______ _______ _______ _____ _____    ______ ____
ROOT
ATOM      1  C   UNL     1       2.205   7.375  19.662  0.00  0.00    +0.000 A 
ATOM      2  C   UNL     1       1.517   7.987  20.712  0.00  0.00    +0.000 A 
ATOM      3  C   UNL     1       0.862   9.203  20.522  0.00  0.00    +0.000 A 
ATOM      4  C   UNL     1       0.912   9.835  19.283  0.00  0.00    +0.000 A 
ATOM      5  C   UNL     1       1.583   9.239  18.214  0.00  0.00    +0.000 A 
ATOM      6  C   UNL     1       2.239   8.014  18.412  0.00  0.00    +0.000 A 
ENDROOT
BRANCH   1   9
ATOM      7  C   UNL     1       2.329   4.943  20.233  0.00  0.00    +0.000 C 
ATOM      8  O   UNL     1       1.120   4.699  20.264  0.00  0.00    +0.000 OA
ATOM      9  N   UNL     1       2.891   6.151  19.835  0.00  0.00    +0.000 N 
ATOM     10  H   UNL     1       3.893   6.157  19.674  0.00  0.00    +0.000 HD
BRANCH   7  11
ATOM     11  C   UNL     1       3.318   3.827  20.526  0.00  0.00    +0.000 C 
BRANCH  11  12
ATOM     12  S   UNL     1       3.591   2.707  19.121  0.00  0.00    +0.000 S 
BRANCH  12  19
ATOM     13  C   UNL     1       7.638   5.776  19.159  0.00  0.00    +0.000 C 
ATOM     14  C   UNL     1       6.653   5.014  18.325  0.00  0.00    +0.000 A 
ATOM     15  C   UNL     1       6.713   5.052  16.946  0.00  0.00    +0.000 A 
ATOM     16  C   UNL     1       5.754   4.330  16.264  0.00  0.00    +0.000 A 
ATOM     17  C   UNL     1       5.724   4.304  14.766  0.00  0.00    +0.000 C 
ATOM     18  N   UNL     1       4.801   3.620  16.900  0.00  0.00    +0.000 NA
ATOM     19  C   UNL     1       4.825   3.634  18.240  0.00  0.00    +0.000 A 
ATOM     20  N   UNL     1       5.717   4.304  18.987  0.00  0.00    +0.000 NA
ENDBRANCH  12  19
ENDBRANCH  11  12
ENDBRANCH   7  11
ENDBRANCH   1   9
BRANCH   4  21
ATOM     21  S   UNL     1       0.018  11.355  19.077  0.00  0.00    +0.000 S 
ATOM     22  O   UNL     1      -1.008  11.105  18.082  0.00  0.00    +0.000 OA
ATOM     23  O   UNL     1      -0.327  11.861  20.384  0.00  0.00    +0.000 OA
BRANCH  21  24
ATOM     24  N   UNL     1       1.107  12.411  18.339  0.00  0.00    +0.000 NA
ATOM     25  H   UNL     1       0.888  12.482  17.344  0.00  0.00    +0.000 HD
BRANCH  24  26
ATOM     26  C   UNL     1       1.679  13.625  18.978  0.00  0.00    +0.000 C 
ATOM     27  C   UNL     1       2.289  13.297  20.341  0.00  0.00    +0.000 C 
ATOM     28  C   UNL     1       2.808  14.143  18.063  0.00  0.00    +0.000 C 
ATOM     29  C   UNL     1       0.636  14.742  19.082  0.00  0.00    +0.000 C 
ENDBRANCH  24  26
ENDBRANCH  21  24
ENDBRANCH   4  21
TORSDOF 7
ENDMDL
MODEL 5
REMARK VINA RESULT:      -8.0      0.847      1.470
REMARK  Name = 
REMARK  12 active torsions:
REMARK  status: ('A' for Active; 'I' for Inactive)
REMARK    1  A    between atoms: C_1  and  C_2
REMARK    2  A    between atoms: C_4  and  C_5
REMARK    3  A    between atoms: C_7  and  S_8
REMARK    4  A    between atoms: S_8  and  C_9
REMARK    5  A    between atoms: C_9  and  C_10
REMARK    6  A    between atoms: N_12  and  C_13
REMARK    7  A    between atoms: C_16  and  S_17
REMARK    8  A    between atoms: S_17  and  N_20
REMARK    9  A    between atoms: N_20  and  C_21
REMARK   10  A    between atoms: C_21  and  C_22
REMARK   11  A    between atoms: C_21  and  C_23
REMARK   12  A    between atoms: C_21  and  C_24
REMARK                            x       y       z     vdW  Elec       q    Type
REMARK                         _______ _______ _______ _____ _____    ______ ____
ROOT
ATOM      1  C   UNL     1       1.935   7.938  19.298  0.00  0.00    +0.000 A 
ATOM      2  C   UNL     1       1.758   8.562  18.061  0.00  0.00    +0.000 A 
ATOM      3  C   UNL     1       1.009   9.732  17.953  0.00  0.00    +0.000 A 
ATOM      4  C   UNL     1       0.402  10.277  19.081  0.00  0.00    +0.000 A 
ATOM      5  C   UNL     1       0.571   9.680  20.330  0.00  0.00    +0.000 A 
ATOM      6  C   UNL     1       1.329   8.502  20.432  0.00  0.00    +0.000 A 
ENDROOT
BRANCH   1   9
ATOM      7  C   UNL     1       2.282   5.604  20.125  0.00  0.00    +0.000 C 
ATOM      8  O   UNL     1       1.138   5.379  20.529  0.00  0.00    +0.000 OA
ATOM      9  N   UNL     1       2.675   6.741  19.429  0.00  0.00    +0.000 N 
ATOM     10  H   UNL     1       3.590   6.714  18.991  0.00  0.00    +0.000 HD
BRANCH   7  11
ATOM     11  C   UNL     1       3.343   4.526  20.269  0.00  0.00    +0.000 C 
BRANCH  11  12
ATOM     12  S   UNL     1       3.420   3.384  18.858  0.00  0.00    +0.000 S 
BRANCH  12  19
ATOM     13  C   UNL     1       6.228   4.016  14.673  0.00  0.00    +0.000 C 
ATOM     14  C   UNL     1       6.116   4.241  16.150  0.00  0.00    +0.000 A 
ATOM     15  C   UNL     1       7.125   4.872  16.850  0.00  0.00    +0.000 A 
ATOM     16  C   UNL     1       6.938   5.020  18.209  0.00  0.00    +0.000 A 
ATOM     17  C   UNL     1       7.971   5.688  19.065  0.00  0.00    +0.000 C 
ATOM     18  N   UNL     1       5.830   4.575  18.836  0.00  0.00    +0.000 NA
ATOM     19  C   UNL     1       4.900   3.981  18.075  0.00  0.00    +0.000 A 
ATOM     20  N   UNL     1       4.993   3.794  16.749  0.00  0.00    +0.000 NA
ENDBRANCH  12  19
ENDBRANCH  11  12
ENDBRANCH   7  11
ENDBRANCH   1   9
BRANCH   4  21
ATOM     21  S   UNL     1      -0.498  11.797  18.901  0.00  0.00    +0.000 S 
ATOM     22  O   UNL     1      -1.549  11.781  19.901  0.00  0.00    +0.000 OA
ATOM     23  O   UNL     1       0.450  12.883  18.841  0.00  0.00    +0.000 OA
BRANCH  21  24
ATOM     24  N   UNL     1      -1.291  11.666  17.418  0.00  0.00    +0.000 NA
ATOM     25  H   UNL     1      -0.602  11.544  16.675  0.00  0.00    +0.000 HD
BRANCH  24  26
ATOM     26  C   UNL     1      -2.607  11.004  17.213  0.00  0.00    +0.000 C 
ATOM     27  C   UNL     1      -3.744  11.841  17.800  0.00  0.00    +0.000 C 
ATOM     28  C   UNL     1      -2.836  10.888  15.691  0.00  0.00    +0.000 C 
ATOM     29  C   UNL     1      -2.606   9.580  17.778  0.00  0.00    +0.000 C 
ENDBRANCH  24  26
ENDBRANCH  21  24
ENDBRANCH   4  21
TORSDOF 7
ENDMDL
MODEL 6
REMARK VINA RESULT:      -8.0      2.450      3.032
REMARK  Name = 
REMARK  12 active torsions:
REMARK  status: ('A' for Active; 'I' for Inactive)
REMARK    1  A    between atoms: C_1  and  C_2
REMARK    2  A    between atoms: C_4  and  C_5
REMARK    3  A    between atoms: C_7  and  S_8
REMARK    4  A    between atoms: S_8  and  C_9
REMARK    5  A    between atoms: C_9  and  C_10
REMARK    6  A    between atoms: N_12  and  C_13
REMARK    7  A    between atoms: C_16  and  S_17
REMARK    8  A    between atoms: S_17  and  N_20
REMARK    9  A    between atoms: N_20  and  C_21
REMARK   10  A    between atoms: C_21  and  C_22
REMARK   11  A    between atoms: C_21  and  C_23
REMARK   12  A    between atoms: C_21  and  C_24
REMARK                            x       y       z     vdW  Elec       q    Type
REMARK                         _______ _______ _______ _____ _____    ______ ____
ROOT
ATOM      1  C   UNL     1       2.270   7.156  19.727  0.00  0.00    +0.000 A 
ATOM      2  C   UNL     1       1.568   7.786  20.757  0.00  0.00    +0.000 A 
ATOM      3  C   UNL     1       0.938   9.011  20.545  0.00  0.00    +0.000 A 
ATOM      4  C   UNL     1       1.026   9.634  19.304  0.00  0.00    +0.000 A 
ATOM      5  C   UNL     1       1.711   9.021  18.254  0.00  0.00    +0.000 A 
ATOM      6  C   UNL     1       2.342   7.786  18.474  0.00  0.00    +0.000 A 
ENDROOT
BRANCH   1   9
ATOM      7  C   UNL     1       2.343   4.663  19.911  0.00  0.00    +0.000 C 
ATOM      8  O   UNL     1       1.208   4.413  19.496  0.00  0.00    +0.000 OA
ATOM      9  N   UNL     1       2.932   5.923  19.923  0.00  0.00    +0.000 N 
ATOM     10  H   UNL     1       3.928   5.958  20.109  0.00  0.00    +0.000 HD
BRANCH   7  11
ATOM     11  C   UNL     1       3.244   3.516  20.336  0.00  0.00    +0.000 C 
BRANCH  11  12
ATOM     12  S   UNL     1       3.810   2.481  18.954  0.00  0.00    +0.000 S 
BRANCH  12  19
ATOM     13  C   UNL     1       5.605   4.744  14.777  0.00  0.00    +0.000 C 
ATOM     14  C   UNL     1       5.708   4.600  16.265  0.00  0.00    +0.000 A 
ATOM     15  C   UNL     1       6.651   5.310  16.982  0.00  0.00    +0.000 A 
ATOM     16  C   UNL     1       6.679   5.101  18.346  0.00  0.00    +0.000 A 
ATOM     17  C   UNL     1       7.664   5.818  19.219  0.00  0.00    +0.000 C 
ATOM     18  N   UNL     1       5.834   4.249  18.960  0.00  0.00    +0.000 NA
ATOM     19  C   UNL     1       4.947   3.609  18.186  0.00  0.00    +0.000 A 
ATOM     20  N   UNL     1       4.844   3.749  16.855  0.00  0.00    +0.000 NA
ENDBRANCH  12  19
ENDBRANCH  11  12
ENDBRANCH   7  11
ENDBRANCH   1   9
BRANCH   4  21
ATOM     21  S   UNL     1       0.161  11.167  19.069  0.00  0.00    +0.000 S 
ATOM     22  O   UNL     1      -0.850  10.925  18.057  0.00  0.00    +0.000 OA
ATOM     23  O   UNL     1      -0.199  11.689  20.365  0.00  0.00    +0.000 OA
BRANCH  21  24
ATOM     24  N   UNL     1       1.282  12.198  18.343  0.00  0.00    +0.000 NA
ATOM     25  H   UNL     1       1.160  12.171  17.330  0.00  0.00    +0.000 HD
BRANCH  24  26
ATOM     26  C   UNL     1       1.745  13.488  18.918  0.00  0.00    +0.000 C 
ATOM     27  C   UNL     1       2.814  14.135  18.037  0.00  0.00    +0.000 C 
ATOM     28  C   UNL     1       0.529  14.437  18.966  0.00  0.00    +0.000 C 
ATOM     29  C   UNL     1       2.235  13.312  20.359  0.00  0.00    +0.000 C 
ENDBRANCH  24  26
ENDBRANCH  21  24
ENDBRANCH   4  21
TORSDOF 7
ENDMDL
MODEL 7
REMARK VINA RESULT:      -8.0      2.617      3.646
REMARK  Name = 
REMARK  12 active torsions:
REMARK  status: ('A' for Active; 'I' for Inactive)
REMARK    1  A    between atoms: C_1  and  C_2
REMARK    2  A    between atoms: C_4  and  C_5
REMARK    3  A    between atoms: C_7  and  S_8
REMARK    4  A    between atoms: S_8  and  C_9
REMARK    5  A    between atoms: C_9  and  C_10
REMARK    6  A    between atoms: N_12  and  C_13
REMARK    7  A    between atoms: C_16  and  S_17
REMARK    8  A    between atoms: S_17  and  N_20
REMARK    9  A    between atoms: N_20  and  C_21
REMARK   10  A    between atoms: C_21  and  C_22
REMARK   11  A    between atoms: C_21  and  C_23
REMARK   12  A    between atoms: C_21  and  C_24
REMARK                            x       y       z     vdW  Elec       q    Type
REMARK                         _______ _______ _______ _____ _____    ______ ____
ROOT
ATOM      1  C   UNL     1       2.330   7.026  19.744  0.00  0.00    +0.000 A 
ATOM      2  C   UNL     1       2.357   7.733  18.540  0.00  0.00    +0.000 A 
ATOM      3  C   UNL     1       1.739   8.977  18.429  0.00  0.00    +0.000 A 
ATOM      4  C   UNL     1       1.062   9.518  19.519  0.00  0.00    +0.000 A 
ATOM      5  C   UNL     1       1.030   8.838  20.737  0.00  0.00    +0.000 A 
ATOM      6  C   UNL     1       1.656   7.585  20.841  0.00  0.00    +0.000 A 
ENDROOT
BRANCH   1   9
ATOM      7  C   UNL     1       2.270   4.545  20.049  0.00  0.00    +0.000 C 
ATOM      8  O   UNL     1       1.062   4.366  19.878  0.00  0.00    +0.000 OA
ATOM      9  N   UNL     1       2.934   5.755  19.875  0.00  0.00    +0.000 N 
ATOM     10  H   UNL     1       3.947   5.721  19.860  0.00  0.00    +0.000 HD
BRANCH   7  11
ATOM     11  C   UNL     1       3.160   3.350  20.352  0.00  0.00    +0.000 C 
BRANCH  11  12
ATOM     12  S   UNL     1       3.962   2.646  18.881  0.00  0.00    +0.000 S 
BRANCH  12  19
ATOM     13  C   UNL     1       7.924   5.719  19.688  0.00  0.00    +0.000 C 
ATOM     14  C   UNL     1       6.759   5.385  18.807  0.00  0.00    +0.000 A 
ATOM     15  C   UNL     1       6.481   6.138  17.683  0.00  0.00    +0.000 A 
ATOM     16  C   UNL     1       5.378   5.762  16.943  0.00  0.00    +0.000 A 
ATOM     17  C   UNL     1       4.985   6.511  15.706  0.00  0.00    +0.000 C 
ATOM     18  N   UNL     1       4.603   4.714  17.288  0.00  0.00    +0.000 NA
ATOM     19  C   UNL     1       4.953   4.037  18.391  0.00  0.00    +0.000 A 
ATOM     20  N   UNL     1       6.006   4.327  19.171  0.00  0.00    +0.000 NA
ENDBRANCH  12  19
ENDBRANCH  11  12
ENDBRANCH   7  11
ENDBRANCH   1   9
BRANCH   4  21
ATOM     21  S   UNL     1       0.338  11.129  19.344  0.00  0.00    +0.000 S 
ATOM     22  O   UNL     1      -0.594  11.050  18.235  0.00  0.00    +0.000 OA
ATOM     23  O   UNL     1      -0.098  11.576  20.645  0.00  0.00    +0.000 OA
BRANCH  21  24
ATOM     24  N   UNL     1       1.591  12.120  18.804  0.00  0.00    +0.000 NA
ATOM     25  H   UNL     1       1.869  11.833  17.865  0.00  0.00    +0.000 HD
BRANCH  24  26
ATOM     26  C   UNL     1       1.726  13.567  19.119  0.00  0.00    +0.000 C 
ATOM     27  C   UNL     1       2.257  13.777  20.538  0.00  0.00    +0.000 C 
ATOM     28  C   UNL     1       2.753  14.162  18.133  0.00  0.00    +0.000 C 
ATOM     29  C   UNL     1       0.406  14.310  18.897  0.00  0.00    +0.000 C 
ENDBRANCH  24  26
ENDBRANCH  21  24
ENDBRANCH   4  21
TORSDOF 7
ENDMDL
MODEL 8
REMARK VINA RESULT:      -7.9      3.789      9.079
REMARK  Name = 
REMARK  12 active torsions:
REMARK  status: ('A' for Active; 'I' for Inactive)
REMARK    1  A    between atoms: C_1  and  C_2
REMARK    2  A    between atoms: C_4  and  C_5
REMARK    3  A    between atoms: C_7  and  S_8
REMARK    4  A    between atoms: S_8  and  C_9
REMARK    5  A    between atoms: C_9  and  C_10
REMARK    6  A    between atoms: N_12  and  C_13
REMARK    7  A    between atoms: C_16  and  S_17
REMARK    8  A    between atoms: S_17  and  N_20
REMARK    9  A    between atoms: N_20  and  C_21
REMARK   10  A    between atoms: C_21  and  C_22
REMARK   11  A    between atoms: C_21  and  C_23
REMARK   12  A    between atoms: C_21  and  C_24
REMARK                            x       y       z     vdW  Elec       q    Type
REMARK                         _______ _______ _______ _____ _____    ______ ____
ROOT
ATOM      1  C   UNL     1       1.373   9.620  18.901  0.00  0.00    +0.000 A 
ATOM      2  C   UNL     1       1.965   9.205  17.706  0.00  0.00    +0.000 A 
ATOM      3  C   UNL     1       2.587   7.962  17.612  0.00  0.00    +0.000 A 
ATOM      4  C   UNL     1       2.649   7.128  18.725  0.00  0.00    +0.000 A 
ATOM      5  C   UNL     1       2.056   7.513  19.928  0.00  0.00    +0.000 A 
ATOM      6  C   UNL     1       1.429   8.767  20.015  0.00  0.00    +0.000 A 
ENDROOT
BRANCH   1   9
ATOM      7  C   UNL     1       1.363  12.120  18.844  0.00  0.00    +0.000 C 
ATOM      8  O   UNL     1       2.466  12.298  18.320  0.00  0.00    +0.000 OA
ATOM      9  N   UNL     1       0.753  10.884  19.025  0.00  0.00    +0.000 N 
ATOM     10  H   UNL     1      -0.226  10.894  19.290  0.00  0.00    +0.000 HD
BRANCH   7  11
ATOM     11  C   UNL     1       0.520  13.326  19.222  0.00  0.00    +0.000 C 
BRANCH  11  12
ATOM     12  S   UNL     1       0.868  13.968  20.886  0.00  0.00    +0.000 S 
BRANCH  12  19
ATOM     13  C   UNL     1      -0.338   9.556  23.095  0.00  0.00    +0.000 C 
ATOM     14  C   UNL     1      -0.754  10.967  22.807  0.00  0.00    +0.000 A 
ATOM     15  C   UNL     1      -1.969  11.451  23.250  0.00  0.00    +0.000 A 
ATOM     16  C   UNL     1      -2.271  12.758  22.924  0.00  0.00    +0.000 A 
ATOM     17  C   UNL     1      -3.564  13.384  23.352  0.00  0.00    +0.000 C 
ATOM     18  N   UNL     1      -1.432  13.533  22.208  0.00  0.00    +0.000 NA
ATOM     19  C   UNL     1      -0.272  12.981  21.827  0.00  0.00    +0.000 A 
ATOM     20  N   UNL     1       0.109  11.723  22.098  0.00  0.00    +0.000 NA
ENDBRANCH  12  19
ENDBRANCH  11  12
ENDBRANCH   7  11
ENDBRANCH   1   9
BRANCH   4  21
ATOM     21  S   UNL     1       3.405   5.532  18.541  0.00  0.00    +0.000 S 
ATOM     22  O   UNL     1       4.051   5.524  17.242  0.00  0.00    +0.000 OA
ATOM     23  O   UNL     1       4.153   5.242  19.741  0.00  0.00    +0.000 OA
BRANCH  21  24
ATOM     24  N   UNL     1       2.120   4.448  18.407  0.00  0.00    +0.000 NA
ATOM     25  H   UNL     1       1.983   4.206  17.425  0.00  0.00    +0.000 HD
BRANCH  24  26
ATOM     26  C   UNL     1       1.795   3.390  19.400  0.00  0.00    +0.000 C 
ATOM     27  C   UNL     1       1.253   3.995  20.695  0.00  0.00    +0.000 C 
ATOM     28  C   UNL     1       0.688   2.505  18.788  0.00  0.00    +0.000 C 
ATOM     29  C   UNL     1       3.001   2.484  19.663  0.00  0.00    +0.000 C 
ENDBRANCH  24  26
ENDBRANCH  21  24
ENDBRANCH   4  21
TORSDOF 7
ENDMDL
MODEL 9
REMARK VINA RESULT:      -7.9      2.297      3.507
REMARK  Name = 
REMARK  12 active torsions:
REMARK  status: ('A' for Active; 'I' for Inactive)
REMARK    1  A    between atoms: C_1  and  C_2
REMARK    2  A    between atoms: C_4  and  C_5
REMARK    3  A    between atoms: C_7  and  S_8
REMARK    4  A    between atoms: S_8  and  C_9
REMARK    5  A    between atoms: C_9  and  C_10
REMARK    6  A    between atoms: N_12  and  C_13
REMARK    7  A    between atoms: C_16  and  S_17
REMARK    8  A    between atoms: S_17  and  N_20
REMARK    9  A    between atoms: N_20  and  C_21
REMARK   10  A    between atoms: C_21  and  C_22
REMARK   11  A    between atoms: C_21  and  C_23
REMARK   12  A    between atoms: C_21  and  C_24
REMARK                            x       y       z     vdW  Elec       q    Type
REMARK                         _______ _______ _______ _____ _____    ______ ____
ROOT
ATOM      1  C   UNL     1       2.194   7.470  19.592  0.00  0.00    +0.000 A 
ATOM      2  C   UNL     1       2.120   8.097  18.346  0.00  0.00    +0.000 A 
ATOM      3  C   UNL     1       1.398   9.278  18.185  0.00  0.00    +0.000 A 
ATOM      4  C   UNL     1       0.716   9.831  19.265  0.00  0.00    +0.000 A 
ATOM      5  C   UNL     1       0.782   9.231  20.522  0.00  0.00    +0.000 A 
ATOM      6  C   UNL     1       1.513   8.042  20.678  0.00  0.00    +0.000 A 
ENDROOT
BRANCH   1   9
ATOM      7  C   UNL     1       2.361   5.037  20.145  0.00  0.00    +0.000 C 
ATOM      8  O   UNL     1       1.159   4.761  20.134  0.00  0.00    +0.000 OA
ATOM      9  N   UNL     1       2.905   6.263  19.776  0.00  0.00    +0.000 N 
ATOM     10  H   UNL     1       3.911   6.295  19.647  0.00  0.00    +0.000 HD
BRANCH   7  11
ATOM     11  C   UNL     1       3.369   3.943  20.458  0.00  0.00    +0.000 C 
BRANCH  11  12
ATOM     12  S   UNL     1       3.639   2.784  19.085  0.00  0.00    +0.000 S 
BRANCH  12  19
ATOM     13  C   UNL     1       7.708   5.823  19.100  0.00  0.00    +0.000 C 
ATOM     14  C   UNL     1       6.738   5.035  18.274  0.00  0.00    +0.000 A 
ATOM     15  C   UNL     1       6.832   5.016  16.896  0.00  0.00    +0.000 A 
ATOM     16  C   UNL     1       5.884   4.274  16.220  0.00  0.00    +0.000 A 
ATOM     17  C   UNL     1       5.892   4.187  14.724  0.00  0.00    +0.000 C 
ATOM     18  N   UNL     1       4.911   3.596  16.861  0.00  0.00    +0.000 NA
ATOM     19  C   UNL     1       4.902   3.666  18.199  0.00  0.00    +0.000 A 
ATOM     20  N   UNL     1       5.781   4.359  18.940  0.00  0.00    +0.000 NA
ENDBRANCH  12  19
ENDBRANCH  11  12
ENDBRANCH   7  11
ENDBRANCH   1   9
BRANCH   4  21
ATOM     21  S   UNL     1      -0.146  11.364  19.020  0.00  0.00    +0.000 S 
ATOM     22  O   UNL     1      -1.155  11.119  18.007  0.00  0.00    +0.000 OA
ATOM     23  O   UNL     1      -0.510  11.893  20.313  0.00  0.00    +0.000 OA
BRANCH  21  24
ATOM     24  N   UNL     1       0.977  12.391  18.293  0.00  0.00    +0.000 NA
ATOM     25  H   UNL     1       0.663  12.622  17.350  0.00  0.00    +0.000 HD
BRANCH  24  26
ATOM     26  C   UNL     1       1.757  13.437  19.005  0.00  0.00    +0.000 C 
ATOM     27  C   UNL     1       3.024  13.805  18.232  0.00  0.00    +0.000 C 
ATOM     28  C   UNL     1       0.870  14.697  19.093  0.00  0.00    +0.000 C 
ATOM     29  C   UNL     1       2.077  13.011  20.441  0.00  0.00    +0.000 C 
ENDBRANCH  24  26
ENDBRANCH  21  24
ENDBRANCH   4  21
TORSDOF 7
ENDMDL
