MODEL 1
REMARK VINA RESULT:      -8.6      0.000      0.000
REMARK  Name = 
REMARK  6 active torsions:
REMARK  status: ('A' for Active; 'I' for Inactive)
REMARK    1  A    between atoms: C_1  and  O_2
REMARK    2  A    between atoms: O_2  and  C_3
REMARK    3  A    between atoms: C_6  and  C_7
REMARK    4  A    between atoms: C_12  and  C_13
REMARK    5  A    between atoms: C_27  and  O_28
REMARK    6  A    between atoms: O_28  and  C_29
REMARK                            x       y       z     vdW  Elec       q    Type
REMARK                         _______ _______ _______ _____ _____    ______ ____
ROOT
ATOM      1  C   UNL     1       4.237   3.389  19.260  0.00  0.00    +0.000 A 
ATOM      2  N   UNL     1       4.797   2.251  19.783  0.00  0.00    +0.000 NA
ATOM      3  C   UNL     1       4.251   1.733  20.896  0.00  0.00    +0.000 A 
ATOM      4  C   UNL     1       3.173   2.294  21.529  0.00  0.00    +0.000 A 
ATOM      5  N   UNL     1       2.587   3.405  21.052  0.00  0.00    +0.000 NA
ATOM      6  C   UNL     1       3.096   3.972  19.888  0.00  0.00    +0.000 A 
ENDROOT
BRANCH   6   7
ATOM      7  C   UNL     1       2.145   5.186  19.486  0.00  0.00    +0.000 C 
ATOM      8  C   UNL     1       1.481   6.181  20.446  0.00  0.00    +0.000 C 
ATOM      9  N   UNL     1       2.198   7.240  19.784  0.00  0.00    +0.000 N 
ATOM     10  C   UNL     1       1.670   8.537  19.600  0.00  0.00    +0.000 A 
ATOM     11  C   UNL     1       1.808   9.174  18.380  0.00  0.00    +0.000 A 
ATOM     12  C   UNL     1       1.035  10.294  18.111  0.00  0.00    +0.000 A 
ATOM     13  C   UNL     1       0.276  10.850  19.137  0.00  0.00    +0.000 A 
ATOM     14  C   UNL     1      -0.497  11.987  18.932  0.00  0.00    +0.000 A 
ATOM     15  C   UNL     1      -0.651  12.890  19.964  0.00  0.00    +0.000 A 
ATOM     16  C   UNL     1      -0.462  12.427  21.255  0.00  0.00    +0.000 A 
ATOM     17  C   UNL     1      -0.079  11.097  21.462  0.00  0.00    +0.000 A 
ATOM     18  C   UNL     1       0.367  10.286  20.421  0.00  0.00    +0.000 A 
ATOM     19  N   UNL     1       0.973   9.102  20.625  0.00  0.00    +0.000 NA
ATOM     20  C   UNL     1       2.700   6.392  18.740  0.00  0.00    +0.000 C 
ENDBRANCH   6   7
BRANCH   1  24
ATOM     21  C   UNL     1       6.243   5.145  15.907  0.00  0.00    +0.000 A 
ATOM     22  C   UNL     1       5.168   4.342  15.729  0.00  0.00    +0.000 A 
ATOM     23  C   UNL     1       4.529   3.789  16.826  0.00  0.00    +0.000 A 
ATOM     24  C   UNL     1       5.012   3.957  18.117  0.00  0.00    +0.000 A 
ATOM     25  C   UNL     1       6.153   4.796  18.202  0.00  0.00    +0.000 A 
ATOM     26  N   UNL     1       6.745   5.403  17.116  0.00  0.00    +0.000 NA
BRANCH  21  28
ATOM     27  C   UNL     1       7.057   4.777  13.782  0.00  0.00    +0.000 C 
ATOM     28  O   UNL     1       6.739   5.752  14.775  0.00  0.00    +0.000 OA
ENDBRANCH  21  28
BRANCH  25  29
ATOM     29  O   UNL     1       6.700   5.079  19.436  0.00  0.00    +0.000 OA
ATOM     30  C   UNL     1       7.932   5.804  19.354  0.00  0.00    +0.000 C 
ENDBRANCH  25  29
ENDBRANCH   1  24
TORSDOF 4
ENDMDL
MODEL 2
REMARK VINA RESULT:      -8.6      1.211      1.755
REMARK  Name = 
REMARK  6 active torsions:
REMARK  status: ('A' for Active; 'I' for Inactive)
REMARK    1  A    between atoms: C_1  and  O_2
REMARK    2  A    between atoms: O_2  and  C_3
REMARK    3  A    between atoms: C_6  and  C_7
REMARK    4  A    between atoms: C_12  and  C_13
REMARK    5  A    between atoms: C_27  and  O_28
REMARK    6  A    between atoms: O_28  and  C_29
REMARK                            x       y       z     vdW  Elec       q    Type
REMARK                         _______ _______ _______ _____ _____    ______ ____
ROOT
ATOM      1  C   UNL     1       3.983   3.422  17.969  0.00  0.00    +0.000 A 
ATOM      2  N   UNL     1       3.708   2.097  17.750  0.00  0.00    +0.000 NA
ATOM      3  C   UNL     1       2.804   1.500  18.546  0.00  0.00    +0.000 A 
ATOM      4  C   UNL     1       2.158   2.153  19.563  0.00  0.00    +0.000 A 
ATOM      5  N   UNL     1       2.391   3.453  19.813  0.00  0.00    +0.000 NA
ATOM      6  C   UNL     1       3.301   4.128  19.004  0.00  0.00    +0.000 A 
ENDROOT
BRANCH   6   7
ATOM      7  C   UNL     1       3.286   5.661  19.438  0.00  0.00    +0.000 C 
ATOM      8  C   UNL     1       2.763   6.840  18.606  0.00  0.00    +0.000 C 
ATOM      9  N   UNL     1       1.805   7.101  19.649  0.00  0.00    +0.000 N 
ATOM     10  C   UNL     1       1.375   8.400  19.999  0.00  0.00    +0.000 A 
ATOM     11  C   UNL     1       1.272   8.761  21.331  0.00  0.00    +0.000 A 
ATOM     12  C   UNL     1       1.153  10.103  21.660  0.00  0.00    +0.000 A 
ATOM     13  C   UNL     1       0.960  11.032  20.641  0.00  0.00    +0.000 A 
ATOM     14  C   UNL     1       0.808  12.387  20.915  0.00  0.00    +0.000 A 
ATOM     15  C   UNL     1      -0.024  13.144  20.116  0.00  0.00    +0.000 A 
ATOM     16  C   UNL     1      -0.281  12.682  18.836  0.00  0.00    +0.000 A 
ATOM     17  C   UNL     1       0.261  11.459  18.422  0.00  0.00    +0.000 A 
ATOM     18  C   UNL     1       0.838  10.565  19.321  0.00  0.00    +0.000 A 
ATOM     19  N   UNL     1       1.135   9.293  18.998  0.00  0.00    +0.000 NA
ATOM     20  C   UNL     1       2.369   6.142  20.556  0.00  0.00    +0.000 C 
ENDBRANCH   6   7
BRANCH   1  24
ATOM     21  C   UNL     1       7.039   5.088  15.471  0.00  0.00    +0.000 A 
ATOM     22  C   UNL     1       5.892   4.606  14.936  0.00  0.00    +0.000 A 
ATOM     23  C   UNL     1       4.913   4.078  15.762  0.00  0.00    +0.000 A 
ATOM     24  C   UNL     1       5.106   3.938  17.130  0.00  0.00    +0.000 A 
ATOM     25  C   UNL     1       6.344   4.452  17.594  0.00  0.00    +0.000 A 
ATOM     26  N   UNL     1       7.287   5.042  16.782  0.00  0.00    +0.000 NA
BRANCH  21  28
ATOM     27  C   UNL     1       7.786   5.139  13.291  0.00  0.00    +0.000 C 
ATOM     28  O   UNL     1       7.902   5.708  14.595  0.00  0.00    +0.000 OA
ENDBRANCH  21  28
BRANCH  25  29
ATOM     29  O   UNL     1       6.634   4.414  18.942  0.00  0.00    +0.000 OA
ATOM     30  C   UNL     1       7.273   5.606  19.416  0.00  0.00    +0.000 C 
ENDBRANCH  25  29
ENDBRANCH   1  24
TORSDOF 4
ENDMDL
MODEL 3
REMARK VINA RESULT:      -8.3      4.264      9.999
REMARK  Name = 
REMARK  6 active torsions:
REMARK  status: ('A' for Active; 'I' for Inactive)
REMARK    1  A    between atoms: C_1  and  O_2
REMARK    2  A    between atoms: O_2  and  C_3
REMARK    3  A    between atoms: C_6  and  C_7
REMARK    4  A    between atoms: C_12  and  C_13
REMARK    5  A    between atoms: C_27  and  O_28
REMARK    6  A    between atoms: O_28  and  C_29
REMARK                            x       y       z     vdW  Elec       q    Type
REMARK                         _______ _______ _______ _____ _____    ______ ____
ROOT
ATOM      1  C   UNL     1      -0.592  12.603  18.932  0.00  0.00    +0.000 A 
ATOM      2  N   UNL     1      -0.286  13.940  18.932  0.00  0.00    +0.000 NA
ATOM      3  C   UNL     1       1.010  14.290  18.994  0.00  0.00    +0.000 A 
ATOM      4  C   UNL     1       2.028  13.375  19.064  0.00  0.00    +0.000 A 
ATOM      5  N   UNL     1       1.778  12.055  19.062  0.00  0.00    +0.000 NA
ATOM      6  C   UNL     1       0.454  11.634  18.977  0.00  0.00    +0.000 A 
ENDROOT
BRANCH   6   7
ATOM      7  C   UNL     1       0.459  10.044  18.867  0.00  0.00    +0.000 C 
ATOM      8  C   UNL     1       1.307   9.199  17.907  0.00  0.00    +0.000 C 
ATOM      9  N   UNL     1       1.916   8.576  19.054  0.00  0.00    +0.000 N 
ATOM     10  C   UNL     1       2.320   7.223  19.078  0.00  0.00    +0.000 A 
ATOM     11  C   UNL     1       2.037   6.434  20.178  0.00  0.00    +0.000 A 
ATOM     12  C   UNL     1       2.158   5.056  20.071  0.00  0.00    +0.000 A 
ATOM     13  C   UNL     1       2.730   4.518  18.921  0.00  0.00    +0.000 A 
ATOM     14  C   UNL     1       2.900   3.146  18.770  0.00  0.00    +0.000 A 
ATOM     15  C   UNL     1       3.996   2.678  18.076  0.00  0.00    +0.000 A 
ATOM     16  C   UNL     1       4.596   3.535  17.169  0.00  0.00    +0.000 A 
ATOM     17  C   UNL     1       4.110   4.841  17.028  0.00  0.00    +0.000 A 
ATOM     18  C   UNL     1       3.214   5.397  17.937  0.00  0.00    +0.000 A 
ATOM     19  N   UNL     1       2.929   6.711  17.971  0.00  0.00    +0.000 NA
ATOM     20  C   UNL     1       1.023   9.191  19.996  0.00  0.00    +0.000 C 
ENDBRANCH   6   7
BRANCH   1  24
ATOM     21  C   UNL     1      -4.838  12.092  19.196  0.00  0.00    +0.000 A 
ATOM     22  C   UNL     1      -4.140  12.639  20.219  0.00  0.00    +0.000 A 
ATOM     23  C   UNL     1      -2.768  12.802  20.112  0.00  0.00    +0.000 A 
ATOM     24  C   UNL     1      -2.059  12.335  19.014  0.00  0.00    +0.000 A 
ATOM     25  C   UNL     1      -2.872  11.760  18.003  0.00  0.00    +0.000 A 
ATOM     26  N   UNL     1      -4.244  11.663  18.080  0.00  0.00    +0.000 NA
BRANCH  21  28
ATOM     27  C   UNL     1      -6.815  11.378  18.251  0.00  0.00    +0.000 C 
ATOM     28  O   UNL     1      -6.208  12.083  19.333  0.00  0.00    +0.000 OA
ENDBRANCH  21  28
BRANCH  25  29
ATOM     29  O   UNL     1      -2.290  11.300  16.840  0.00  0.00    +0.000 OA
ATOM     30  C   UNL     1      -2.528   9.909  16.600  0.00  0.00    +0.000 C 
ENDBRANCH  25  29
ENDBRANCH   1  24
TORSDOF 4
ENDMDL
MODEL 4
REMARK VINA RESULT:      -8.3      3.973     10.044
REMARK  Name = 
REMARK  6 active torsions:
REMARK  status: ('A' for Active; 'I' for Inactive)
REMARK    1  A    between atoms: C_1  and  O_2
REMARK    2  A    between atoms: O_2  and  C_3
REMARK    3  A    between atoms: C_6  and  C_7
REMARK    4  A    between atoms: C_12  and  C_13
REMARK    5  A    between atoms: C_27  and  O_28
REMARK    6  A    between atoms: O_28  and  C_29
REMARK                            x       y       z     vdW  Elec       q    Type
REMARK                         _______ _______ _______ _____ _____    ______ ____
ROOT
ATOM      1  C   UNL     1       0.372  12.429  19.719  0.00  0.00    +0.000 A 
ATOM      2  N   UNL     1       0.765  13.730  19.537  0.00  0.00    +0.000 NA
ATOM      3  C   UNL     1       1.849  13.961  18.777  0.00  0.00    +0.000 A 
ATOM      4  C   UNL     1       2.575  12.959  18.188  0.00  0.00    +0.000 A 
ATOM      5  N   UNL     1       2.227  11.669  18.334  0.00  0.00    +0.000 NA
ATOM      6  C   UNL     1       1.098  11.373  19.092  0.00  0.00    +0.000 A 
ENDROOT
BRANCH   6   7
ATOM      7  C   UNL     1       0.848   9.802  18.991  0.00  0.00    +0.000 C 
ATOM      8  C   UNL     1       1.599   8.815  18.088  0.00  0.00    +0.000 C 
ATOM      9  N   UNL     1       2.031   8.118  19.272  0.00  0.00    +0.000 N 
ATOM     10  C   UNL     1       2.206   6.718  19.327  0.00  0.00    +0.000 A 
ATOM     11  C   UNL     1       1.735   6.002  20.412  0.00  0.00    +0.000 A 
ATOM     12  C   UNL     1       1.634   4.622  20.320  0.00  0.00    +0.000 A 
ATOM     13  C   UNL     1       2.175   3.980  19.209  0.00  0.00    +0.000 A 
ATOM     14  C   UNL     1       2.126   2.597  19.076  0.00  0.00    +0.000 A 
ATOM     15  C   UNL     1       3.168   1.945  18.449  0.00  0.00    +0.000 A 
ATOM     16  C   UNL     1       3.951   2.679  17.574  0.00  0.00    +0.000 A 
ATOM     17  C   UNL     1       3.694   4.045  17.398  0.00  0.00    +0.000 A 
ATOM     18  C   UNL     1       2.851   4.753  18.250  0.00  0.00    +0.000 A 
ATOM     19  N   UNL     1       2.785   6.097  18.260  0.00  0.00    +0.000 NA
ATOM     20  C   UNL     1       1.199   8.885  20.156  0.00  0.00    +0.000 C 
ENDBRANCH   6   7
BRANCH   1  24
ATOM     21  C   UNL     1      -2.750  12.229  22.646  0.00  0.00    +0.000 A 
ATOM     22  C   UNL     1      -1.449  12.194  23.017  0.00  0.00    +0.000 A 
ATOM     23  C   UNL     1      -0.453  12.266  22.056  0.00  0.00    +0.000 A 
ATOM     24  C   UNL     1      -0.746  12.283  20.698  0.00  0.00    +0.000 A 
ATOM     25  C   UNL     1      -2.134  12.297  20.407  0.00  0.00    +0.000 A 
ATOM     26  N   UNL     1      -3.123  12.297  21.366  0.00  0.00    +0.000 NA
BRANCH  21  28
ATOM     27  C   UNL     1      -4.758  13.136  23.322  0.00  0.00    +0.000 C 
ATOM     28  O   UNL     1      -3.670  12.280  23.669  0.00  0.00    +0.000 OA
ENDBRANCH  21  28
BRANCH  25  29
ATOM     29  O   UNL     1      -2.554  12.360  19.095  0.00  0.00    +0.000 OA
ATOM     30  C   UNL     1      -3.910  11.934  18.914  0.00  0.00    +0.000 C 
ENDBRANCH  25  29
ENDBRANCH   1  24
TORSDOF 4
ENDMDL
MODEL 5
REMARK VINA RESULT:      -8.1      1.510      2.331
REMARK  Name = 
REMARK  6 active torsions:
REMARK  status: ('A' for Active; 'I' for Inactive)
REMARK    1  A    between atoms: C_1  and  O_2
REMARK    2  A    between atoms: O_2  and  C_3
REMARK    3  A    between atoms: C_6  and  C_7
REMARK    4  A    between atoms: C_12  and  C_13
REMARK    5  A    between atoms: C_27  and  O_28
REMARK    6  A    between atoms: O_28  and  C_29
REMARK                            x       y       z     vdW  Elec       q    Type
REMARK                         _______ _______ _______ _____ _____    ______ ____
ROOT
ATOM      1  C   UNL     1       4.560   4.086  19.294  0.00  0.00    +0.000 A 
ATOM      2  N   UNL     1       5.237   2.908  19.485  0.00  0.00    +0.000 NA
ATOM      3  C   UNL     1       4.624   1.934  20.179  0.00  0.00    +0.000 A 
ATOM      4  C   UNL     1       3.365   2.070  20.705  0.00  0.00    +0.000 A 
ATOM      5  N   UNL     1       2.661   3.203  20.540  0.00  0.00    +0.000 NA
ATOM      6  C   UNL     1       3.239   4.238  19.809  0.00  0.00    +0.000 A 
ENDROOT
BRANCH   6   7
ATOM      7  C   UNL     1       2.149   5.392  19.665  0.00  0.00    +0.000 C 
ATOM      8  C   UNL     1       1.358   6.047  20.804  0.00  0.00    +0.000 C 
ATOM      9  N   UNL     1       1.946   7.309  20.436  0.00  0.00    +0.000 N 
ATOM     10  C   UNL     1       1.264   8.542  20.538  0.00  0.00    +0.000 A 
ATOM     11  C   UNL     1       1.335   9.461  19.507  0.00  0.00    +0.000 A 
ATOM     12  C   UNL     1       0.433  10.514  19.477  0.00  0.00    +0.000 A 
ATOM     13  C   UNL     1      -0.400  10.719  20.574  0.00  0.00    +0.000 A 
ATOM     14  C   UNL     1      -1.305  11.774  20.610  0.00  0.00    +0.000 A 
ATOM     15  C   UNL     1      -1.580  12.383  21.817  0.00  0.00    +0.000 A 
ATOM     16  C   UNL     1      -1.350  11.653  22.971  0.00  0.00    +0.000 A 
ATOM     17  C   UNL     1      -0.807  10.365  22.876  0.00  0.00    +0.000 A 
ATOM     18  C   UNL     1      -0.254   9.882  21.693  0.00  0.00    +0.000 A 
ATOM     19  N   UNL     1       0.491   8.763  21.639  0.00  0.00    +0.000 NA
ATOM     20  C   UNL     1       2.559   6.797  19.243  0.00  0.00    +0.000 C 
ENDBRANCH   6   7
BRANCH   1  24
ATOM     21  C   UNL     1       7.153   6.968  17.471  0.00  0.00    +0.000 A 
ATOM     22  C   UNL     1       7.336   6.586  18.757  0.00  0.00    +0.000 A 
ATOM     23  C   UNL     1       6.491   5.648  19.327  0.00  0.00    +0.000 A 
ATOM     24  C   UNL     1       5.391   5.144  18.645  0.00  0.00    +0.000 A 
ATOM     25  C   UNL     1       5.270   5.617  17.313  0.00  0.00    +0.000 A 
ATOM     26  N   UNL     1       6.153   6.496  16.725  0.00  0.00    +0.000 NA
BRANCH  21  28
ATOM     27  C   UNL     1       8.215   8.997  17.727  0.00  0.00    +0.000 C 
ATOM     28  O   UNL     1       8.112   7.807  16.947  0.00  0.00    +0.000 OA
ENDBRANCH  21  28
BRANCH  25  29
ATOM     29  O   UNL     1       4.244   5.155  16.516  0.00  0.00    +0.000 OA
ATOM     30  C   UNL     1       4.575   3.955  15.808  0.00  0.00    +0.000 C 
ENDBRANCH  25  29
ENDBRANCH   1  24
TORSDOF 4
ENDMDL
MODEL 6
REMARK VINA RESULT:      -8.0      3.841      9.857
REMARK  Name = 
REMARK  6 active torsions:
REMARK  status: ('A' for Active; 'I' for Inactive)
REMARK    1  A    between atoms: C_1  and  O_2
REMARK    2  A    between atoms: O_2  and  C_3
REMARK    3  A    between atoms: C_6  and  C_7
REMARK    4  A    between atoms: C_12  and  C_13
REMARK    5  A    between atoms: C_27  and  O_28
REMARK    6  A    between atoms: O_28  and  C_29
REMARK                            x       y       z     vdW  Elec       q    Type
REMARK                         _______ _______ _______ _____ _____    ______ ____
ROOT
ATOM      1  C   UNL     1       0.235  12.701  19.600  0.00  0.00    +0.000 A 
ATOM      2  N   UNL     1       0.691  13.975  19.375  0.00  0.00    +0.000 NA
ATOM      3  C   UNL     1       1.867  14.122  18.742  0.00  0.00    +0.000 A 
ATOM      4  C   UNL     1       2.626  13.061  18.321  0.00  0.00    +0.000 A 
ATOM      5  N   UNL     1       2.219  11.794  18.514  0.00  0.00    +0.000 NA
ATOM      6  C   UNL     1       0.996  11.583  19.145  0.00  0.00    +0.000 A 
ENDROOT
BRANCH   6   7
ATOM      7  C   UNL     1       0.709  10.016  19.126  0.00  0.00    +0.000 C 
ATOM      8  C   UNL     1       1.329   8.986  18.173  0.00  0.00    +0.000 C 
ATOM      9  N   UNL     1       1.886   8.316  19.320  0.00  0.00    +0.000 N 
ATOM     10  C   UNL     1       2.042   6.915  19.399  0.00  0.00    +0.000 A 
ATOM     11  C   UNL     1       1.691   6.243  20.556  0.00  0.00    +0.000 A 
ATOM     12  C   UNL     1       1.555   4.863  20.522  0.00  0.00    +0.000 A 
ATOM     13  C   UNL     1       1.948   4.176  19.376  0.00  0.00    +0.000 A 
ATOM     14  C   UNL     1       1.859   2.791  19.295  0.00  0.00    +0.000 A 
ATOM     15  C   UNL     1       2.806   2.098  18.571  0.00  0.00    +0.000 A 
ATOM     16  C   UNL     1       3.493   2.788  17.585  0.00  0.00    +0.000 A 
ATOM     17  C   UNL     1       3.241   4.152  17.396  0.00  0.00    +0.000 A 
ATOM     18  C   UNL     1       2.519   4.905  18.318  0.00  0.00    +0.000 A 
ATOM     19  N   UNL     1       2.478   6.249  18.292  0.00  0.00    +0.000 NA
ATOM     20  C   UNL     1       1.180   9.128  20.271  0.00  0.00    +0.000 C 
ENDBRANCH   6   7
BRANCH   1  24
ATOM     21  C   UNL     1      -3.423  12.439  21.814  0.00  0.00    +0.000 A 
ATOM     22  C   UNL     1      -3.381  13.069  20.616  0.00  0.00    +0.000 A 
ATOM     23  C   UNL     1      -2.190  13.137  19.912  0.00  0.00    +0.000 A 
ATOM     24  C   UNL     1      -0.999  12.655  20.440  0.00  0.00    +0.000 A 
ATOM     25  C   UNL     1      -1.139  12.032  21.706  0.00  0.00    +0.000 A 
ATOM     26  N   UNL     1      -2.337  11.902  22.373  0.00  0.00    +0.000 NA
BRANCH  21  28
ATOM     27  C   UNL     1      -5.638  13.054  21.649  0.00  0.00    +0.000 C 
ATOM     28  O   UNL     1      -4.670  12.308  22.385  0.00  0.00    +0.000 OA
ENDBRANCH  21  28
BRANCH  25  29
ATOM     29  O   UNL     1      -0.035  11.471  22.315  0.00  0.00    +0.000 OA
ATOM     30  C   UNL     1      -0.342  10.287  23.060  0.00  0.00    +0.000 C 
ENDBRANCH  25  29
ENDBRANCH   1  24
TORSDOF 4
ENDMDL
MODEL 7
REMARK VINA RESULT:      -8.0      4.337     10.025
REMARK  Name = 
REMARK  6 active torsions:
REMARK  status: ('A' for Active; 'I' for Inactive)
REMARK    1  A    between atoms: C_1  and  O_2
REMARK    2  A    between atoms: O_2  and  C_3
REMARK    3  A    between atoms: C_6  and  C_7
REMARK    4  A    between atoms: C_12  and  C_13
REMARK    5  A    between atoms: C_27  and  O_28
REMARK    6  A    between atoms: O_28  and  C_29
REMARK                            x       y       z     vdW  Elec       q    Type
REMARK                         _______ _______ _______ _____ _____    ______ ____
ROOT
ATOM      1  C   UNL     1      -1.325  12.505  19.954  0.00  0.00    +0.000 A 
ATOM      2  N   UNL     1      -1.162  13.822  20.301  0.00  0.00    +0.000 NA
ATOM      3  C   UNL     1      -0.020  14.176  20.916  0.00  0.00    +0.000 A 
ATOM      4  C   UNL     1       0.975  13.281  21.214  0.00  0.00    +0.000 A 
ATOM      5  N   UNL     1       0.863  11.982  20.889  0.00  0.00    +0.000 NA
ATOM      6  C   UNL     1      -0.290  11.564  20.230  0.00  0.00    +0.000 A 
ENDROOT
BRANCH   6   7
ATOM      7  C   UNL     1      -0.101  10.026  19.858  0.00  0.00    +0.000 C 
ATOM      8  C   UNL     1       0.841   9.454  18.791  0.00  0.00    +0.000 C 
ATOM      9  N   UNL     1       1.515   8.721  19.831  0.00  0.00    +0.000 N 
ATOM     10  C   UNL     1       2.073   7.438  19.640  0.00  0.00    +0.000 A 
ATOM     11  C   UNL     1       1.880   6.449  20.588  0.00  0.00    +0.000 A 
ATOM     12  C   UNL     1       2.159   5.132  20.257  0.00  0.00    +0.000 A 
ATOM     13  C   UNL     1       2.792   4.861  19.047  0.00  0.00    +0.000 A 
ATOM     14  C   UNL     1       3.119   3.562  18.675  0.00  0.00    +0.000 A 
ATOM     15  C   UNL     1       4.263   3.342  17.936  0.00  0.00    +0.000 A 
ATOM     16  C   UNL     1       4.762   4.401  17.195  0.00  0.00    +0.000 A 
ATOM     17  C   UNL     1       4.129   5.648  17.262  0.00  0.00    +0.000 A 
ATOM     18  C   UNL     1       3.173   5.940  18.232  0.00  0.00    +0.000 A 
ATOM     19  N   UNL     1       2.738   7.190  18.477  0.00  0.00    +0.000 NA
ATOM     20  C   UNL     1       0.556   9.066  20.843  0.00  0.00    +0.000 C 
ENDBRANCH   6   7
BRANCH   1  24
ATOM     21  C   UNL     1      -5.283  11.891  18.433  0.00  0.00    +0.000 A 
ATOM     22  C   UNL     1      -5.087  12.412  19.667  0.00  0.00    +0.000 A 
ATOM     23  C   UNL     1      -3.799  12.609  20.138  0.00  0.00    +0.000 A 
ATOM     24  C   UNL     1      -2.685  12.202  19.417  0.00  0.00    +0.000 A 
ATOM     25  C   UNL     1      -2.990  11.650  18.146  0.00  0.00    +0.000 A 
ATOM     26  N   UNL     1      -4.268  11.519  17.649  0.00  0.00    +0.000 NA
BRANCH  21  28
ATOM     27  C   UNL     1      -7.417  12.672  18.809  0.00  0.00    +0.000 C 
ATOM     28  O   UNL     1      -6.587  11.846  17.994  0.00  0.00    +0.000 OA
ENDBRANCH  21  28
BRANCH  25  29
ATOM     29  O   UNL     1      -1.965  11.250  17.313  0.00  0.00    +0.000 OA
ATOM     30  C   UNL     1      -2.270  10.062  16.573  0.00  0.00    +0.000 C 
ENDBRANCH  25  29
ENDBRANCH   1  24
TORSDOF 4
ENDMDL
MODEL 8
REMARK VINA RESULT:      -7.9      6.288     10.184
REMARK  Name = 
REMARK  6 active torsions:
REMARK  status: ('A' for Active; 'I' for Inactive)
REMARK    1  A    between atoms: C_1  and  O_2
REMARK    2  A    between atoms: O_2  and  C_3
REMARK    3  A    between atoms: C_6  and  C_7
REMARK    4  A    between atoms: C_12  and  C_13
REMARK    5  A    between atoms: C_27  and  O_28
REMARK    6  A    between atoms: O_28  and  C_29
REMARK                            x       y       z     vdW  Elec       q    Type
REMARK                         _______ _______ _______ _____ _____    ______ ____
ROOT
ATOM      1  C   UNL     1       9.407  13.529  18.206  0.00  0.00    +0.000 A 
ATOM      2  N   UNL     1      10.446  14.346  17.841  0.00  0.00    +0.000 NA
ATOM      3  C   UNL     1      11.656  13.788  17.665  0.00  0.00    +0.000 A 
ATOM      4  C   UNL     1      11.893  12.450  17.842  0.00  0.00    +0.000 A 
ATOM      5  N   UNL     1      10.907  11.609  18.195  0.00  0.00    +0.000 NA
ATOM      6  C   UNL     1       9.627  12.129  18.368  0.00  0.00    +0.000 A 
ENDROOT
BRANCH   6   7
ATOM      7  C   UNL     1       8.645  10.907  18.655  0.00  0.00    +0.000 C 
ATOM      8  C   UNL     1       7.708  10.233  17.644  0.00  0.00    +0.000 C 
ATOM      9  N   UNL     1       8.421   9.001  17.861  0.00  0.00    +0.000 N 
ATOM     10  C   UNL     1       7.802   7.732  17.832  0.00  0.00    +0.000 A 
ATOM     11  C   UNL     1       8.101   6.792  18.802  0.00  0.00    +0.000 A 
ATOM     12  C   UNL     1       7.279   5.685  18.947  0.00  0.00    +0.000 A 
ATOM     13  C   UNL     1       6.283   5.458  18.002  0.00  0.00    +0.000 A 
ATOM     14  C   UNL     1       5.446   4.350  18.083  0.00  0.00    +0.000 A 
ATOM     15  C   UNL     1       5.002   3.757  16.919  0.00  0.00    +0.000 A 
ATOM     16  C   UNL     1       4.989   4.529  15.769  0.00  0.00    +0.000 A 
ATOM     17  C   UNL     1       5.466   5.845  15.816  0.00  0.00    +0.000 A 
ATOM     18  C   UNL     1       6.186   6.331  16.904  0.00  0.00    +0.000 A 
ATOM     19  N   UNL     1       6.865   7.492  16.872  0.00  0.00    +0.000 NA
ATOM     20  C   UNL     1       9.200   9.519  18.950  0.00  0.00    +0.000 C 
ENDBRANCH   6   7
BRANCH   1  24
ATOM     21  C   UNL     1       5.674  15.444  19.072  0.00  0.00    +0.000 A 
ATOM     22  C   UNL     1       5.881  14.836  17.881  0.00  0.00    +0.000 A 
ATOM     23  C   UNL     1       7.093  14.216  17.622  0.00  0.00    +0.000 A 
ATOM     24  C   UNL     1       8.152  14.275  18.519  0.00  0.00    +0.000 A 
ATOM     25  C   UNL     1       7.846  14.949  19.729  0.00  0.00    +0.000 A 
ATOM     26  N   UNL     1       6.618  15.504  20.014  0.00  0.00    +0.000 NA
BRANCH  21  28
ATOM     27  C   UNL     1       3.579  15.709  18.147  0.00  0.00    +0.000 C 
ATOM     28  O   UNL     1       4.401  15.923  19.294  0.00  0.00    +0.000 OA
ENDBRANCH  21  28
BRANCH  25  29
ATOM     29  O   UNL     1       8.801  15.035  20.721  0.00  0.00    +0.000 OA
ATOM     30  C   UNL     1       8.570  14.131  21.807  0.00  0.00    +0.000 C 
ENDBRANCH  25  29
ENDBRANCH   1  24
TORSDOF 4
ENDMDL
MODEL 9
REMARK VINA RESULT:      -7.9      4.227      9.872
REMARK  Name = 
REMARK  6 active torsions:
REMARK  status: ('A' for Active; 'I' for Inactive)
REMARK    1  A    between atoms: C_1  and  O_2
REMARK    2  A    between atoms: O_2  and  C_3
REMARK    3  A    between atoms: C_6  and  C_7
REMARK    4  A    between atoms: C_12  and  C_13
REMARK    5  A    between atoms: C_27  and  O_28
REMARK    6  A    between atoms: O_28  and  C_29
REMARK                            x       y       z     vdW  Elec       q    Type
REMARK                         _______ _______ _______ _____ _____    ______ ____
ROOT
ATOM      1  C   UNL     1      -0.302  12.519  18.682  0.00  0.00    +0.000 A 
ATOM      2  N   UNL     1       0.095  13.829  18.592  0.00  0.00    +0.000 NA
ATOM      3  C   UNL     1       1.411  14.095  18.662  0.00  0.00    +0.000 A 
ATOM      4  C   UNL     1       2.362  13.122  18.825  0.00  0.00    +0.000 A 
ATOM      5  N   UNL     1       2.021  11.824  18.913  0.00  0.00    +0.000 NA
ATOM      6  C   UNL     1       0.673  11.488  18.824  0.00  0.00    +0.000 A 
ENDROOT
BRANCH   6   7
ATOM      7  C   UNL     1       0.572   9.898  18.830  0.00  0.00    +0.000 C 
ATOM      8  C   UNL     1       1.329   8.932  17.910  0.00  0.00    +0.000 C 
ATOM      9  N   UNL     1       1.936   8.352  19.080  0.00  0.00    +0.000 N 
ATOM     10  C   UNL     1       2.253   6.980  19.190  0.00  0.00    +0.000 A 
ATOM     11  C   UNL     1       1.958   6.292  20.353  0.00  0.00    +0.000 A 
ATOM     12  C   UNL     1       1.986   4.905  20.343  0.00  0.00    +0.000 A 
ATOM     13  C   UNL     1       2.481   4.250  19.219  0.00  0.00    +0.000 A 
ATOM     14  C   UNL     1       2.557   2.862  19.164  0.00  0.00    +0.000 A 
ATOM     15  C   UNL     1       3.595   2.273  18.473  0.00  0.00    +0.000 A 
ATOM     16  C   UNL     1       4.217   3.022  17.487  0.00  0.00    +0.000 A 
ATOM     17  C   UNL     1       3.812   4.344  17.266  0.00  0.00    +0.000 A 
ATOM     18  C   UNL     1       2.986   5.022  18.159  0.00  0.00    +0.000 A 
ATOM     19  N   UNL     1       2.788   6.352  18.106  0.00  0.00    +0.000 NA
ATOM     20  C   UNL     1       1.119   9.091  20.001  0.00  0.00    +0.000 C 
ENDBRANCH   6   7
BRANCH   1  24
ATOM     21  C   UNL     1      -4.522  11.793  18.825  0.00  0.00    +0.000 A 
ATOM     22  C   UNL     1      -3.803  11.484  17.721  0.00  0.00    +0.000 A 
ATOM     23  C   UNL     1      -2.437  11.721  17.696  0.00  0.00    +0.000 A 
ATOM     24  C   UNL     1      -1.786  12.356  18.745  0.00  0.00    +0.000 A 
ATOM     25  C   UNL     1      -2.625  12.659  19.849  0.00  0.00    +0.000 A 
ATOM     26  N   UNL     1      -3.968  12.359  19.900  0.00  0.00    +0.000 NA
BRANCH  21  28
ATOM     27  C   UNL     1      -6.531  12.017  17.718  0.00  0.00    +0.000 C 
ATOM     28  O   UNL     1      -5.845  11.410  18.812  0.00  0.00    +0.000 OA
ENDBRANCH  21  28
BRANCH  25  29
ATOM     29  O   UNL     1      -2.086  13.249  20.972  0.00  0.00    +0.000 OA
ATOM     30  C   UNL     1      -1.790  12.313  22.015  0.00  0.00    +0.000 C 
ENDBRANCH  25  29
ENDBRANCH   1  24
TORSDOF 4
ENDMDL
