MODEL 1
REMARK VINA RESULT:      -6.4      0.000      0.000
REMARK  Name = 
REMARK  7 active torsions:
REMARK  status: ('A' for Active; 'I' for Inactive)
REMARK    1  A    between atoms: C_1  and  O_2
REMARK    2  A    between atoms: O_2  and  C_3
REMARK    3  A    between atoms: C_6  and  C_7
REMARK    4  A    between atoms: C_11  and  C_12
REMARK    5  A    between atoms: C_12  and  N_13
REMARK    6  A    between atoms: C_16  and  O_17
REMARK    7  A    between atoms: O_17  and  C_18
REMARK                            x       y       z     vdW  Elec       q    Type
REMARK                         _______ _______ _______ _____ _____    ______ ____
ROOT
ATOM      1  C   UNL     1       5.839   5.022  16.511  0.00  0.00    +0.000 A 
ATOM      2  C   UNL     1       4.920   4.040  16.930  0.00  0.00    +0.000 A 
ATOM      3  C   UNL     1       3.848   4.349  17.797  0.00  0.00    +0.000 A 
ATOM      4  C   UNL     1       2.908   3.363  18.218  0.00  0.00    +0.000 A 
ATOM      5  C   UNL     1       1.842   3.769  19.034  0.00  0.00    +0.000 A 
ATOM      6  N   UNL     1       1.701   5.062  19.403  0.00  0.00    +0.000 NA
ATOM      7  C   UNL     1       2.581   6.031  19.044  0.00  0.00    +0.000 A 
ATOM      8  C   UNL     1       3.700   5.691  18.239  0.00  0.00    +0.000 A 
ATOM      9  C   UNL     1       4.650   6.653  17.852  0.00  0.00    +0.000 A 
ATOM     10  C   UNL     1       5.726   6.336  17.017  0.00  0.00    +0.000 A 
ENDROOT
BRANCH   1  12
ATOM     11  C   UNL     1       6.655   4.430  14.280  0.00  0.00    +0.000 C 
ATOM     12  O   UNL     1       6.827   4.714  15.625  0.00  0.00    +0.000 OA
ENDBRANCH   1  12
BRANCH   4  13
ATOM     13  C   UNL     1       2.990   1.920  17.840  0.00  0.00    +0.000 C 
ATOM     14  O   UNL     1       3.661   1.138  18.498  0.00  0.00    +0.000 OA
ENDBRANCH   4  13
BRANCH  10  15
ATOM     15  O   UNL     1       6.592   7.352  16.733  0.00  0.00    +0.000 OA
ATOM     16  C   UNL     1       7.638   7.824  17.497  0.00  0.00    +0.000 C 
ENDBRANCH  10  15
BRANCH   7  17
ATOM     17  C   UNL     1       2.270   7.442  19.483  0.00  0.00    +0.000 C 
BRANCH  17  18
ATOM     18  N   UNL     1       1.891   7.500  20.889  0.00  0.00    +0.000 NA
ATOM     19  H   UNL     1       0.861   7.335  20.966  0.00  0.00    +0.000 HD
ATOM     20  H   UNL     1       2.079   8.470  21.233  0.00  0.00    +0.000 HD
ENDBRANCH  17  18
ENDBRANCH   7  17
TORSDOF 5
ENDMDL
MODEL 2
REMARK VINA RESULT:      -6.3      2.990      5.059
REMARK  Name = 
REMARK  7 active torsions:
REMARK  status: ('A' for Active; 'I' for Inactive)
REMARK    1  A    between atoms: C_1  and  O_2
REMARK    2  A    between atoms: O_2  and  C_3
REMARK    3  A    between atoms: C_6  and  C_7
REMARK    4  A    between atoms: C_11  and  C_12
REMARK    5  A    between atoms: C_12  and  N_13
REMARK    6  A    between atoms: C_16  and  O_17
REMARK    7  A    between atoms: O_17  and  C_18
REMARK                            x       y       z     vdW  Elec       q    Type
REMARK                         _______ _______ _______ _____ _____    ______ ____
ROOT
ATOM      1  C   UNL     1       3.032   4.011  17.992  0.00  0.00    +0.000 A 
ATOM      2  C   UNL     1       3.797   3.980  16.808  0.00  0.00    +0.000 A 
ATOM      3  C   UNL     1       5.089   4.548  16.744  0.00  0.00    +0.000 A 
ATOM      4  C   UNL     1       5.871   4.514  15.553  0.00  0.00    +0.000 A 
ATOM      5  C   UNL     1       7.166   5.052  15.595  0.00  0.00    +0.000 A 
ATOM      6  N   UNL     1       7.663   5.580  16.736  0.00  0.00    +0.000 NA
ATOM      7  C   UNL     1       6.949   5.654  17.887  0.00  0.00    +0.000 A 
ATOM      8  C   UNL     1       5.621   5.152  17.915  0.00  0.00    +0.000 A 
ATOM      9  C   UNL     1       4.831   5.218  19.077  0.00  0.00    +0.000 A 
ATOM     10  C   UNL     1       3.542   4.679  19.126  0.00  0.00    +0.000 A 
ENDROOT
BRANCH   1  12
ATOM     11  C   UNL     1       1.547   2.172  18.629  0.00  0.00    +0.000 C 
ATOM     12  O   UNL     1       1.815   3.401  18.047  0.00  0.00    +0.000 OA
ENDBRANCH   1  12
BRANCH   4  13
ATOM     13  C   UNL     1       5.395   3.935  14.261  0.00  0.00    +0.000 C 
ATOM     14  O   UNL     1       6.189   3.620  13.386  0.00  0.00    +0.000 OA
ENDBRANCH   4  13
BRANCH  10  15
ATOM     15  O   UNL     1       2.869   4.828  20.304  0.00  0.00    +0.000 OA
ATOM     16  C   UNL     1       1.843   5.700  20.600  0.00  0.00    +0.000 C 
ENDBRANCH  10  15
BRANCH   7  17
ATOM     17  C   UNL     1       7.650   6.220  19.098  0.00  0.00    +0.000 C 
BRANCH  17  18
ATOM     18  N   UNL     1       8.344   5.186  19.854  0.00  0.00    +0.000 NA
ATOM     19  H   UNL     1       7.632   4.557  20.293  0.00  0.00    +0.000 HD
ATOM     20  H   UNL     1       8.870   5.652  20.629  0.00  0.00    +0.000 HD
ENDBRANCH  17  18
ENDBRANCH   7  17
TORSDOF 5
ENDMDL
MODEL 3
REMARK VINA RESULT:      -6.3      1.976      3.902
REMARK  Name = 
REMARK  7 active torsions:
REMARK  status: ('A' for Active; 'I' for Inactive)
REMARK    1  A    between atoms: C_1  and  O_2
REMARK    2  A    between atoms: O_2  and  C_3
REMARK    3  A    between atoms: C_6  and  C_7
REMARK    4  A    between atoms: C_11  and  C_12
REMARK    5  A    between atoms: C_12  and  N_13
REMARK    6  A    between atoms: C_16  and  O_17
REMARK    7  A    between atoms: O_17  and  C_18
REMARK                            x       y       z     vdW  Elec       q    Type
REMARK                         _______ _______ _______ _____ _____    ______ ____
ROOT
ATOM      1  C   UNL     1       5.576   6.257  16.970  0.00  0.00    +0.000 A 
ATOM      2  C   UNL     1       4.534   6.500  17.887  0.00  0.00    +0.000 A 
ATOM      3  C   UNL     1       3.647   5.478  18.291  0.00  0.00    +0.000 A 
ATOM      4  C   UNL     1       2.596   5.715  19.225  0.00  0.00    +0.000 A 
ATOM      5  C   UNL     1       1.796   4.629  19.613  0.00  0.00    +0.000 A 
ATOM      6  N   UNL     1       2.022   3.389  19.123  0.00  0.00    +0.000 NA
ATOM      7  C   UNL     1       2.995   3.120  18.217  0.00  0.00    +0.000 A 
ATOM      8  C   UNL     1       3.829   4.174  17.758  0.00  0.00    +0.000 A 
ATOM      9  C   UNL     1       4.842   3.953  16.808  0.00  0.00    +0.000 A 
ATOM     10  C   UNL     1       5.700   4.975  16.391  0.00  0.00    +0.000 A 
ENDROOT
BRANCH   1  12
ATOM     11  C   UNL     1       7.533   7.659  17.413  0.00  0.00    +0.000 C 
ATOM     12  O   UNL     1       6.458   7.242  16.644  0.00  0.00    +0.000 OA
ENDBRANCH   1  12
BRANCH   4  13
ATOM     13  C   UNL     1       2.296   7.052  19.820  0.00  0.00    +0.000 C 
ATOM     14  O   UNL     1       1.552   7.155  20.784  0.00  0.00    +0.000 OA
ENDBRANCH   4  13
BRANCH  10  15
ATOM     15  O   UNL     1       6.627   4.639  15.446  0.00  0.00    +0.000 OA
ATOM     16  C   UNL     1       6.427   4.009  14.237  0.00  0.00    +0.000 C 
ENDBRANCH  10  15
BRANCH   7  17
ATOM     17  C   UNL     1       3.167   1.680  17.797  0.00  0.00    +0.000 C 
BRANCH  17  18
ATOM     18  N   UNL     1       4.155   0.992  18.619  0.00  0.00    +0.000 NA
ATOM     19  H   UNL     1       4.964   0.722  18.014  0.00  0.00    +0.000 HD
ATOM     20  H   UNL     1       3.720   0.107  18.971  0.00  0.00    +0.000 HD
ENDBRANCH  17  18
ENDBRANCH   7  17
TORSDOF 5
ENDMDL
MODEL 4
REMARK VINA RESULT:      -6.3      3.129      4.924
REMARK  Name = 
REMARK  7 active torsions:
REMARK  status: ('A' for Active; 'I' for Inactive)
REMARK    1  A    between atoms: C_1  and  O_2
REMARK    2  A    between atoms: O_2  and  C_3
REMARK    3  A    between atoms: C_6  and  C_7
REMARK    4  A    between atoms: C_11  and  C_12
REMARK    5  A    between atoms: C_12  and  N_13
REMARK    6  A    between atoms: C_16  and  O_17
REMARK    7  A    between atoms: O_17  and  C_18
REMARK                            x       y       z     vdW  Elec       q    Type
REMARK                         _______ _______ _______ _____ _____    ______ ____
ROOT
ATOM      1  C   UNL     1       2.016   7.052  20.012  0.00  0.00    +0.000 A 
ATOM      2  C   UNL     1       1.818   5.719  20.425  0.00  0.00    +0.000 A 
ATOM      3  C   UNL     1       2.271   4.627  19.651  0.00  0.00    +0.000 A 
ATOM      4  C   UNL     1       2.083   3.277  20.067  0.00  0.00    +0.000 A 
ATOM      5  C   UNL     1       2.615   2.255  19.265  0.00  0.00    +0.000 A 
ATOM      6  N   UNL     1       3.297   2.544  18.133  0.00  0.00    +0.000 NA
ATOM      7  C   UNL     1       3.482   3.812  17.687  0.00  0.00    +0.000 A 
ATOM      8  C   UNL     1       2.951   4.897  18.433  0.00  0.00    +0.000 A 
ATOM      9  C   UNL     1       3.100   6.229  18.007  0.00  0.00    +0.000 A 
ATOM     10  C   UNL     1       2.626   7.304  18.764  0.00  0.00    +0.000 A 
ENDROOT
BRANCH   1  12
ATOM     11  C   UNL     1       0.343   8.315  21.277  0.00  0.00    +0.000 C 
ATOM     12  O   UNL     1       1.626   8.089  20.805  0.00  0.00    +0.000 OA
ENDBRANCH   1  12
BRANCH   4  13
ATOM     13  C   UNL     1       1.355   2.882  21.311  0.00  0.00    +0.000 C 
ATOM     14  O   UNL     1       1.957   2.716  22.362  0.00  0.00    +0.000 OA
ENDBRANCH   4  13
BRANCH  10  15
ATOM     15  O   UNL     1       2.811   8.548  18.231  0.00  0.00    +0.000 OA
ATOM     16  C   UNL     1       1.858   9.451  17.812  0.00  0.00    +0.000 C 
ENDBRANCH  10  15
BRANCH   7  17
ATOM     17  C   UNL     1       4.309   3.988  16.436  0.00  0.00    +0.000 C 
BRANCH  17  18
ATOM     18  N   UNL     1       5.701   3.616  16.651  0.00  0.00    +0.000 NA
ATOM     19  H   UNL     1       6.241   4.475  16.907  0.00  0.00    +0.000 HD
ATOM     20  H   UNL     1       6.085   3.266  15.743  0.00  0.00    +0.000 HD
ENDBRANCH  17  18
ENDBRANCH   7  17
TORSDOF 5
ENDMDL
MODEL 5
REMARK VINA RESULT:      -6.2      3.282      5.851
REMARK  Name = 
REMARK  7 active torsions:
REMARK  status: ('A' for Active; 'I' for Inactive)
REMARK    1  A    between atoms: C_1  and  O_2
REMARK    2  A    between atoms: O_2  and  C_3
REMARK    3  A    between atoms: C_6  and  C_7
REMARK    4  A    between atoms: C_11  and  C_12
REMARK    5  A    between atoms: C_12  and  N_13
REMARK    6  A    between atoms: C_16  and  O_17
REMARK    7  A    between atoms: O_17  and  C_18
REMARK                            x       y       z     vdW  Elec       q    Type
REMARK                         _______ _______ _______ _____ _____    ______ ____
ROOT
ATOM      1  C   UNL     1       3.333   4.726  19.353  0.00  0.00    +0.000 A 
ATOM      2  C   UNL     1       4.688   5.112  19.391  0.00  0.00    +0.000 A 
ATOM      3  C   UNL     1       5.536   4.954  18.272  0.00  0.00    +0.000 A 
ATOM      4  C   UNL     1       6.905   5.350  18.299  0.00  0.00    +0.000 A 
ATOM      5  C   UNL     1       7.660   5.209  17.125  0.00  0.00    +0.000 A 
ATOM      6  N   UNL     1       7.102   4.721  15.994  0.00  0.00    +0.000 NA
ATOM      7  C   UNL     1       5.810   4.312  15.926  0.00  0.00    +0.000 A 
ATOM      8  C   UNL     1       4.990   4.401  17.082  0.00  0.00    +0.000 A 
ATOM      9  C   UNL     1       3.649   3.976  17.071  0.00  0.00    +0.000 A 
ATOM     10  C   UNL     1       2.822   4.110  18.190  0.00  0.00    +0.000 A 
ENDROOT
BRANCH   1  12
ATOM     11  C   UNL     1       2.278   4.058  21.459  0.00  0.00    +0.000 C 
ATOM     12  O   UNL     1       2.519   4.947  20.423  0.00  0.00    +0.000 OA
ENDBRANCH   1  12
BRANCH   4  13
ATOM     13  C   UNL     1       7.586   5.910  19.505  0.00  0.00    +0.000 C 
ATOM     14  O   UNL     1       7.883   5.189  20.447  0.00  0.00    +0.000 OA
ENDBRANCH   4  13
BRANCH  10  15
ATOM     15  O   UNL     1       1.548   3.638  18.060  0.00  0.00    +0.000 OA
ATOM     16  C   UNL     1       1.020   2.456  18.534  0.00  0.00    +0.000 C 
ENDBRANCH  10  15
BRANCH   7  17
ATOM     17  C   UNL     1       5.307   3.839  14.583  0.00  0.00    +0.000 C 
BRANCH  17  18
ATOM     18  N   UNL     1       6.401   3.504  13.682  0.00  0.00    +0.000 NA
ATOM     19  H   UNL     1       6.834   4.392  13.336  0.00  0.00    +0.000 HD
ATOM     20  H   UNL     1       5.996   3.011  12.853  0.00  0.00    +0.000 HD
ENDBRANCH  17  18
ENDBRANCH   7  17
TORSDOF 5
ENDMDL
MODEL 6
REMARK VINA RESULT:      -6.1      2.956      5.043
REMARK  Name = 
REMARK  7 active torsions:
REMARK  status: ('A' for Active; 'I' for Inactive)
REMARK    1  A    between atoms: C_1  and  O_2
REMARK    2  A    between atoms: O_2  and  C_3
REMARK    3  A    between atoms: C_6  and  C_7
REMARK    4  A    between atoms: C_11  and  C_12
REMARK    5  A    between atoms: C_12  and  N_13
REMARK    6  A    between atoms: C_16  and  O_17
REMARK    7  A    between atoms: O_17  and  C_18
REMARK                            x       y       z     vdW  Elec       q    Type
REMARK                         _______ _______ _______ _____ _____    ______ ____
ROOT
ATOM      1  C   UNL     1       3.380   3.947  17.837  0.00  0.00    +0.000 A 
ATOM      2  C   UNL     1       4.033   3.874  16.590  0.00  0.00    +0.000 A 
ATOM      3  C   UNL     1       5.214   4.604  16.327  0.00  0.00    +0.000 A 
ATOM      4  C   UNL     1       5.884   4.529  15.072  0.00  0.00    +0.000 A 
ATOM      5  C   UNL     1       7.082   5.243  14.916  0.00  0.00    +0.000 A 
ATOM      6  N   UNL     1       7.593   5.974  15.933  0.00  0.00    +0.000 NA
ATOM      7  C   UNL     1       6.980   6.092  17.137  0.00  0.00    +0.000 A 
ATOM      8  C   UNL     1       5.750   5.418  17.361  0.00  0.00    +0.000 A 
ATOM      9  C   UNL     1       5.065   5.519  18.585  0.00  0.00    +0.000 A 
ATOM     10  C   UNL     1       3.881   4.816  18.830  0.00  0.00    +0.000 A 
ENDROOT
BRANCH   1  12
ATOM     11  C   UNL     1       2.262   1.975  18.763  0.00  0.00    +0.000 C 
ATOM     12  O   UNL     1       2.278   3.186  18.088  0.00  0.00    +0.000 OA
ENDBRANCH   1  12
BRANCH   4  13
ATOM     13  C   UNL     1       5.389   3.732  13.909  0.00  0.00    +0.000 C 
ATOM     14  O   UNL     1       6.098   3.546  12.931  0.00  0.00    +0.000 OA
ENDBRANCH   4  13
BRANCH  10  15
ATOM     15  O   UNL     1       3.299   5.017  20.048  0.00  0.00    +0.000 OA
ATOM     16  C   UNL     1       2.133   5.692  20.339  0.00  0.00    +0.000 C 
ENDBRANCH  10  15
BRANCH   7  17
ATOM     17  C   UNL     1       7.692   6.898  18.198  0.00  0.00    +0.000 C 
BRANCH  17  18
ATOM     18  N   UNL     1       7.958   8.260  17.754  0.00  0.00    +0.000 NA
ATOM     19  H   UNL     1       7.463   8.419  16.846  0.00  0.00    +0.000 HD
ATOM     20  H   UNL     1       8.985   8.343  17.569  0.00  0.00    +0.000 HD
ENDBRANCH  17  18
ENDBRANCH   7  17
TORSDOF 5
ENDMDL
MODEL 7
REMARK VINA RESULT:      -6.1      2.580      3.520
REMARK  Name = 
REMARK  7 active torsions:
REMARK  status: ('A' for Active; 'I' for Inactive)
REMARK    1  A    between atoms: C_1  and  O_2
REMARK    2  A    between atoms: O_2  and  C_3
REMARK    3  A    between atoms: C_6  and  C_7
REMARK    4  A    between atoms: C_11  and  C_12
REMARK    5  A    between atoms: C_12  and  N_13
REMARK    6  A    between atoms: C_16  and  O_17
REMARK    7  A    between atoms: O_17  and  C_18
REMARK                            x       y       z     vdW  Elec       q    Type
REMARK                         _______ _______ _______ _____ _____    ______ ____
ROOT
ATOM      1  C   UNL     1       5.902   4.274  14.435  0.00  0.00    +0.000 A 
ATOM      2  C   UNL     1       4.950   3.892  15.401  0.00  0.00    +0.000 A 
ATOM      3  C   UNL     1       5.166   4.108  16.781  0.00  0.00    +0.000 A 
ATOM      4  C   UNL     1       4.204   3.733  17.764  0.00  0.00    +0.000 A 
ATOM      5  C   UNL     1       4.476   4.036  19.107  0.00  0.00    +0.000 A 
ATOM      6  N   UNL     1       5.613   4.676  19.459  0.00  0.00    +0.000 NA
ATOM      7  C   UNL     1       6.566   5.033  18.562  0.00  0.00    +0.000 A 
ATOM      8  C   UNL     1       6.373   4.737  17.187  0.00  0.00    +0.000 A 
ATOM      9  C   UNL     1       7.336   5.071  16.217  0.00  0.00    +0.000 A 
ATOM     10  C   UNL     1       7.130   4.830  14.856  0.00  0.00    +0.000 A 
ENDROOT
BRANCH   1  12
ATOM     11  C   UNL     1       5.954   2.996  12.347  0.00  0.00    +0.000 C 
ATOM     12  O   UNL     1       5.644   4.113  13.107  0.00  0.00    +0.000 OA
ENDBRANCH   1  12
BRANCH   4  13
ATOM     13  C   UNL     1       2.920   3.037  17.449  0.00  0.00    +0.000 C 
ATOM     14  O   UNL     1       1.882   3.355  18.012  0.00  0.00    +0.000 OA
ENDBRANCH   4  13
BRANCH  10  15
ATOM     15  O   UNL     1       8.149   5.178  14.018  0.00  0.00    +0.000 OA
ATOM     16  C   UNL     1       8.073   5.788  12.784  0.00  0.00    +0.000 C 
ENDBRANCH  10  15
BRANCH   7  17
ATOM     17  C   UNL     1       7.761   5.791  19.090  0.00  0.00    +0.000 C 
BRANCH  17  18
ATOM     18  N   UNL     1       8.071   5.420  20.465  0.00  0.00    +0.000 NA
ATOM     19  H   UNL     1       7.199   5.496  21.037  0.00  0.00    +0.000 HD
ATOM     20  H   UNL     1       8.752   6.121  20.840  0.00  0.00    +0.000 HD
ENDBRANCH  17  18
ENDBRANCH   7  17
TORSDOF 5
ENDMDL
MODEL 8
REMARK VINA RESULT:      -6.0      2.805      5.792
REMARK  Name = 
REMARK  7 active torsions:
REMARK  status: ('A' for Active; 'I' for Inactive)
REMARK    1  A    between atoms: C_1  and  O_2
REMARK    2  A    between atoms: O_2  and  C_3
REMARK    3  A    between atoms: C_6  and  C_7
REMARK    4  A    between atoms: C_11  and  C_12
REMARK    5  A    between atoms: C_12  and  N_13
REMARK    6  A    between atoms: C_16  and  O_17
REMARK    7  A    between atoms: O_17  and  C_18
REMARK                            x       y       z     vdW  Elec       q    Type
REMARK                         _______ _______ _______ _____ _____    ______ ____
ROOT
ATOM      1  C   UNL     1       2.179   3.840  18.574  0.00  0.00    +0.000 A 
ATOM      2  C   UNL     1       2.350   5.227  18.394  0.00  0.00    +0.000 A 
ATOM      3  C   UNL     1       3.426   5.751  17.642  0.00  0.00    +0.000 A 
ATOM      4  C   UNL     1       3.600   7.152  17.449  0.00  0.00    +0.000 A 
ATOM      5  C   UNL     1       4.664   7.583  16.641  0.00  0.00    +0.000 A 
ATOM      6  N   UNL     1       5.494   6.693  16.052  0.00  0.00    +0.000 NA
ATOM      7  C   UNL     1       5.380   5.352  16.224  0.00  0.00    +0.000 A 
ATOM      8  C   UNL     1       4.343   4.842  17.049  0.00  0.00    +0.000 A 
ATOM      9  C   UNL     1       4.189   3.462  17.274  0.00  0.00    +0.000 A 
ATOM     10  C   UNL     1       3.139   2.951  18.042  0.00  0.00    +0.000 A 
ENDROOT
BRANCH   1  12
ATOM     11  C   UNL     1       1.039   3.099  20.610  0.00  0.00    +0.000 C 
ATOM     12  O   UNL     1       1.100   3.356  19.249  0.00  0.00    +0.000 OA
ENDBRANCH   1  12
BRANCH   4  13
ATOM     13  C   UNL     1       2.716   8.193  18.054  0.00  0.00    +0.000 C 
ATOM     14  O   UNL     1       2.187   9.047  17.357  0.00  0.00    +0.000 OA
ENDBRANCH   4  13
BRANCH  10  15
ATOM     15  O   UNL     1       3.113   1.596  18.206  0.00  0.00    +0.000 OA
ATOM     16  C   UNL     1       3.988   0.802  18.916  0.00  0.00    +0.000 C 
ENDBRANCH  10  15
BRANCH   7  17
ATOM     17  C   UNL     1       6.345   4.474  15.463  0.00  0.00    +0.000 C 
BRANCH  17  18
ATOM     18  N   UNL     1       7.490   5.229  14.970  0.00  0.00    +0.000 NA
ATOM     19  H   UNL     1       8.358   4.849  15.414  0.00  0.00    +0.000 HD
ATOM     20  H   UNL     1       7.384   6.220  15.292  0.00  0.00    +0.000 HD
ENDBRANCH  17  18
ENDBRANCH   7  17
TORSDOF 5
ENDMDL
MODEL 9
REMARK VINA RESULT:      -6.0      2.579      4.667
REMARK  Name = 
REMARK  7 active torsions:
REMARK  status: ('A' for Active; 'I' for Inactive)
REMARK    1  A    between atoms: C_1  and  O_2
REMARK    2  A    between atoms: O_2  and  C_3
REMARK    3  A    between atoms: C_6  and  C_7
REMARK    4  A    between atoms: C_11  and  C_12
REMARK    5  A    between atoms: C_12  and  N_13
REMARK    6  A    between atoms: C_16  and  O_17
REMARK    7  A    between atoms: O_17  and  C_18
REMARK                            x       y       z     vdW  Elec       q    Type
REMARK                         _______ _______ _______ _____ _____    ______ ____
ROOT
ATOM      1  C   UNL     1       2.596   7.439  18.784  0.00  0.00    +0.000 A 
ATOM      2  C   UNL     1       3.131   6.415  17.976  0.00  0.00    +0.000 A 
ATOM      3  C   UNL     1       3.045   5.055  18.349  0.00  0.00    +0.000 A 
ATOM      4  C   UNL     1       3.575   4.014  17.532  0.00  0.00    +0.000 A 
ATOM      5  C   UNL     1       3.396   2.686  17.951  0.00  0.00    +0.000 A 
ATOM      6  N   UNL     1       2.729   2.401  19.092  0.00  0.00    +0.000 NA
ATOM      7  C   UNL     1       2.226   3.359  19.911  0.00  0.00    +0.000 A 
ATOM      8  C   UNL     1       2.391   4.726  19.566  0.00  0.00    +0.000 A 
ATOM      9  C   UNL     1       1.902   5.759  20.387  0.00  0.00    +0.000 A 
ATOM     10  C   UNL     1       2.015   7.105  20.027  0.00  0.00    +0.000 A 
ENDROOT
BRANCH   1  12
ATOM     11  C   UNL     1       1.590   9.440  17.796  0.00  0.00    +0.000 C 
ATOM     12  O   UNL     1       2.635   8.737  18.375  0.00  0.00    +0.000 OA
ENDBRANCH   1  12
BRANCH   4  13
ATOM     13  C   UNL     1       4.310   4.250  16.253  0.00  0.00    +0.000 C 
ATOM     14  O   UNL     1       5.486   3.936  16.140  0.00  0.00    +0.000 OA
ENDBRANCH   4  13
BRANCH  10  15
ATOM     15  O   UNL     1       1.523   8.013  20.920  0.00  0.00    +0.000 OA
ATOM     16  C   UNL     1       0.206   8.304  21.208  0.00  0.00    +0.000 C 
ENDBRANCH  10  15
BRANCH   7  17
ATOM     17  C   UNL     1       1.458   2.894  21.125  0.00  0.00    +0.000 C 
BRANCH  17  18
ATOM     18  N   UNL     1       2.345   2.552  22.229  0.00  0.00    +0.000 NA
ATOM     19  H   UNL     1       1.773   2.144  23.004  0.00  0.00    +0.000 HD
ATOM     20  H   UNL     1       2.769   3.439  22.588  0.00  0.00    +0.000 HD
ENDBRANCH  17  18
ENDBRANCH   7  17
TORSDOF 5
ENDMDL
