MODEL 1
REMARK VINA RESULT:      -7.6      0.000      0.000
REMARK  Name = 
REMARK  6 active torsions:
REMARK  status: ('A' for Active; 'I' for Inactive)
REMARK    1  A    between atoms: C_1  and  N_2
REMARK    2  A    between atoms: C_4  and  C_5
REMARK    3  A    between atoms: C_8  and  N_9
REMARK    4  A    between atoms: C_10  and  O_11
REMARK    5  A    between atoms: O_11  and  C_12
REMARK    6  A    between atoms: C_12  and  C_13
REMARK                            x       y       z     vdW  Elec       q    Type
REMARK                         _______ _______ _______ _____ _____    ______ ____
ROOT
ATOM      1  C   UNL     1       6.381   4.633  15.662  0.00  0.00    +0.000 A 
ATOM      2  C   UNL     1       7.584   4.393  16.323  0.00  0.00    +0.000 A 
ATOM      3  N   UNL     1       7.775   4.654  17.640  0.00  0.00    +0.000 NA
ATOM      4  C   UNL     1       6.721   5.180  18.291  0.00  0.00    +0.000 A 
ATOM      5  C   UNL     1       5.512   5.452  17.622  0.00  0.00    +0.000 A 
ATOM      6  N   UNL     1       5.326   5.189  16.305  0.00  0.00    +0.000 NA
ENDROOT
BRANCH   1  10
ATOM      7  C   UNL     1       4.329   3.116  11.404  0.00  0.00    +0.000 C 
ATOM      8  N   UNL     1       5.260   3.588  12.400  0.00  0.00    +0.000 N 
ATOM      9  C   UNL     1       4.998   3.867  13.708  0.00  0.00    +0.000 A 
ATOM     10  C   UNL     1       6.195   4.269  14.271  0.00  0.00    +0.000 A 
ATOM     11  C   UNL     1       7.113   4.187  13.197  0.00  0.00    +0.000 A 
ATOM     12  N   UNL     1       6.548   3.779  12.059  0.00  0.00    +0.000 NA
ENDBRANCH   1  10
BRANCH   4  13
ATOM     13  N   UNL     1       6.907   5.387  19.658  0.00  0.00    +0.000 N 
ATOM     14  H   UNL     1       6.272   4.762  20.148  0.00  0.00    +0.000 HD
ATOM     15  H   UNL     1       7.876   5.255  19.922  0.00  0.00    +0.000 HD
ENDBRANCH   4  13
BRANCH   5  16
ATOM     16  O   UNL     1       4.465   5.979  18.359  0.00  0.00    +0.000 OA
BRANCH  16  17
ATOM     17  C   UNL     1       3.191   5.784  17.734  0.00  0.00    +0.000 C 
BRANCH  17  18
ATOM     18  C   UNL     1       2.387   4.698  18.428  0.00  0.00    +0.000 A 
ATOM     19  C   UNL     1       2.197   3.438  17.835  0.00  0.00    +0.000 A 
ATOM     20  C   UNL     1       1.432   2.453  18.466  0.00  0.00    +0.000 A 
ATOM     21  C   UNL     1       0.835   2.711  19.696  0.00  0.00    +0.000 A 
ATOM     22  C   UNL     1       0.996   3.959  20.293  0.00  0.00    +0.000 A 
ATOM     23  C   UNL     1       1.762   4.946  19.664  0.00  0.00    +0.000 A 
ATOM     24 CL   UNL     1       1.892   6.478  20.457  0.00  0.00    +0.000 Cl
ENDBRANCH  17  18
ENDBRANCH  16  17
ENDBRANCH   5  16
TORSDOF 5
ENDMDL
MODEL 2
REMARK VINA RESULT:      -7.5      1.162      1.547
REMARK  Name = 
REMARK  6 active torsions:
REMARK  status: ('A' for Active; 'I' for Inactive)
REMARK    1  A    between atoms: C_1  and  N_2
REMARK    2  A    between atoms: C_4  and  C_5
REMARK    3  A    between atoms: C_8  and  N_9
REMARK    4  A    between atoms: C_10  and  O_11
REMARK    5  A    between atoms: O_11  and  C_12
REMARK    6  A    between atoms: C_12  and  C_13
REMARK                            x       y       z     vdW  Elec       q    Type
REMARK                         _______ _______ _______ _____ _____    ______ ____
ROOT
ATOM      1  C   UNL     1       6.375   4.652  15.659  0.00  0.00    +0.000 A 
ATOM      2  C   UNL     1       7.558   4.375  16.341  0.00  0.00    +0.000 A 
ATOM      3  N   UNL     1       7.738   4.641  17.658  0.00  0.00    +0.000 NA
ATOM      4  C   UNL     1       6.693   5.209  18.289  0.00  0.00    +0.000 A 
ATOM      5  C   UNL     1       5.505   5.517  17.598  0.00  0.00    +0.000 A 
ATOM      6  N   UNL     1       5.331   5.250  16.281  0.00  0.00    +0.000 NA
ENDROOT
BRANCH   1  10
ATOM      7  C   UNL     1       4.358   3.096  11.398  0.00  0.00    +0.000 C 
ATOM      8  N   UNL     1       5.279   3.584  12.395  0.00  0.00    +0.000 N 
ATOM      9  C   UNL     1       5.009   3.861  13.703  0.00  0.00    +0.000 A 
ATOM     10  C   UNL     1       6.199   4.283  14.268  0.00  0.00    +0.000 A 
ATOM     11  C   UNL     1       7.120   4.215  13.196  0.00  0.00    +0.000 A 
ATOM     12  N   UNL     1       6.564   3.795  12.058  0.00  0.00    +0.000 NA
ENDBRANCH   1  10
BRANCH   4  13
ATOM     13  N   UNL     1       6.864   5.421  19.657  0.00  0.00    +0.000 N 
ATOM     14  H   UNL     1       6.525   6.357  19.863  0.00  0.00    +0.000 HD
ATOM     15  H   UNL     1       6.400   4.702  20.202  0.00  0.00    +0.000 HD
ENDBRANCH   4  13
BRANCH   5  16
ATOM     16  O   UNL     1       4.466   6.087  18.315  0.00  0.00    +0.000 OA
BRANCH  16  17
ATOM     17  C   UNL     1       3.177   5.743  17.792  0.00  0.00    +0.000 C 
BRANCH  17  18
ATOM     18  C   UNL     1       2.435   4.791  18.715  0.00  0.00    +0.000 A 
ATOM     19  C   UNL     1       1.998   5.200  19.988  0.00  0.00    +0.000 A 
ATOM     20  C   UNL     1       1.341   4.312  20.844  0.00  0.00    +0.000 A 
ATOM     21  C   UNL     1       1.117   2.996  20.450  0.00  0.00    +0.000 A 
ATOM     22  C   UNL     1       1.558   2.565  19.200  0.00  0.00    +0.000 A 
ATOM     23  C   UNL     1       2.214   3.453  18.341  0.00  0.00    +0.000 A 
ATOM     24 CL   UNL     1       2.753   2.835  16.818  0.00  0.00    +0.000 Cl
ENDBRANCH  17  18
ENDBRANCH  16  17
ENDBRANCH   5  16
TORSDOF 5
ENDMDL
MODEL 3
REMARK VINA RESULT:      -7.5      3.461      4.844
REMARK  Name = 
REMARK  6 active torsions:
REMARK  status: ('A' for Active; 'I' for Inactive)
REMARK    1  A    between atoms: C_1  and  N_2
REMARK    2  A    between atoms: C_4  and  C_5
REMARK    3  A    between atoms: C_8  and  N_9
REMARK    4  A    between atoms: C_10  and  O_11
REMARK    5  A    between atoms: O_11  and  C_12
REMARK    6  A    between atoms: C_12  and  C_13
REMARK                            x       y       z     vdW  Elec       q    Type
REMARK                         _______ _______ _______ _____ _____    ______ ____
ROOT
ATOM      1  C   UNL     1       4.626   4.123  18.767  0.00  0.00    +0.000 A 
ATOM      2  C   UNL     1       4.464   2.878  19.373  0.00  0.00    +0.000 A 
ATOM      3  N   UNL     1       3.517   2.622  20.308  0.00  0.00    +0.000 NA
ATOM      4  C   UNL     1       2.725   3.659  20.638  0.00  0.00    +0.000 A 
ATOM      5  C   UNL     1       2.902   4.927  20.051  0.00  0.00    +0.000 A 
ATOM      6  N   UNL     1       3.851   5.178  19.117  0.00  0.00    +0.000 NA
ENDROOT
BRANCH   1  10
ATOM      7  C   UNL     1       6.770   4.476  14.304  0.00  0.00    +0.000 C 
ATOM      8  N   UNL     1       6.528   4.478  15.726  0.00  0.00    +0.000 N 
ATOM      9  C   UNL     1       5.344   4.244  16.362  0.00  0.00    +0.000 A 
ATOM     10  C   UNL     1       5.603   4.334  17.717  0.00  0.00    +0.000 A 
ATOM     11  C   UNL     1       6.987   4.624  17.775  0.00  0.00    +0.000 A 
ATOM     12  N   UNL     1       7.550   4.716  16.568  0.00  0.00    +0.000 NA
ENDBRANCH   1  10
BRANCH   4  13
ATOM     13  N   UNL     1       1.713   3.370  21.554  0.00  0.00    +0.000 N 
ATOM     14  H   UNL     1       0.964   2.911  21.042  0.00  0.00    +0.000 HD
ATOM     15  H   UNL     1       2.064   2.816  22.327  0.00  0.00    +0.000 HD
ENDBRANCH   4  13
BRANCH   5  16
ATOM     16  O   UNL     1       2.041   5.944  20.428  0.00  0.00    +0.000 OA
BRANCH  16  17
ATOM     17  C   UNL     1       2.286   7.169  19.728  0.00  0.00    +0.000 C 
BRANCH  17  18
ATOM     18  C   UNL     1       1.474   8.316  20.304  0.00  0.00    +0.000 A 
ATOM     19  C   UNL     1       1.040   8.303  21.642  0.00  0.00    +0.000 A 
ATOM     20  C   UNL     1       0.269   9.348  22.159  0.00  0.00    +0.000 A 
ATOM     21  C   UNL     1      -0.093  10.419  21.348  0.00  0.00    +0.000 A 
ATOM     22  C   UNL     1       0.311  10.443  20.014  0.00  0.00    +0.000 A 
ATOM     23  C   UNL     1       1.085   9.399  19.495  0.00  0.00    +0.000 A 
ATOM     24 CL   UNL     1       1.524   9.489  17.825  0.00  0.00    +0.000 Cl
ENDBRANCH  17  18
ENDBRANCH  16  17
ENDBRANCH   5  16
TORSDOF 5
ENDMDL
MODEL 4
REMARK VINA RESULT:      -7.3      1.553      1.766
REMARK  Name = 
REMARK  6 active torsions:
REMARK  status: ('A' for Active; 'I' for Inactive)
REMARK    1  A    between atoms: C_1  and  N_2
REMARK    2  A    between atoms: C_4  and  C_5
REMARK    3  A    between atoms: C_8  and  N_9
REMARK    4  A    between atoms: C_10  and  O_11
REMARK    5  A    between atoms: O_11  and  C_12
REMARK    6  A    between atoms: C_12  and  C_13
REMARK                            x       y       z     vdW  Elec       q    Type
REMARK                         _______ _______ _______ _____ _____    ______ ____
ROOT
ATOM      1  C   UNL     1       6.475   4.688  15.589  0.00  0.00    +0.000 A 
ATOM      2  C   UNL     1       7.371   5.696  15.941  0.00  0.00    +0.000 A 
ATOM      3  N   UNL     1       7.638   6.041  17.225  0.00  0.00    +0.000 NA
ATOM      4  C   UNL     1       6.970   5.350  18.167  0.00  0.00    +0.000 A 
ATOM      5  C   UNL     1       6.041   4.350  17.817  0.00  0.00    +0.000 A 
ATOM      6  N   UNL     1       5.778   4.009  16.532  0.00  0.00    +0.000 NA
ENDROOT
BRANCH   1  10
ATOM      7  C   UNL     1       4.372   3.128  11.371  0.00  0.00    +0.000 C 
ATOM      8  N   UNL     1       5.317   3.602  12.353  0.00  0.00    +0.000 N 
ATOM      9  C   UNL     1       5.068   3.910  13.658  0.00  0.00    +0.000 A 
ATOM     10  C   UNL     1       6.275   4.301  14.206  0.00  0.00    +0.000 A 
ATOM     11  C   UNL     1       7.185   4.183  13.129  0.00  0.00    +0.000 A 
ATOM     12  N   UNL     1       6.606   3.763  12.003  0.00  0.00    +0.000 NA
ENDBRANCH   1  10
BRANCH   4  13
ATOM     13  N   UNL     1       7.297   5.668  19.485  0.00  0.00    +0.000 N 
ATOM     14  H   UNL     1       7.497   4.795  19.966  0.00  0.00    +0.000 HD
ATOM     15  H   UNL     1       8.065   6.328  19.525  0.00  0.00    +0.000 HD
ENDBRANCH   4  13
BRANCH   5  16
ATOM     16  O   UNL     1       5.402   3.670  18.840  0.00  0.00    +0.000 OA
BRANCH  16  17
ATOM     17  C   UNL     1       4.204   3.014  18.408  0.00  0.00    +0.000 C 
BRANCH  17  18
ATOM     18  C   UNL     1       3.127   3.054  19.479  0.00  0.00    +0.000 A 
ATOM     19  C   UNL     1       3.351   2.522  20.760  0.00  0.00    +0.000 A 
ATOM     20  C   UNL     1       2.346   2.537  21.732  0.00  0.00    +0.000 A 
ATOM     21  C   UNL     1       1.097   3.074  21.439  0.00  0.00    +0.000 A 
ATOM     22  C   UNL     1       0.847   3.591  20.169  0.00  0.00    +0.000 A 
ATOM     23  C   UNL     1       1.852   3.578  19.196  0.00  0.00    +0.000 A 
ATOM     24 CL   UNL     1       1.456   4.214  17.637  0.00  0.00    +0.000 Cl
ENDBRANCH  17  18
ENDBRANCH  16  17
ENDBRANCH   5  16
TORSDOF 5
ENDMDL
MODEL 5
REMARK VINA RESULT:      -7.3      3.124      4.663
REMARK  Name = 
REMARK  6 active torsions:
REMARK  status: ('A' for Active; 'I' for Inactive)
REMARK    1  A    between atoms: C_1  and  N_2
REMARK    2  A    between atoms: C_4  and  C_5
REMARK    3  A    between atoms: C_8  and  N_9
REMARK    4  A    between atoms: C_10  and  O_11
REMARK    5  A    between atoms: O_11  and  C_12
REMARK    6  A    between atoms: C_12  and  C_13
REMARK                            x       y       z     vdW  Elec       q    Type
REMARK                         _______ _______ _______ _____ _____    ______ ____
ROOT
ATOM      1  C   UNL     1       4.053   3.876  17.992  0.00  0.00    +0.000 A 
ATOM      2  C   UNL     1       3.540   2.581  18.020  0.00  0.00    +0.000 A 
ATOM      3  N   UNL     1       2.409   2.242  18.686  0.00  0.00    +0.000 NA
ATOM      4  C   UNL     1       1.795   3.243  19.344  0.00  0.00    +0.000 A 
ATOM      5  C   UNL     1       2.324   4.548  19.344  0.00  0.00    +0.000 A 
ATOM      6  N   UNL     1       3.456   4.881  18.676  0.00  0.00    +0.000 NA
ENDROOT
BRANCH   1  10
ATOM      7  C   UNL     1       7.075   4.780  14.159  0.00  0.00    +0.000 C 
ATOM      8  N   UNL     1       6.542   4.600  15.487  0.00  0.00    +0.000 N 
ATOM      9  C   UNL     1       5.255   4.300  15.827  0.00  0.00    +0.000 A 
ATOM     10  C   UNL     1       5.225   4.210  17.206  0.00  0.00    +0.000 A 
ATOM     11  C   UNL     1       6.561   4.475  17.588  0.00  0.00    +0.000 A 
ATOM     12  N   UNL     1       7.362   4.716  16.548  0.00  0.00    +0.000 NA
ENDBRANCH   1  10
BRANCH   4  13
ATOM     13  N   UNL     1       0.599   2.899  19.974  0.00  0.00    +0.000 N 
ATOM     14  H   UNL     1       0.673   3.192  20.945  0.00  0.00    +0.000 HD
ATOM     15  H   UNL     1      -0.198   3.304  19.496  0.00  0.00    +0.000 HD
ENDBRANCH   4  13
BRANCH   5  16
ATOM     16  O   UNL     1       1.631   5.531  20.030  0.00  0.00    +0.000 OA
BRANCH  16  17
ATOM     17  C   UNL     1       2.442   6.672  20.336  0.00  0.00    +0.000 C 
BRANCH  17  18
ATOM     18  C   UNL     1       1.908   7.931  19.674  0.00  0.00    +0.000 A 
ATOM     19  C   UNL     1       2.175   8.213  18.322  0.00  0.00    +0.000 A 
ATOM     20  C   UNL     1       1.705   9.387  17.726  0.00  0.00    +0.000 A 
ATOM     21  C   UNL     1       0.971  10.305  18.470  0.00  0.00    +0.000 A 
ATOM     22  C   UNL     1       0.711  10.054  19.815  0.00  0.00    +0.000 A 
ATOM     23  C   UNL     1       1.178   8.878  20.414  0.00  0.00    +0.000 A 
ATOM     24 CL   UNL     1       0.836   8.652  22.094  0.00  0.00    +0.000 Cl
ENDBRANCH  17  18
ENDBRANCH  16  17
ENDBRANCH   5  16
TORSDOF 5
ENDMDL
MODEL 6
REMARK VINA RESULT:      -7.2      2.982      5.401
REMARK  Name = 
REMARK  6 active torsions:
REMARK  status: ('A' for Active; 'I' for Inactive)
REMARK    1  A    between atoms: C_1  and  N_2
REMARK    2  A    between atoms: C_4  and  C_5
REMARK    3  A    between atoms: C_8  and  N_9
REMARK    4  A    between atoms: C_10  and  O_11
REMARK    5  A    between atoms: O_11  and  C_12
REMARK    6  A    between atoms: C_12  and  C_13
REMARK                            x       y       z     vdW  Elec       q    Type
REMARK                         _______ _______ _______ _____ _____    ______ ____
ROOT
ATOM      1  C   UNL     1       3.832   6.755  18.047  0.00  0.00    +0.000 A 
ATOM      2  C   UNL     1       4.415   6.793  16.782  0.00  0.00    +0.000 A 
ATOM      3  N   UNL     1       5.328   5.886  16.355  0.00  0.00    +0.000 NA
ATOM      4  C   UNL     1       5.658   4.928  17.240  0.00  0.00    +0.000 A 
ATOM      5  C   UNL     1       5.094   4.900  18.530  0.00  0.00    +0.000 A 
ATOM      6  N   UNL     1       4.182   5.810  18.952  0.00  0.00    +0.000 NA
ENDROOT
BRANCH   1  10
ATOM      7  C   UNL     1       0.371   9.168  20.663  0.00  0.00    +0.000 C 
ATOM      8  N   UNL     1       1.272   8.748  19.618  0.00  0.00    +0.000 N 
ATOM      9  C   UNL     1       2.192   7.743  19.675  0.00  0.00    +0.000 A 
ATOM     10  C   UNL     1       2.805   7.702  18.436  0.00  0.00    +0.000 A 
ATOM     11  C   UNL     1       2.163   8.734  17.711  0.00  0.00    +0.000 A 
ATOM     12  N   UNL     1       1.236   9.373  18.427  0.00  0.00    +0.000 NA
ENDBRANCH   1  10
BRANCH   4  13
ATOM     13  N   UNL     1       6.550   3.963  16.771  0.00  0.00    +0.000 N 
ATOM     14  H   UNL     1       7.408   4.443  16.513  0.00  0.00    +0.000 HD
ATOM     15  H   UNL     1       6.695   3.231  17.457  0.00  0.00    +0.000 HD
ENDBRANCH   4  13
BRANCH   5  16
ATOM     16  O   UNL     1       5.469   3.876  19.383  0.00  0.00    +0.000 OA
BRANCH  16  17
ATOM     17  C   UNL     1       4.712   2.677  19.178  0.00  0.00    +0.000 C 
BRANCH  17  18
ATOM     18  C   UNL     1       3.301   2.806  19.725  0.00  0.00    +0.000 A 
ATOM     19  C   UNL     1       3.043   2.726  21.105  0.00  0.00    +0.000 A 
ATOM     20  C   UNL     1       1.739   2.817  21.600  0.00  0.00    +0.000 A 
ATOM     21  C   UNL     1       0.668   2.978  20.727  0.00  0.00    +0.000 A 
ATOM     22  C   UNL     1       0.899   3.042  19.355  0.00  0.00    +0.000 A 
ATOM     23  C   UNL     1       2.204   2.953  18.857  0.00  0.00    +0.000 A 
ATOM     24 CL   UNL     1       2.405   3.014  17.140  0.00  0.00    +0.000 Cl
ENDBRANCH  17  18
ENDBRANCH  16  17
ENDBRANCH   5  16
TORSDOF 5
ENDMDL
MODEL 7
REMARK VINA RESULT:      -7.1      3.640      5.048
REMARK  Name = 
REMARK  6 active torsions:
REMARK  status: ('A' for Active; 'I' for Inactive)
REMARK    1  A    between atoms: C_1  and  N_2
REMARK    2  A    between atoms: C_4  and  C_5
REMARK    3  A    between atoms: C_8  and  N_9
REMARK    4  A    between atoms: C_10  and  O_11
REMARK    5  A    between atoms: O_11  and  C_12
REMARK    6  A    between atoms: C_12  and  C_13
REMARK                            x       y       z     vdW  Elec       q    Type
REMARK                         _______ _______ _______ _____ _____    ______ ____
ROOT
ATOM      1  C   UNL     1       4.011   4.749  18.039  0.00  0.00    +0.000 A 
ATOM      2  C   UNL     1       3.437   3.479  18.060  0.00  0.00    +0.000 A 
ATOM      3  N   UNL     1       2.366   3.158  18.826  0.00  0.00    +0.000 NA
ATOM      4  C   UNL     1       1.877   4.150  19.593  0.00  0.00    +0.000 A 
ATOM      5  C   UNL     1       2.470   5.428  19.598  0.00  0.00    +0.000 A 
ATOM      6  N   UNL     1       3.541   5.743  18.830  0.00  0.00    +0.000 NA
ENDROOT
BRANCH   1  10
ATOM      7  C   UNL     1       7.046   4.826  14.111  0.00  0.00    +0.000 C 
ATOM      8  N   UNL     1       6.439   5.078  15.395  0.00  0.00    +0.000 N 
ATOM      9  C   UNL     1       5.275   4.555  15.876  0.00  0.00    +0.000 A 
ATOM     10  C   UNL     1       5.110   5.069  17.148  0.00  0.00    +0.000 A 
ATOM     11  C   UNL     1       6.246   5.892  17.327  0.00  0.00    +0.000 A 
ATOM     12  N   UNL     1       7.053   5.903  16.263  0.00  0.00    +0.000 NA
ENDBRANCH   1  10
BRANCH   4  13
ATOM     13  N   UNL     1       0.737   3.829  20.330  0.00  0.00    +0.000 N 
ATOM     14  H   UNL     1      -0.050   4.301  19.891  0.00  0.00    +0.000 HD
ATOM     15  H   UNL     1       0.611   2.825  20.396  0.00  0.00    +0.000 HD
ENDBRANCH   4  13
BRANCH   5  16
ATOM     16  O   UNL     1       1.904   6.405  20.400  0.00  0.00    +0.000 OA
BRANCH  16  17
ATOM     17  C   UNL     1       2.027   7.720  19.845  0.00  0.00    +0.000 C 
BRANCH  17  18
ATOM     18  C   UNL     1       1.171   8.726  20.595  0.00  0.00    +0.000 A 
ATOM     19  C   UNL     1       1.045   8.677  21.995  0.00  0.00    +0.000 A 
ATOM     20  C   UNL     1       0.233   9.588  22.677  0.00  0.00    +0.000 A 
ATOM     21  C   UNL     1      -0.476  10.557  21.974  0.00  0.00    +0.000 A 
ATOM     22  C   UNL     1      -0.380  10.612  20.585  0.00  0.00    +0.000 A 
ATOM     23  C   UNL     1       0.433   9.702  19.901  0.00  0.00    +0.000 A 
ATOM     24 CL   UNL     1       0.479   9.818  18.175  0.00  0.00    +0.000 Cl
ENDBRANCH  17  18
ENDBRANCH  16  17
ENDBRANCH   5  16
TORSDOF 5
ENDMDL
MODEL 8
REMARK VINA RESULT:      -7.1      2.996      5.430
REMARK  Name = 
REMARK  6 active torsions:
REMARK  status: ('A' for Active; 'I' for Inactive)
REMARK    1  A    between atoms: C_1  and  N_2
REMARK    2  A    between atoms: C_4  and  C_5
REMARK    3  A    between atoms: C_8  and  N_9
REMARK    4  A    between atoms: C_10  and  O_11
REMARK    5  A    between atoms: O_11  and  C_12
REMARK    6  A    between atoms: C_12  and  C_13
REMARK                            x       y       z     vdW  Elec       q    Type
REMARK                         _______ _______ _______ _____ _____    ______ ____
ROOT
ATOM      1  C   UNL     1       3.562   6.377  17.817  0.00  0.00    +0.000 A 
ATOM      2  C   UNL     1       4.898   6.567  17.466  0.00  0.00    +0.000 A 
ATOM      3  N   UNL     1       5.665   5.601  16.903  0.00  0.00    +0.000 NA
ATOM      4  C   UNL     1       5.060   4.415  16.704  0.00  0.00    +0.000 A 
ATOM      5  C   UNL     1       3.719   4.209  17.083  0.00  0.00    +0.000 A 
ATOM      6  N   UNL     1       2.957   5.178  17.645  0.00  0.00    +0.000 NA
ENDROOT
BRANCH   1  10
ATOM      7  C   UNL     1       0.744   9.138  20.830  0.00  0.00    +0.000 C 
ATOM      8  N   UNL     1       1.506   8.659  19.702  0.00  0.00    +0.000 N 
ATOM      9  C   UNL     1       2.211   7.495  19.616  0.00  0.00    +0.000 A 
ATOM     10  C   UNL     1       2.757   7.461  18.347  0.00  0.00    +0.000 A 
ATOM     11  C   UNL     1       2.306   8.664  17.755  0.00  0.00    +0.000 A 
ATOM     12  N   UNL     1       1.550   9.396  18.577  0.00  0.00    +0.000 NA
ENDBRANCH   1  10
BRANCH   4  13
ATOM     13  N   UNL     1       5.837   3.447  16.068  0.00  0.00    +0.000 N 
ATOM     14  H   UNL     1       6.436   3.930  15.403  0.00  0.00    +0.000 HD
ATOM     15  H   UNL     1       6.355   2.892  16.739  0.00  0.00    +0.000 HD
ENDBRANCH   4  13
BRANCH   5  16
ATOM     16  O   UNL     1       3.157   2.968  16.834  0.00  0.00    +0.000 OA
BRANCH  16  17
ATOM     17  C   UNL     1       3.421   2.019  17.874  0.00  0.00    +0.000 C 
BRANCH  17  18
ATOM     18  C   UNL     1       2.647   2.346  19.139  0.00  0.00    +0.000 A 
ATOM     19  C   UNL     1       1.290   2.712  19.091  0.00  0.00    +0.000 A 
ATOM     20  C   UNL     1       0.591   3.040  20.256  0.00  0.00    +0.000 A 
ATOM     21  C   UNL     1       1.235   3.020  21.489  0.00  0.00    +0.000 A 
ATOM     22  C   UNL     1       2.584   2.678  21.558  0.00  0.00    +0.000 A 
ATOM     23  C   UNL     1       3.286   2.347  20.393  0.00  0.00    +0.000 A 
ATOM     24 CL   UNL     1       4.963   1.960  20.558  0.00  0.00    +0.000 Cl
ENDBRANCH  17  18
ENDBRANCH  16  17
ENDBRANCH   5  16
TORSDOF 5
ENDMDL
MODEL 9
REMARK VINA RESULT:      -7.1      3.770      6.694
REMARK  Name = 
REMARK  6 active torsions:
REMARK  status: ('A' for Active; 'I' for Inactive)
REMARK    1  A    between atoms: C_1  and  N_2
REMARK    2  A    between atoms: C_4  and  C_5
REMARK    3  A    between atoms: C_8  and  N_9
REMARK    4  A    between atoms: C_10  and  O_11
REMARK    5  A    between atoms: O_11  and  C_12
REMARK    6  A    between atoms: C_12  and  C_13
REMARK                            x       y       z     vdW  Elec       q    Type
REMARK                         _______ _______ _______ _____ _____    ______ ____
ROOT
ATOM      1  C   UNL     1       2.359   6.377  19.379  0.00  0.00    +0.000 A 
ATOM      2  C   UNL     1       1.733   5.888  20.524  0.00  0.00    +0.000 A 
ATOM      3  N   UNL     1       1.976   4.657  21.038  0.00  0.00    +0.000 NA
ATOM      4  C   UNL     1       2.868   3.907  20.364  0.00  0.00    +0.000 A 
ATOM      5  C   UNL     1       3.482   4.385  19.190  0.00  0.00    +0.000 A 
ATOM      6  N   UNL     1       3.236   5.617  18.681  0.00  0.00    +0.000 NA
ENDROOT
BRANCH   1  10
ATOM      7  C   UNL     1       0.804  11.083  19.090  0.00  0.00    +0.000 C 
ATOM      8  N   UNL     1       1.418   9.809  18.805  0.00  0.00    +0.000 N 
ATOM      9  C   UNL     1       1.442   8.706  19.606  0.00  0.00    +0.000 A 
ATOM     10  C   UNL     1       2.125   7.728  18.907  0.00  0.00    +0.000 A 
ATOM     11  C   UNL     1       2.463   8.362  17.689  0.00  0.00    +0.000 A 
ATOM     12  N   UNL     1       2.039   9.626  17.625  0.00  0.00    +0.000 NA
ENDBRANCH   1  10
BRANCH   4  13
ATOM     13  N   UNL     1       3.159   2.668  20.934  0.00  0.00    +0.000 N 
ATOM     14  H   UNL     1       4.128   2.453  20.712  0.00  0.00    +0.000 HD
ATOM     15  H   UNL     1       2.969   2.667  21.930  0.00  0.00    +0.000 HD
ENDBRANCH   4  13
BRANCH   5  16
ATOM     16  O   UNL     1       4.402   3.565  18.558  0.00  0.00    +0.000 OA
BRANCH  16  17
ATOM     17  C   UNL     1       4.945   4.153  17.369  0.00  0.00    +0.000 C 
BRANCH  17  18
ATOM     18  C   UNL     1       6.026   5.171  17.692  0.00  0.00    +0.000 A 
ATOM     19  C   UNL     1       6.918   4.975  18.760  0.00  0.00    +0.000 A 
ATOM     20  C   UNL     1       7.892   5.929  19.069  0.00  0.00    +0.000 A 
ATOM     21  C   UNL     1       7.985   7.101  18.325  0.00  0.00    +0.000 A 
ATOM     22  C   UNL     1       7.098   7.324  17.274  0.00  0.00    +0.000 A 
ATOM     23  C   UNL     1       6.124   6.369  16.962  0.00  0.00    +0.000 A 
ATOM     24 CL   UNL     1       5.045   6.732  15.659  0.00  0.00    +0.000 Cl
ENDBRANCH  17  18
ENDBRANCH  16  17
ENDBRANCH   5  16
TORSDOF 5
ENDMDL
