MODEL 1
REMARK VINA RESULT:      -6.9      0.000      0.000
REMARK  Name = 
REMARK  7 active torsions:
REMARK  status: ('A' for Active; 'I' for Inactive)
REMARK    1  A    between atoms: C_1  and  N_2
REMARK    2  A    between atoms: N_2  and  C_3
REMARK    3  A    between atoms: N_2  and  C_16
REMARK    4  A    between atoms: C_3  and  C_4
REMARK    5  A    between atoms: C_4  and  C_5
REMARK    6  A    between atoms: C_5  and  N_6
REMARK    7  A    between atoms: C_16  and  C_17
REMARK                            x       y       z     vdW  Elec       q    Type
REMARK                         _______ _______ _______ _____ _____    ______ ____
ROOT
ATOM      1  C   UNL     1       4.093   2.854  17.095  0.00  0.00    +0.000 C 
ENDROOT
BRANCH   1   2
ATOM      2  C   UNL     1       5.141   3.731  17.794  0.00  0.00    +0.000 C 
BRANCH   2   4
ATOM      3  C   UNL     1       7.336   4.770  17.619  0.00  0.00    +0.000 C 
ATOM      4  N   UNL     1       6.228   4.144  16.881  0.00  0.00    +0.000 NA
BRANCH   4   5
ATOM      5  C   UNL     1       5.710   5.064  15.845  0.00  0.00    +0.000 C 
BRANCH   5   6
ATOM      6  C   UNL     1       6.157   4.695  14.442  0.00  0.00    +0.000 A 
ATOM      7  C   UNL     1       5.418   3.783  13.673  0.00  0.00    +0.000 A 
ATOM      8  C   UNL     1       5.863   3.392  12.410  0.00  0.00    +0.000 A 
ATOM      9  C   UNL     1       7.051   3.913  11.896  0.00  0.00    +0.000 A 
ATOM     10  C   UNL     1       7.789   4.829  12.643  0.00  0.00    +0.000 A 
ATOM     11  C   UNL     1       7.344   5.222  13.907  0.00  0.00    +0.000 A 
ENDBRANCH   5   6
ENDBRANCH   4   5
ENDBRANCH   2   4
ENDBRANCH   1   2
BRANCH   1  12
ATOM     12  C   UNL     1       2.685   3.446  17.164  0.00  0.00    +0.000 C 
BRANCH  12  13
ATOM     13  N   UNL     1       2.343   3.827  18.525  0.00  0.00    +0.000 N 
ATOM     14  C   UNL     1       1.926   2.884  19.457  0.00  0.00    +0.000 A 
ATOM     15  O   UNL     1       1.861   1.675  19.304  0.00  0.00    +0.000 OA
ATOM     16  S   UNL     1       1.458   3.692  20.965  0.00  0.00    +0.000 S 
ATOM     17  C   UNL     1       1.786   5.285  20.268  0.00  0.00    +0.000 A 
ATOM     18  C   UNL     1       1.621   6.522  20.872  0.00  0.00    +0.000 A 
ATOM     19  C   UNL     1       1.931   7.666  20.135  0.00  0.00    +0.000 A 
ATOM     20  C   UNL     1       2.390   7.558  18.816  0.00  0.00    +0.000 A 
ATOM     21  C   UNL     1       2.549   6.305  18.216  0.00  0.00    +0.000 A 
ATOM     22  C   UNL     1       2.247   5.169  18.955  0.00  0.00    +0.000 A 
ENDBRANCH  12  13
ENDBRANCH   1  12
TORSDOF 6
ENDMDL
MODEL 2
REMARK VINA RESULT:      -6.7      3.651      8.369
REMARK  Name = 
REMARK  7 active torsions:
REMARK  status: ('A' for Active; 'I' for Inactive)
REMARK    1  A    between atoms: C_1  and  N_2
REMARK    2  A    between atoms: N_2  and  C_3
REMARK    3  A    between atoms: N_2  and  C_16
REMARK    4  A    between atoms: C_3  and  C_4
REMARK    5  A    between atoms: C_4  and  C_5
REMARK    6  A    between atoms: C_5  and  N_6
REMARK    7  A    between atoms: C_16  and  C_17
REMARK                            x       y       z     vdW  Elec       q    Type
REMARK                         _______ _______ _______ _____ _____    ______ ____
ROOT
ATOM      1  C   UNL     1       2.019   7.930  17.663  0.00  0.00    +0.000 C 
ENDROOT
BRANCH   1   2
ATOM      2  C   UNL     1       1.786   9.441  17.795  0.00  0.00    +0.000 C 
BRANCH   2   4
ATOM      3  C   UNL     1      -0.530  10.169  17.981  0.00  0.00    +0.000 C 
ATOM      4  N   UNL     1       0.676   9.761  18.717  0.00  0.00    +0.000 NA
BRANCH   4   5
ATOM      5  C   UNL     1       1.085  10.817  19.670  0.00  0.00    +0.000 C 
BRANCH   5   6
ATOM      6  C   UNL     1       0.315  10.773  20.977  0.00  0.00    +0.000 A 
ATOM      7  C   UNL     1       0.346   9.626  21.785  0.00  0.00    +0.000 A 
ATOM      8  C   UNL     1      -0.414   9.558  22.954  0.00  0.00    +0.000 A 
ATOM      9  C   UNL     1      -1.210  10.639  23.333  0.00  0.00    +0.000 A 
ATOM     10  C   UNL     1      -1.240  11.790  22.547  0.00  0.00    +0.000 A 
ATOM     11  C   UNL     1      -0.480  11.859  21.378  0.00  0.00    +0.000 A 
ENDBRANCH   5   6
ENDBRANCH   4   5
ENDBRANCH   2   4
ENDBRANCH   1   2
BRANCH   1  12
ATOM     12  C   UNL     1       2.782   7.342  18.850  0.00  0.00    +0.000 C 
BRANCH  12  13
ATOM     13  N   UNL     1       3.187   5.971  18.584  0.00  0.00    +0.000 N 
ATOM     14  C   UNL     1       4.103   5.668  17.585  0.00  0.00    +0.000 A 
ATOM     15  O   UNL     1       4.717   6.456  16.882  0.00  0.00    +0.000 OA
ATOM     16  S   UNL     1       4.270   3.908  17.431  0.00  0.00    +0.000 S 
ATOM     17  C   UNL     1       3.051   3.637  18.684  0.00  0.00    +0.000 A 
ATOM     18  C   UNL     1       2.570   2.422  19.148  0.00  0.00    +0.000 A 
ATOM     19  C   UNL     1       1.592   2.431  20.143  0.00  0.00    +0.000 A 
ATOM     20  C   UNL     1       1.106   3.644  20.650  0.00  0.00    +0.000 A 
ATOM     21  C   UNL     1       1.596   4.864  20.171  0.00  0.00    +0.000 A 
ATOM     22  C   UNL     1       2.574   4.850  19.187  0.00  0.00    +0.000 A 
ENDBRANCH  12  13
ENDBRANCH   1  12
TORSDOF 6
ENDMDL
MODEL 3
REMARK VINA RESULT:      -6.6      3.701      5.474
REMARK  Name = 
REMARK  7 active torsions:
REMARK  status: ('A' for Active; 'I' for Inactive)
REMARK    1  A    between atoms: C_1  and  N_2
REMARK    2  A    between atoms: N_2  and  C_3
REMARK    3  A    between atoms: N_2  and  C_16
REMARK    4  A    between atoms: C_3  and  C_4
REMARK    5  A    between atoms: C_4  and  C_5
REMARK    6  A    between atoms: C_5  and  N_6
REMARK    7  A    between atoms: C_16  and  C_17
REMARK                            x       y       z     vdW  Elec       q    Type
REMARK                         _______ _______ _______ _____ _____    ______ ____
ROOT
ATOM      1  C   UNL     1       1.622   6.388  20.414  0.00  0.00    +0.000 C 
ENDROOT
BRANCH   1   2
ATOM      2  C   UNL     1       2.536   5.155  20.432  0.00  0.00    +0.000 C 
BRANCH   2   4
ATOM      3  C   UNL     1       2.197   3.851  18.404  0.00  0.00    +0.000 C 
ATOM      4  N   UNL     1       3.061   4.823  19.090  0.00  0.00    +0.000 NA
BRANCH   4   5
ATOM      5  C   UNL     1       4.444   4.308  19.190  0.00  0.00    +0.000 C 
BRANCH   5   6
ATOM      6  C   UNL     1       5.476   5.246  18.591  0.00  0.00    +0.000 A 
ATOM      7  C   UNL     1       6.749   5.369  19.168  0.00  0.00    +0.000 A 
ATOM      8  C   UNL     1       7.676   6.280  18.658  0.00  0.00    +0.000 A 
ATOM      9  C   UNL     1       7.343   7.075  17.562  0.00  0.00    +0.000 A 
ATOM     10  C   UNL     1       6.087   6.954  16.971  0.00  0.00    +0.000 A 
ATOM     11  C   UNL     1       5.159   6.043  17.479  0.00  0.00    +0.000 A 
ENDBRANCH   5   6
ENDBRANCH   4   5
ENDBRANCH   2   4
ENDBRANCH   1   2
BRANCH   1  12
ATOM     12  C   UNL     1       2.319   7.634  19.868  0.00  0.00    +0.000 C 
BRANCH  12  13
ATOM     13  N   UNL     1       1.377   8.731  19.706  0.00  0.00    +0.000 N 
ATOM     14  C   UNL     1       1.198   9.355  18.478  0.00  0.00    +0.000 A 
ATOM     15  O   UNL     1       1.711   9.050  17.413  0.00  0.00    +0.000 OA
ATOM     16  S   UNL     1       0.092  10.730  18.655  0.00  0.00    +0.000 S 
ATOM     17  C   UNL     1      -0.047  10.453  20.397  0.00  0.00    +0.000 A 
ATOM     18  C   UNL     1      -0.775  11.195  21.316  0.00  0.00    +0.000 A 
ATOM     19  C   UNL     1      -0.740  10.808  22.656  0.00  0.00    +0.000 A 
ATOM     20  C   UNL     1       0.020   9.701  23.056  0.00  0.00    +0.000 A 
ATOM     21  C   UNL     1       0.753   8.964  22.121  0.00  0.00    +0.000 A 
ATOM     22  C   UNL     1       0.710   9.347  20.788  0.00  0.00    +0.000 A 
ENDBRANCH  12  13
ENDBRANCH   1  12
TORSDOF 6
ENDMDL
MODEL 4
REMARK VINA RESULT:      -6.6      1.736      3.156
REMARK  Name = 
REMARK  7 active torsions:
REMARK  status: ('A' for Active; 'I' for Inactive)
REMARK    1  A    between atoms: C_1  and  N_2
REMARK    2  A    between atoms: N_2  and  C_3
REMARK    3  A    between atoms: N_2  and  C_16
REMARK    4  A    between atoms: C_3  and  C_4
REMARK    5  A    between atoms: C_4  and  C_5
REMARK    6  A    between atoms: C_5  and  N_6
REMARK    7  A    between atoms: C_16  and  C_17
REMARK                            x       y       z     vdW  Elec       q    Type
REMARK                         _______ _______ _______ _____ _____    ______ ____
ROOT
ATOM      1  C   UNL     1       4.417   7.121  17.570  0.00  0.00    +0.000 C 
ENDROOT
BRANCH   1   2
ATOM      2  C   UNL     1       5.241   6.462  16.455  0.00  0.00    +0.000 C 
BRANCH   2   4
ATOM      3  C   UNL     1       6.017   5.140  18.347  0.00  0.00    +0.000 C 
ATOM      4  N   UNL     1       5.854   5.187  16.887  0.00  0.00    +0.000 NA
BRANCH   4   5
ATOM      5  C   UNL     1       7.156   4.987  16.212  0.00  0.00    +0.000 C 
BRANCH   5   6
ATOM      6  C   UNL     1       7.019   4.646  14.740  0.00  0.00    +0.000 A 
ATOM      7  C   UNL     1       7.765   5.338  13.774  0.00  0.00    +0.000 A 
ATOM      8  C   UNL     1       7.592   5.072  12.415  0.00  0.00    +0.000 A 
ATOM      9  C   UNL     1       6.675   4.105  12.005  0.00  0.00    +0.000 A 
ATOM     10  C   UNL     1       5.936   3.400  12.953  0.00  0.00    +0.000 A 
ATOM     11  C   UNL     1       6.109   3.665  14.314  0.00  0.00    +0.000 A 
ENDBRANCH   5   6
ENDBRANCH   4   5
ENDBRANCH   2   4
ENDBRANCH   1   2
BRANCH   1  12
ATOM     12  C   UNL     1       2.921   6.832  17.451  0.00  0.00    +0.000 C 
BRANCH  12  13
ATOM     13  N   UNL     1       2.470   5.960  18.524  0.00  0.00    +0.000 N 
ATOM     14  C   UNL     1       2.179   6.459  19.788  0.00  0.00    +0.000 A 
ATOM     15  O   UNL     1       2.187   7.628  20.139  0.00  0.00    +0.000 OA
ATOM     16  S   UNL     1       1.795   5.124  20.891  0.00  0.00    +0.000 S 
ATOM     17  C   UNL     1       2.096   3.928  19.622  0.00  0.00    +0.000 A 
ATOM     18  C   UNL     1       2.024   2.547  19.728  0.00  0.00    +0.000 A 
ATOM     19  C   UNL     1       2.314   1.780  18.599  0.00  0.00    +0.000 A 
ATOM     20  C   UNL     1       2.675   2.398  17.394  0.00  0.00    +0.000 A 
ATOM     21  C   UNL     1       2.748   3.791  17.301  0.00  0.00    +0.000 A 
ATOM     22  C   UNL     1       2.452   4.551  18.424  0.00  0.00    +0.000 A 
ENDBRANCH  12  13
ENDBRANCH   1  12
TORSDOF 6
ENDMDL
MODEL 5
REMARK VINA RESULT:      -6.5      3.937      7.947
REMARK  Name = 
REMARK  7 active torsions:
REMARK  status: ('A' for Active; 'I' for Inactive)
REMARK    1  A    between atoms: C_1  and  N_2
REMARK    2  A    between atoms: N_2  and  C_3
REMARK    3  A    between atoms: N_2  and  C_16
REMARK    4  A    between atoms: C_3  and  C_4
REMARK    5  A    between atoms: C_4  and  C_5
REMARK    6  A    between atoms: C_5  and  N_6
REMARK    7  A    between atoms: C_16  and  C_17
REMARK                            x       y       z     vdW  Elec       q    Type
REMARK                         _______ _______ _______ _____ _____    ______ ____
ROOT
ATOM      1  C   UNL     1       2.217   7.937  18.257  0.00  0.00    +0.000 C 
ENDROOT
BRANCH   1   2
ATOM      2  C   UNL     1       1.448   8.938  19.131  0.00  0.00    +0.000 C 
BRANCH   2   4
ATOM      3  C   UNL     1       2.138  11.040  18.115  0.00  0.00    +0.000 C 
ATOM      4  N   UNL     1       1.013  10.130  18.372  0.00  0.00    +0.000 NA
BRANCH   4   5
ATOM      5  C   UNL     1      -0.069  10.835  19.095  0.00  0.00    +0.000 C 
BRANCH   5   6
ATOM      6  C   UNL     1      -1.397  10.803  18.361  0.00  0.00    +0.000 A 
ATOM      7  C   UNL     1      -2.467  11.606  18.785  0.00  0.00    +0.000 A 
ATOM      8  C   UNL     1      -3.709  11.528  18.153  0.00  0.00    +0.000 A 
ATOM      9  C   UNL     1      -3.895  10.651  17.085  0.00  0.00    +0.000 A 
ATOM     10  C   UNL     1      -2.838   9.857  16.645  0.00  0.00    +0.000 A 
ATOM     11  C   UNL     1      -1.595   9.934  17.276  0.00  0.00    +0.000 A 
ENDBRANCH   5   6
ENDBRANCH   4   5
ENDBRANCH   2   4
ENDBRANCH   1   2
BRANCH   1  12
ATOM     12  C   UNL     1       2.863   6.816  19.070  0.00  0.00    +0.000 C 
BRANCH  12  13
ATOM     13  N   UNL     1       3.125   5.651  18.239  0.00  0.00    +0.000 N 
ATOM     14  C   UNL     1       2.307   4.529  18.290  0.00  0.00    +0.000 A 
ATOM     15  O   UNL     1       1.281   4.391  18.937  0.00  0.00    +0.000 OA
ATOM     16  S   UNL     1       2.979   3.247  17.264  0.00  0.00    +0.000 S 
ATOM     17  C   UNL     1       4.375   4.250  16.845  0.00  0.00    +0.000 A 
ATOM     18  C   UNL     1       5.450   3.908  16.038  0.00  0.00    +0.000 A 
ATOM     19  C   UNL     1       6.460   4.851  15.844  0.00  0.00    +0.000 A 
ATOM     20  C   UNL     1       6.385   6.108  16.460  0.00  0.00    +0.000 A 
ATOM     21  C   UNL     1       5.298   6.439  17.275  0.00  0.00    +0.000 A 
ATOM     22  C   UNL     1       4.292   5.501  17.459  0.00  0.00    +0.000 A 
ENDBRANCH  12  13
ENDBRANCH   1  12
TORSDOF 6
ENDMDL
MODEL 6
REMARK VINA RESULT:      -6.5      3.548      6.383
REMARK  Name = 
REMARK  7 active torsions:
REMARK  status: ('A' for Active; 'I' for Inactive)
REMARK    1  A    between atoms: C_1  and  N_2
REMARK    2  A    between atoms: N_2  and  C_3
REMARK    3  A    between atoms: N_2  and  C_16
REMARK    4  A    between atoms: C_3  and  C_4
REMARK    5  A    between atoms: C_4  and  C_5
REMARK    6  A    between atoms: C_5  and  N_6
REMARK    7  A    between atoms: C_16  and  C_17
REMARK                            x       y       z     vdW  Elec       q    Type
REMARK                         _______ _______ _______ _____ _____    ______ ____
ROOT
ATOM      1  C   UNL     1       2.360   7.199  18.134  0.00  0.00    +0.000 C 
ENDROOT
BRANCH   1   2
ATOM      2  C   UNL     1       3.810   6.826  17.797  0.00  0.00    +0.000 C 
BRANCH   2   4
ATOM      3  C   UNL     1       4.763   5.003  16.496  0.00  0.00    +0.000 C 
ATOM      4  N   UNL     1       4.009   5.364  17.706  0.00  0.00    +0.000 NA
BRANCH   4   5
ATOM      5  C   UNL     1       2.706   4.664  17.734  0.00  0.00    +0.000 C 
BRANCH   5   6
ATOM      6  C   UNL     1       2.474   3.887  19.016  0.00  0.00    +0.000 A 
ATOM      7  C   UNL     1       1.190   3.802  19.578  0.00  0.00    +0.000 A 
ATOM      8  C   UNL     1       0.987   3.145  20.792  0.00  0.00    +0.000 A 
ATOM      9  C   UNL     1       2.062   2.559  21.458  0.00  0.00    +0.000 A 
ATOM     10  C   UNL     1       3.340   2.623  20.906  0.00  0.00    +0.000 A 
ATOM     11  C   UNL     1       3.546   3.280  19.691  0.00  0.00    +0.000 A 
ENDBRANCH   5   6
ENDBRANCH   4   5
ENDBRANCH   2   4
ENDBRANCH   1   2
BRANCH   1  12
ATOM     12  C   UNL     1       2.201   7.732  19.558  0.00  0.00    +0.000 C 
BRANCH  12  13
ATOM     13  N   UNL     1       1.413   8.954  19.575  0.00  0.00    +0.000 N 
ATOM     14  C   UNL     1       1.443   9.848  18.512  0.00  0.00    +0.000 A 
ATOM     15  O   UNL     1       2.034   9.715  17.452  0.00  0.00    +0.000 OA
ATOM     16  S   UNL     1       0.487  11.289  18.908  0.00  0.00    +0.000 S 
ATOM     17  C   UNL     1       0.125  10.662  20.522  0.00  0.00    +0.000 A 
ATOM     18  C   UNL     1      -0.612  11.277  21.522  0.00  0.00    +0.000 A 
ATOM     19  C   UNL     1      -0.771  10.608  22.737  0.00  0.00    +0.000 A 
ATOM     20  C   UNL     1      -0.190   9.348  22.934  0.00  0.00    +0.000 A 
ATOM     21  C   UNL     1       0.555   8.739  21.919  0.00  0.00    +0.000 A 
ATOM     22  C   UNL     1       0.704   9.405  20.710  0.00  0.00    +0.000 A 
ENDBRANCH  12  13
ENDBRANCH   1  12
TORSDOF 6
ENDMDL
MODEL 7
REMARK VINA RESULT:      -6.5      1.762      2.841
REMARK  Name = 
REMARK  7 active torsions:
REMARK  status: ('A' for Active; 'I' for Inactive)
REMARK    1  A    between atoms: C_1  and  N_2
REMARK    2  A    between atoms: N_2  and  C_3
REMARK    3  A    between atoms: N_2  and  C_16
REMARK    4  A    between atoms: C_3  and  C_4
REMARK    5  A    between atoms: C_4  and  C_5
REMARK    6  A    between atoms: C_5  and  N_6
REMARK    7  A    between atoms: C_16  and  C_17
REMARK                            x       y       z     vdW  Elec       q    Type
REMARK                         _______ _______ _______ _____ _____    ______ ____
ROOT
ATOM      1  C   UNL     1       4.945   6.315  17.701  0.00  0.00    +0.000 C 
ENDROOT
BRANCH   1   2
ATOM      2  C   UNL     1       5.481   4.897  17.941  0.00  0.00    +0.000 C 
BRANCH   2   4
ATOM      3  C   UNL     1       7.891   4.550  17.926  0.00  0.00    +0.000 C 
ATOM      4  N   UNL     1       6.667   4.595  17.112  0.00  0.00    +0.000 NA
BRANCH   4   5
ATOM      5  C   UNL     1       6.804   5.590  16.025  0.00  0.00    +0.000 C 
BRANCH   5   6
ATOM      6  C   UNL     1       6.683   4.982  14.640  0.00  0.00    +0.000 A 
ATOM      7  C   UNL     1       5.663   4.063  14.351  0.00  0.00    +0.000 A 
ATOM      8  C   UNL     1       5.591   3.452  13.098  0.00  0.00    +0.000 A 
ATOM      9  C   UNL     1       6.533   3.758  12.116  0.00  0.00    +0.000 A 
ATOM     10  C   UNL     1       7.543   4.679  12.385  0.00  0.00    +0.000 A 
ATOM     11  C   UNL     1       7.617   5.292  13.638  0.00  0.00    +0.000 A 
ENDBRANCH   5   6
ENDBRANCH   4   5
ENDBRANCH   2   4
ENDBRANCH   1   2
BRANCH   1  12
ATOM     12  C   UNL     1       3.461   6.333  17.335  0.00  0.00    +0.000 C 
BRANCH  12  13
ATOM     13  N   UNL     1       2.646   5.828  18.429  0.00  0.00    +0.000 N 
ATOM     14  C   UNL     1       2.314   6.630  19.513  0.00  0.00    +0.000 A 
ATOM     15  O   UNL     1       2.574   7.814  19.663  0.00  0.00    +0.000 OA
ATOM     16  S   UNL     1       1.438   5.675  20.724  0.00  0.00    +0.000 S 
ATOM     17  C   UNL     1       1.599   4.207  19.751  0.00  0.00    +0.000 A 
ATOM     18  C   UNL     1       1.156   2.931  20.065  0.00  0.00    +0.000 A 
ATOM     19  C   UNL     1       1.397   1.902  19.155  0.00  0.00    +0.000 A 
ATOM     20  C   UNL     1       2.080   2.158  17.958  0.00  0.00    +0.000 A 
ATOM     21  C   UNL     1       2.526   3.449  17.654  0.00  0.00    +0.000 A 
ATOM     22  C   UNL     1       2.277   4.471  18.559  0.00  0.00    +0.000 A 
ENDBRANCH  12  13
ENDBRANCH   1  12
TORSDOF 6
ENDMDL
MODEL 8
REMARK VINA RESULT:      -6.4      2.827      6.318
REMARK  Name = 
REMARK  7 active torsions:
REMARK  status: ('A' for Active; 'I' for Inactive)
REMARK    1  A    between atoms: C_1  and  N_2
REMARK    2  A    between atoms: N_2  and  C_3
REMARK    3  A    between atoms: N_2  and  C_16
REMARK    4  A    between atoms: C_3  and  C_4
REMARK    5  A    between atoms: C_4  and  C_5
REMARK    6  A    between atoms: C_5  and  N_6
REMARK    7  A    between atoms: C_16  and  C_17
REMARK                            x       y       z     vdW  Elec       q    Type
REMARK                         _______ _______ _______ _____ _____    ______ ____
ROOT
ATOM      1  C   UNL     1       3.266   3.159  20.275  0.00  0.00    +0.000 C 
ENDROOT
BRANCH   1   2
ATOM      2  C   UNL     1       3.049   4.636  20.628  0.00  0.00    +0.000 C 
BRANCH   2   4
ATOM      3  C   UNL     1       1.235   4.269  19.047  0.00  0.00    +0.000 C 
ATOM      4  N   UNL     1       2.020   5.273  19.780  0.00  0.00    +0.000 NA
BRANCH   4   5
ATOM      5  C   UNL     1       2.646   6.229  18.840  0.00  0.00    +0.000 C 
BRANCH   5   6
ATOM      6  C   UNL     1       2.114   7.644  18.984  0.00  0.00    +0.000 A 
ATOM      7  C   UNL     1       1.553   8.075  20.196  0.00  0.00    +0.000 A 
ATOM      8  C   UNL     1       1.004   9.353  20.310  0.00  0.00    +0.000 A 
ATOM      9  C   UNL     1       1.012  10.217  19.216  0.00  0.00    +0.000 A 
ATOM     10  C   UNL     1       1.577   9.807  18.010  0.00  0.00    +0.000 A 
ATOM     11  C   UNL     1       2.128   8.529  17.894  0.00  0.00    +0.000 A 
ENDBRANCH   5   6
ENDBRANCH   4   5
ENDBRANCH   2   4
ENDBRANCH   1   2
BRANCH   1  12
ATOM     12  C   UNL     1       4.661   2.881  19.716  0.00  0.00    +0.000 C 
BRANCH  12  13
ATOM     13  N   UNL     1       4.900   3.649  18.504  0.00  0.00    +0.000 N 
ATOM     14  C   UNL     1       4.275   3.325  17.306  0.00  0.00    +0.000 A 
ATOM     15  O   UNL     1       3.435   2.457  17.124  0.00  0.00    +0.000 OA
ATOM     16  S   UNL     1       4.887   4.363  16.005  0.00  0.00    +0.000 S 
ATOM     17  C   UNL     1       6.012   5.164  17.110  0.00  0.00    +0.000 A 
ATOM     18  C   UNL     1       6.931   6.158  16.808  0.00  0.00    +0.000 A 
ATOM     19  C   UNL     1       7.738   6.650  17.835  0.00  0.00    +0.000 A 
ATOM     20  C   UNL     1       7.622   6.140  19.135  0.00  0.00    +0.000 A 
ATOM     21  C   UNL     1       6.694   5.135  19.427  0.00  0.00    +0.000 A 
ATOM     22  C   UNL     1       5.888   4.654  18.404  0.00  0.00    +0.000 A 
ENDBRANCH  12  13
ENDBRANCH   1  12
TORSDOF 6
ENDMDL
MODEL 9
REMARK VINA RESULT:      -6.4      4.028      7.809
REMARK  Name = 
REMARK  7 active torsions:
REMARK  status: ('A' for Active; 'I' for Inactive)
REMARK    1  A    between atoms: C_1  and  N_2
REMARK    2  A    between atoms: N_2  and  C_3
REMARK    3  A    between atoms: N_2  and  C_16
REMARK    4  A    between atoms: C_3  and  C_4
REMARK    5  A    between atoms: C_4  and  C_5
REMARK    6  A    between atoms: C_5  and  N_6
REMARK    7  A    between atoms: C_16  and  C_17
REMARK                            x       y       z     vdW  Elec       q    Type
REMARK                         _______ _______ _______ _____ _____    ______ ____
ROOT
ATOM      1  C   UNL     1       2.178   8.092  18.732  0.00  0.00    +0.000 C 
ENDROOT
BRANCH   1   2
ATOM      2  C   UNL     1       2.370   9.270  17.768  0.00  0.00    +0.000 C 
BRANCH   2   4
ATOM      3  C   UNL     1       1.990  11.525  18.604  0.00  0.00    +0.000 C 
ATOM      4  N   UNL     1       1.375  10.343  17.983  0.00  0.00    +0.000 NA
BRANCH   4   5
ATOM      5  C   UNL     1       0.253   9.846  18.810  0.00  0.00    +0.000 C 
BRANCH   5   6
ATOM      6  C   UNL     1      -1.100  10.352  18.344  0.00  0.00    +0.000 A 
ATOM      7  C   UNL     1      -1.789  11.329  19.079  0.00  0.00    +0.000 A 
ATOM      8  C   UNL     1      -3.062  11.747  18.689  0.00  0.00    +0.000 A 
ATOM      9  C   UNL     1      -3.661  11.196  17.557  0.00  0.00    +0.000 A 
ATOM     10  C   UNL     1      -2.984  10.234  16.810  0.00  0.00    +0.000 A 
ATOM     11  C   UNL     1      -1.709   9.815  17.198  0.00  0.00    +0.000 A 
ENDBRANCH   5   6
ENDBRANCH   4   5
ENDBRANCH   2   4
ENDBRANCH   1   2
BRANCH   1  12
ATOM     12  C   UNL     1       2.076   6.748  18.012  0.00  0.00    +0.000 C 
BRANCH  12  13
ATOM     13  N   UNL     1       3.003   5.780  18.577  0.00  0.00    +0.000 N 
ATOM     14  C   UNL     1       4.327   5.717  18.160  0.00  0.00    +0.000 A 
ATOM     15  O   UNL     1       4.887   6.458  17.368  0.00  0.00    +0.000 OA
ATOM     16  S   UNL     1       5.141   4.348  18.940  0.00  0.00    +0.000 S 
ATOM     17  C   UNL     1       3.650   3.869  19.762  0.00  0.00    +0.000 A 
ATOM     18  C   UNL     1       3.459   2.783  20.603  0.00  0.00    +0.000 A 
ATOM     19  C   UNL     1       2.189   2.578  21.144  0.00  0.00    +0.000 A 
ATOM     20  C   UNL     1       1.135   3.448  20.832  0.00  0.00    +0.000 A 
ATOM     21  C   UNL     1       1.339   4.538  19.979  0.00  0.00    +0.000 A 
ATOM     22  C   UNL     1       2.606   4.743  19.450  0.00  0.00    +0.000 A 
ENDBRANCH  12  13
ENDBRANCH   1  12
TORSDOF 6
ENDMDL
