MODEL 1
REMARK VINA RESULT:      -7.7      0.000      0.000
REMARK  Name = 
REMARK  4 active torsions:
REMARK  status: ('A' for Active; 'I' for Inactive)
REMARK    1  A    between atoms: C_1  and  N_2
REMARK    2  A    between atoms: C_4  and  C_5
REMARK    3  A    between atoms: N_9  and  C_10
REMARK    4  A    between atoms: C_10  and  C_11
REMARK                            x       y       z     vdW  Elec       q    Type
REMARK                         _______ _______ _______ _____ _____    ______ ____
ROOT
ATOM      1  C   UNL     1       4.305   3.445  18.724  0.00  0.00    +0.000 C 
ATOM      2  C   UNL     1       3.225   2.449  18.291  0.00  0.00    +0.000 C 
ATOM      3  C   UNL     1       1.973   3.190  17.818  0.00  0.00    +0.000 C 
ATOM      4  C   UNL     1       1.459   4.058  18.963  0.00  0.00    +0.000 C 
ATOM      5  N   UNL     1       2.458   5.069  19.402  0.00  0.00    +0.000 NA
ATOM      6  C   UNL     1       3.744   4.426  19.783  0.00  0.00    +0.000 C 
ENDROOT
BRANCH   1  10
ATOM      7  C   UNL     1       6.172   3.869  14.112  0.00  0.00    +0.000 C 
ATOM      8  N   UNL     1       5.827   4.198  15.491  0.00  0.00    +0.000 N 
ATOM      9  N   UNL     1       4.962   3.501  16.230  0.00  0.00    +0.000 NA
ATOM     10  C   UNL     1       4.958   4.023  17.486  0.00  0.00    +0.000 A 
ATOM     11  C   UNL     1       5.831   5.085  17.502  0.00  0.00    +0.000 A 
ATOM     12  N   UNL     1       6.230   5.892  18.514  0.00  0.00    +0.000 NA
ATOM     13  C   UNL     1       7.189   6.825  18.247  0.00  0.00    +0.000 A 
ATOM     14  C   UNL     1       7.748   6.915  16.947  0.00  0.00    +0.000 A 
ATOM     15  N   UNL     1       7.326   6.071  15.955  0.00  0.00    +0.000 NA
ATOM     16  C   UNL     1       6.358   5.166  16.261  0.00  0.00    +0.000 A 
ENDBRANCH   1  10
BRANCH   5  17
ATOM     17  C   UNL     1       1.868   5.750  20.587  0.00  0.00    +0.000 C 
BRANCH  17  18
ATOM     18  C   UNL     1       1.558   7.214  20.372  0.00  0.00    +0.000 A 
ATOM     19  C   UNL     1       0.844   7.932  21.351  0.00  0.00    +0.000 A 
ATOM     20  C   UNL     1       0.512   9.273  21.143  0.00  0.00    +0.000 A 
ATOM     21  F   UNL     1      -0.180   9.956  22.090  0.00  0.00    +0.000 F 
ATOM     22  C   UNL     1       0.888   9.909  19.958  0.00  0.00    +0.000 A 
ATOM     23  C   UNL     1       1.599   9.206  18.982  0.00  0.00    +0.000 A 
ATOM     24  C   UNL     1       1.936   7.864  19.186  0.00  0.00    +0.000 A 
ATOM     25  F   UNL     1       2.613   7.194  18.222  0.00  0.00    +0.000 F 
ENDBRANCH  17  18
ENDBRANCH   5  17
TORSDOF 3
ENDMDL
MODEL 2
REMARK VINA RESULT:      -7.7      0.817      1.728
REMARK  Name = 
REMARK  4 active torsions:
REMARK  status: ('A' for Active; 'I' for Inactive)
REMARK    1  A    between atoms: C_1  and  N_2
REMARK    2  A    between atoms: C_4  and  C_5
REMARK    3  A    between atoms: N_9  and  C_10
REMARK    4  A    between atoms: C_10  and  C_11
REMARK                            x       y       z     vdW  Elec       q    Type
REMARK                         _______ _______ _______ _____ _____    ______ ____
ROOT
ATOM      1  C   UNL     1       4.287   3.688  18.728  0.00  0.00    +0.000 C 
ATOM      2  C   UNL     1       3.171   2.714  18.338  0.00  0.00    +0.000 C 
ATOM      3  C   UNL     1       1.954   3.478  17.811  0.00  0.00    +0.000 C 
ATOM      4  C   UNL     1       1.466   4.428  18.902  0.00  0.00    +0.000 C 
ATOM      5  N   UNL     1       2.502   5.420  19.297  0.00  0.00    +0.000 NA
ATOM      6  C   UNL     1       3.757   4.747  19.726  0.00  0.00    +0.000 C 
ENDROOT
BRANCH   1  10
ATOM      7  C   UNL     1       6.244   3.773  14.134  0.00  0.00    +0.000 C 
ATOM      8  N   UNL     1       5.882   4.197  15.482  0.00  0.00    +0.000 N 
ATOM      9  N   UNL     1       4.989   3.568  16.249  0.00  0.00    +0.000 NA
ATOM     10  C   UNL     1       4.974   4.171  17.468  0.00  0.00    +0.000 A 
ATOM     11  C   UNL     1       5.870   5.214  17.432  0.00  0.00    +0.000 A 
ATOM     12  N   UNL     1       6.267   6.076  18.397  0.00  0.00    +0.000 NA
ATOM     13  C   UNL     1       7.251   6.970  18.088  0.00  0.00    +0.000 A 
ATOM     14  C   UNL     1       7.835   6.964  16.796  0.00  0.00    +0.000 A 
ATOM     15  N   UNL     1       7.412   6.066  15.852  0.00  0.00    +0.000 NA
ATOM     16  C   UNL     1       6.419   5.203  16.199  0.00  0.00    +0.000 A 
ENDBRANCH   1  10
BRANCH   5  17
ATOM     17  C   UNL     1       1.930   6.188  20.437  0.00  0.00    +0.000 C 
BRANCH  17  18
ATOM     18  C   UNL     1       1.593   7.626  20.110  0.00  0.00    +0.000 A 
ATOM     19  C   UNL     1       1.945   8.162  18.856  0.00  0.00    +0.000 A 
ATOM     20  C   UNL     1       1.681   9.502  18.561  0.00  0.00    +0.000 A 
ATOM     21  F   UNL     1       2.026  10.011  17.351  0.00  0.00    +0.000 F 
ATOM     22  C   UNL     1       1.065  10.318  19.512  0.00  0.00    +0.000 A 
ATOM     23  C   UNL     1       0.710   9.794  20.759  0.00  0.00    +0.000 A 
ATOM     24  C   UNL     1       0.970   8.453  21.059  0.00  0.00    +0.000 A 
ATOM     25  F   UNL     1       0.632   7.966  22.278  0.00  0.00    +0.000 F 
ENDBRANCH  17  18
ENDBRANCH   5  17
TORSDOF 3
ENDMDL
MODEL 3
REMARK VINA RESULT:      -7.6      3.373      5.994
REMARK  Name = 
REMARK  4 active torsions:
REMARK  status: ('A' for Active; 'I' for Inactive)
REMARK    1  A    between atoms: C_1  and  N_2
REMARK    2  A    between atoms: C_4  and  C_5
REMARK    3  A    between atoms: N_9  and  C_10
REMARK    4  A    between atoms: C_10  and  C_11
REMARK                            x       y       z     vdW  Elec       q    Type
REMARK                         _______ _______ _______ _____ _____    ______ ____
ROOT
ATOM      1  C   UNL     1       1.897   8.534  20.615  0.00  0.00    +0.000 C 
ATOM      2  C   UNL     1       1.185   8.691  21.962  0.00  0.00    +0.000 C 
ATOM      3  C   UNL     1      -0.333   8.683  21.769  0.00  0.00    +0.000 C 
ATOM      4  C   UNL     1      -0.711   9.831  20.837  0.00  0.00    +0.000 C 
ATOM      5  N   UNL     1      -0.073   9.711  19.499  0.00  0.00    +0.000 NA
ATOM      6  C   UNL     1       1.406   9.610  19.614  0.00  0.00    +0.000 C 
ENDROOT
BRANCH   1  10
ATOM      7  C   UNL     1       1.228   3.587  20.759  0.00  0.00    +0.000 C 
ATOM      8  N   UNL     1       1.593   4.912  20.267  0.00  0.00    +0.000 N 
ATOM      9  N   UNL     1       1.236   6.053  20.859  0.00  0.00    +0.000 NA
ATOM     10  C   UNL     1       1.829   7.081  20.195  0.00  0.00    +0.000 A 
ATOM     11  C   UNL     1       2.549   6.548  19.152  0.00  0.00    +0.000 A 
ATOM     12  N   UNL     1       3.358   7.136  18.239  0.00  0.00    +0.000 NA
ATOM     13  C   UNL     1       4.018   6.329  17.358  0.00  0.00    +0.000 A 
ATOM     14  C   UNL     1       3.860   4.922  17.429  0.00  0.00    +0.000 A 
ATOM     15  N   UNL     1       3.041   4.367  18.376  0.00  0.00    +0.000 NA
ATOM     16  C   UNL     1       2.391   5.209  19.224  0.00  0.00    +0.000 A 
ENDBRANCH   1  10
BRANCH   5  17
ATOM     17  C   UNL     1      -0.435  10.947  18.752  0.00  0.00    +0.000 C 
BRANCH  17  18
ATOM     18  C   UNL     1      -1.783  10.889  18.071  0.00  0.00    +0.000 A 
ATOM     19  C   UNL     1      -1.950  10.109  16.910  0.00  0.00    +0.000 A 
ATOM     20  C   UNL     1      -3.179  10.084  16.245  0.00  0.00    +0.000 A 
ATOM     21  F   UNL     1      -3.329   9.332  15.125  0.00  0.00    +0.000 F 
ATOM     22  C   UNL     1      -4.250  10.837  16.730  0.00  0.00    +0.000 A 
ATOM     23  C   UNL     1      -4.095  11.613  17.883  0.00  0.00    +0.000 A 
ATOM     24  C   UNL     1      -2.868  11.639  18.553  0.00  0.00    +0.000 A 
ATOM     25  F   UNL     1      -2.731  12.408  19.661  0.00  0.00    +0.000 F 
ENDBRANCH  17  18
ENDBRANCH   5  17
TORSDOF 3
ENDMDL
MODEL 4
REMARK VINA RESULT:      -7.6      2.168      4.507
REMARK  Name = 
REMARK  4 active torsions:
REMARK  status: ('A' for Active; 'I' for Inactive)
REMARK    1  A    between atoms: C_1  and  N_2
REMARK    2  A    between atoms: C_4  and  C_5
REMARK    3  A    between atoms: N_9  and  C_10
REMARK    4  A    between atoms: C_10  and  C_11
REMARK                            x       y       z     vdW  Elec       q    Type
REMARK                         _______ _______ _______ _____ _____    ______ ____
ROOT
ATOM      1  C   UNL     1       4.090   3.980  17.532  0.00  0.00    +0.000 C 
ATOM      2  C   UNL     1       5.511   4.186  16.998  0.00  0.00    +0.000 C 
ATOM      3  C   UNL     1       6.164   5.397  17.666  0.00  0.00    +0.000 C 
ATOM      4  C   UNL     1       5.310   6.630  17.380  0.00  0.00    +0.000 C 
ATOM      5  N   UNL     1       3.927   6.499  17.908  0.00  0.00    +0.000 NA
ATOM      6  C   UNL     1       3.261   5.279  17.378  0.00  0.00    +0.000 C 
ENDROOT
BRANCH   1  10
ATOM      7  C   UNL     1       5.461   0.991  21.290  0.00  0.00    +0.000 C 
ATOM      8  N   UNL     1       4.728   2.000  20.534  0.00  0.00    +0.000 N 
ATOM      9  N   UNL     1       5.142   2.510  19.372  0.00  0.00    +0.000 NA
ATOM     10  C   UNL     1       4.174   3.342  18.902  0.00  0.00    +0.000 A 
ATOM     11  C   UNL     1       3.150   3.355  19.820  0.00  0.00    +0.000 A 
ATOM     12  N   UNL     1       1.943   3.969  19.796  0.00  0.00    +0.000 NA
ATOM     13  C   UNL     1       1.084   3.728  20.828  0.00  0.00    +0.000 A 
ATOM     14  C   UNL     1       1.459   2.846  21.873  0.00  0.00    +0.000 A 
ATOM     15  N   UNL     1       2.685   2.235  21.853  0.00  0.00    +0.000 NA
ATOM     16  C   UNL     1       3.515   2.515  20.812  0.00  0.00    +0.000 A 
ENDBRANCH   1  10
BRANCH   5  17
ATOM     17  C   UNL     1       3.190   7.710  17.454  0.00  0.00    +0.000 C 
BRANCH  17  18
ATOM     18  C   UNL     1       2.318   8.342  18.515  0.00  0.00    +0.000 A 
ATOM     19  C   UNL     1       2.116   7.681  19.742  0.00  0.00    +0.000 A 
ATOM     20  C   UNL     1       1.275   8.233  20.713  0.00  0.00    +0.000 A 
ATOM     21  F   UNL     1       1.083   7.588  21.891  0.00  0.00    +0.000 F 
ATOM     22  C   UNL     1       0.629   9.446  20.467  0.00  0.00    +0.000 A 
ATOM     23  C   UNL     1       0.826  10.111  19.253  0.00  0.00    +0.000 A 
ATOM     24  C   UNL     1       1.668   9.564  18.280  0.00  0.00    +0.000 A 
ATOM     25  F   UNL     1       1.835  10.215  17.103  0.00  0.00    +0.000 F 
ENDBRANCH  17  18
ENDBRANCH   5  17
TORSDOF 3
ENDMDL
MODEL 5
REMARK VINA RESULT:      -7.5      2.160      4.591
REMARK  Name = 
REMARK  4 active torsions:
REMARK  status: ('A' for Active; 'I' for Inactive)
REMARK    1  A    between atoms: C_1  and  N_2
REMARK    2  A    between atoms: C_4  and  C_5
REMARK    3  A    between atoms: N_9  and  C_10
REMARK    4  A    between atoms: C_10  and  C_11
REMARK                            x       y       z     vdW  Elec       q    Type
REMARK                         _______ _______ _______ _____ _____    ______ ____
ROOT
ATOM      1  C   UNL     1       4.286   4.033  17.573  0.00  0.00    +0.000 C 
ATOM      2  C   UNL     1       5.745   4.328  17.209  0.00  0.00    +0.000 C 
ATOM      3  C   UNL     1       6.239   5.574  17.947  0.00  0.00    +0.000 C 
ATOM      4  C   UNL     1       5.350   6.753  17.559  0.00  0.00    +0.000 C 
ATOM      5  N   UNL     1       3.925   6.535  17.922  0.00  0.00    +0.000 NA
ATOM      6  C   UNL     1       3.402   5.279  17.320  0.00  0.00    +0.000 C 
ENDROOT
BRANCH   1  10
ATOM      7  C   UNL     1       5.340   1.064  21.448  0.00  0.00    +0.000 C 
ATOM      8  N   UNL     1       4.664   2.060  20.623  0.00  0.00    +0.000 N 
ATOM      9  N   UNL     1       5.181   2.579  19.508  0.00  0.00    +0.000 NA
ATOM     10  C   UNL     1       4.247   3.394  18.945  0.00  0.00    +0.000 A 
ATOM     11  C   UNL     1       3.139   3.386  19.759  0.00  0.00    +0.000 A 
ATOM     12  N   UNL     1       1.929   3.977  19.616  0.00  0.00    +0.000 NA
ATOM     13  C   UNL     1       0.977   3.719  20.560  0.00  0.00    +0.000 A 
ATOM     14  C   UNL     1       1.265   2.842  21.636  0.00  0.00    +0.000 A 
ATOM     15  N   UNL     1       2.498   2.254  21.736  0.00  0.00    +0.000 NA
ATOM     16  C   UNL     1       3.421   2.551  20.782  0.00  0.00    +0.000 A 
ENDBRANCH   1  10
BRANCH   5  17
ATOM     17  C   UNL     1       3.174   7.700  17.381  0.00  0.00    +0.000 C 
BRANCH  17  18
ATOM     18  C   UNL     1       2.195   8.315  18.356  0.00  0.00    +0.000 A 
ATOM     19  C   UNL     1       1.397   9.405  17.956  0.00  0.00    +0.000 A 
ATOM     20  C   UNL     1       0.522  10.011  18.862  0.00  0.00    +0.000 A 
ATOM     21  F   UNL     1      -0.241  11.062  18.469  0.00  0.00    +0.000 F 
ATOM     22  C   UNL     1       0.437   9.537  20.173  0.00  0.00    +0.000 A 
ATOM     23  C   UNL     1       1.224   8.456  20.578  0.00  0.00    +0.000 A 
ATOM     24  C   UNL     1       2.099   7.844  19.675  0.00  0.00    +0.000 A 
ATOM     25  F   UNL     1       2.865   6.805  20.090  0.00  0.00    +0.000 F 
ENDBRANCH  17  18
ENDBRANCH   5  17
TORSDOF 3
ENDMDL
MODEL 6
REMARK VINA RESULT:      -7.5      3.000      6.380
REMARK  Name = 
REMARK  4 active torsions:
REMARK  status: ('A' for Active; 'I' for Inactive)
REMARK    1  A    between atoms: C_1  and  N_2
REMARK    2  A    between atoms: C_4  and  C_5
REMARK    3  A    between atoms: N_9  and  C_10
REMARK    4  A    between atoms: C_10  and  C_11
REMARK                            x       y       z     vdW  Elec       q    Type
REMARK                         _______ _______ _______ _____ _____    ______ ____
ROOT
ATOM      1  C   UNL     1       1.598   5.435  19.335  0.00  0.00    +0.000 C 
ATOM      2  C   UNL     1       1.032   4.382  20.293  0.00  0.00    +0.000 C 
ATOM      3  C   UNL     1       2.058   4.033  21.372  0.00  0.00    +0.000 C 
ATOM      4  C   UNL     1       3.317   3.501  20.692  0.00  0.00    +0.000 C 
ATOM      5  N   UNL     1       3.931   4.497  19.773  0.00  0.00    +0.000 NA
ATOM      6  C   UNL     1       2.954   4.963  18.753  0.00  0.00    +0.000 C 
ENDROOT
BRANCH   1  10
ATOM      7  C   UNL     1       0.565   9.050  22.622  0.00  0.00    +0.000 C 
ATOM      8  N   UNL     1       1.044   8.385  21.414  0.00  0.00    +0.000 N 
ATOM      9  N   UNL     1       1.167   7.062  21.289  0.00  0.00    +0.000 NA
ATOM     10  C   UNL     1       1.541   6.788  20.010  0.00  0.00    +0.000 A 
ATOM     11  C   UNL     1       1.672   7.985  19.346  0.00  0.00    +0.000 A 
ATOM     12  N   UNL     1       1.962   8.255  18.051  0.00  0.00    +0.000 NA
ATOM     13  C   UNL     1       1.940   9.559  17.650  0.00  0.00    +0.000 A 
ATOM     14  C   UNL     1       1.605  10.580  18.575  0.00  0.00    +0.000 A 
ATOM     15  N   UNL     1       1.306  10.263  19.874  0.00  0.00    +0.000 NA
ATOM     16  C   UNL     1       1.354   8.952  20.233  0.00  0.00    +0.000 A 
ENDBRANCH   1  10
BRANCH   5  17
ATOM     17  C   UNL     1       5.064   3.803  19.103  0.00  0.00    +0.000 C 
BRANCH  17  18
ATOM     18  C   UNL     1       5.962   4.714  18.298  0.00  0.00    +0.000 A 
ATOM     19  C   UNL     1       6.835   5.601  18.958  0.00  0.00    +0.000 A 
ATOM     20  C   UNL     1       7.637   6.481  18.225  0.00  0.00    +0.000 A 
ATOM     21  F   UNL     1       8.472   7.334  18.869  0.00  0.00    +0.000 F 
ATOM     22  C   UNL     1       7.574   6.484  16.830  0.00  0.00    +0.000 A 
ATOM     23  C   UNL     1       6.713   5.606  16.166  0.00  0.00    +0.000 A 
ATOM     24  C   UNL     1       5.910   4.722  16.895  0.00  0.00    +0.000 A 
ATOM     25  F   UNL     1       5.070   3.887  16.234  0.00  0.00    +0.000 F 
ENDBRANCH  17  18
ENDBRANCH   5  17
TORSDOF 3
ENDMDL
MODEL 7
REMARK VINA RESULT:      -7.5      4.075      8.031
REMARK  Name = 
REMARK  4 active torsions:
REMARK  status: ('A' for Active; 'I' for Inactive)
REMARK    1  A    between atoms: C_1  and  N_2
REMARK    2  A    between atoms: C_4  and  C_5
REMARK    3  A    between atoms: N_9  and  C_10
REMARK    4  A    between atoms: C_10  and  C_11
REMARK                            x       y       z     vdW  Elec       q    Type
REMARK                         _______ _______ _______ _____ _____    ______ ____
ROOT
ATOM      1  C   UNL     1       0.704  10.368  19.546  0.00  0.00    +0.000 C 
ATOM      2  C   UNL     1       1.732  10.953  18.573  0.00  0.00    +0.000 C 
ATOM      3  C   UNL     1       2.138   9.908  17.531  0.00  0.00    +0.000 C 
ATOM      4  C   UNL     1       2.728   8.701  18.257  0.00  0.00    +0.000 C 
ATOM      5  N   UNL     1       1.758   8.071  19.193  0.00  0.00    +0.000 NA
ATOM      6  C   UNL     1       1.239   9.059  20.176  0.00  0.00    +0.000 C 
ENDROOT
BRANCH   1  10
ATOM      7  C   UNL     1      -2.835   9.797  16.069  0.00  0.00    +0.000 C 
ATOM      8  N   UNL     1      -2.192  10.142  17.332  0.00  0.00    +0.000 N 
ATOM      9  N   UNL     1      -0.962   9.755  17.674  0.00  0.00    +0.000 NA
ATOM     10  C   UNL     1      -0.647  10.335  18.864  0.00  0.00    +0.000 A 
ATOM     11  C   UNL     1      -1.731  11.079  19.267  0.00  0.00    +0.000 A 
ATOM     12  N   UNL     1      -1.903  11.888  20.339  0.00  0.00    +0.000 NA
ATOM     13  C   UNL     1      -3.077  12.576  20.437  0.00  0.00    +0.000 A 
ATOM     14  C   UNL     1      -4.063  12.445  19.427  0.00  0.00    +0.000 A 
ATOM     15  N   UNL     1      -3.844  11.625  18.352  0.00  0.00    +0.000 NA
ATOM     16  C   UNL     1      -2.666  10.947  18.301  0.00  0.00    +0.000 A 
ENDBRANCH   1  10
BRANCH   5  17
ATOM     17  C   UNL     1       2.504   6.998  19.905  0.00  0.00    +0.000 C 
BRANCH  17  18
ATOM     18  C   UNL     1       2.028   5.598  19.592  0.00  0.00    +0.000 A 
ATOM     19  C   UNL     1       1.473   4.800  20.612  0.00  0.00    +0.000 A 
ATOM     20  C   UNL     1       1.072   3.488  20.345  0.00  0.00    +0.000 A 
ATOM     21  F   UNL     1       0.541   2.726  21.334  0.00  0.00    +0.000 F 
ATOM     22  C   UNL     1       1.223   2.961  19.061  0.00  0.00    +0.000 A 
ATOM     23  C   UNL     1       1.771   3.745  18.041  0.00  0.00    +0.000 A 
ATOM     24  C   UNL     1       2.171   5.059  18.303  0.00  0.00    +0.000 A 
ATOM     25  F   UNL     1       2.714   5.800  17.306  0.00  0.00    +0.000 F 
ENDBRANCH  17  18
ENDBRANCH   5  17
TORSDOF 3
ENDMDL
MODEL 8
REMARK VINA RESULT:      -7.5      3.822      7.836
REMARK  Name = 
REMARK  4 active torsions:
REMARK  status: ('A' for Active; 'I' for Inactive)
REMARK    1  A    between atoms: C_1  and  N_2
REMARK    2  A    between atoms: C_4  and  C_5
REMARK    3  A    between atoms: N_9  and  C_10
REMARK    4  A    between atoms: C_10  and  C_11
REMARK                            x       y       z     vdW  Elec       q    Type
REMARK                         _______ _______ _______ _____ _____    ______ ____
ROOT
ATOM      1  C   UNL     1       1.186   9.870  19.440  0.00  0.00    +0.000 C 
ATOM      2  C   UNL     1       2.207   9.928  18.299  0.00  0.00    +0.000 C 
ATOM      3  C   UNL     1       2.206   8.616  17.513  0.00  0.00    +0.000 C 
ATOM      4  C   UNL     1       2.548   7.475  18.468  0.00  0.00    +0.000 C 
ATOM      5  N   UNL     1       1.567   7.351  19.579  0.00  0.00    +0.000 NA
ATOM      6  C   UNL     1       1.439   8.628  20.330  0.00  0.00    +0.000 C 
ENDROOT
BRANCH   1  10
ATOM      7  C   UNL     1      -2.613  10.080  16.205  0.00  0.00    +0.000 C 
ATOM      8  N   UNL     1      -1.851  10.217  17.442  0.00  0.00    +0.000 N 
ATOM      9  N   UNL     1      -0.661   9.652  17.652  0.00  0.00    +0.000 NA
ATOM     10  C   UNL     1      -0.199  10.068  18.862  0.00  0.00    +0.000 A 
ATOM     11  C   UNL     1      -1.152  10.893  19.413  0.00  0.00    +0.000 A 
ATOM     12  N   UNL     1      -1.150  11.605  20.565  0.00  0.00    +0.000 NA
ATOM     13  C   UNL     1      -2.219  12.417  20.815  0.00  0.00    +0.000 A 
ATOM     14  C   UNL     1      -3.276  12.507  19.875  0.00  0.00    +0.000 A 
ATOM     15  N   UNL     1      -3.232  11.778  18.716  0.00  0.00    +0.000 NA
ATOM     16  C   UNL     1      -2.155  10.972  18.514  0.00  0.00    +0.000 A 
ENDBRANCH   1  10
BRANCH   5  17
ATOM     17  C   UNL     1       2.092   6.289  20.482  0.00  0.00    +0.000 C 
BRANCH  17  18
ATOM     18  C   UNL     1       2.292   4.948  19.813  0.00  0.00    +0.000 A 
ATOM     19  C   UNL     1       1.178   4.137  19.521  0.00  0.00    +0.000 A 
ATOM     20  C   UNL     1       1.353   2.876  18.945  0.00  0.00    +0.000 A 
ATOM     21  F   UNL     1       0.275   2.099  18.669  0.00  0.00    +0.000 F 
ATOM     22  C   UNL     1       2.639   2.413  18.658  0.00  0.00    +0.000 A 
ATOM     23  C   UNL     1       3.751   3.212  18.942  0.00  0.00    +0.000 A 
ATOM     24  C   UNL     1       3.580   4.476  19.516  0.00  0.00    +0.000 A 
ATOM     25  F   UNL     1       4.670   5.231  19.799  0.00  0.00    +0.000 F 
ENDBRANCH  17  18
ENDBRANCH   5  17
TORSDOF 3
ENDMDL
MODEL 9
REMARK VINA RESULT:      -7.5      3.995      8.162
REMARK  Name = 
REMARK  4 active torsions:
REMARK  status: ('A' for Active; 'I' for Inactive)
REMARK    1  A    between atoms: C_1  and  N_2
REMARK    2  A    between atoms: C_4  and  C_5
REMARK    3  A    between atoms: N_9  and  C_10
REMARK    4  A    between atoms: C_10  and  C_11
REMARK                            x       y       z     vdW  Elec       q    Type
REMARK                         _______ _______ _______ _____ _____    ______ ____
ROOT
ATOM      1  C   UNL     1       0.856  10.188  19.534  0.00  0.00    +0.000 C 
ATOM      2  C   UNL     1       1.904  10.682  18.532  0.00  0.00    +0.000 C 
ATOM      3  C   UNL     1       2.198   9.604  17.488  0.00  0.00    +0.000 C 
ATOM      4  C   UNL     1       2.705   8.356  18.207  0.00  0.00    +0.000 C 
ATOM      5  N   UNL     1       1.711   7.811  19.169  0.00  0.00    +0.000 NA
ATOM      6  C   UNL     1       1.298   8.841  20.159  0.00  0.00    +0.000 C 
ENDROOT
BRANCH   1  10
ATOM      7  C   UNL     1      -2.785   9.982  16.122  0.00  0.00    +0.000 C 
ATOM      8  N   UNL     1      -2.096  10.229  17.384  0.00  0.00    +0.000 N 
ATOM      9  N   UNL     1      -0.882   9.759  17.677  0.00  0.00    +0.000 NA
ATOM     10  C   UNL     1      -0.510  10.261  18.884  0.00  0.00    +0.000 A 
ATOM     11  C   UNL     1      -1.541  11.043  19.350  0.00  0.00    +0.000 A 
ATOM     12  N   UNL     1      -1.644  11.806  20.463  0.00  0.00    +0.000 NA
ATOM     13  C   UNL     1      -2.776  12.552  20.623  0.00  0.00    +0.000 A 
ATOM     14  C   UNL     1      -3.790  12.525  19.633  0.00  0.00    +0.000 A 
ATOM     15  N   UNL     1      -3.641  11.748  18.514  0.00  0.00    +0.000 NA
ATOM     16  C   UNL     1      -2.503  11.010  18.402  0.00  0.00    +0.000 A 
ENDBRANCH   1  10
BRANCH   5  17
ATOM     17  C   UNL     1       2.384   6.683  19.870  0.00  0.00    +0.000 C 
BRANCH  17  18
ATOM     18  C   UNL     1       2.384   5.383  19.098  0.00  0.00    +0.000 A 
ATOM     19  C   UNL     1       3.292   5.198  18.037  0.00  0.00    +0.000 A 
ATOM     20  C   UNL     1       3.271   4.019  17.286  0.00  0.00    +0.000 A 
ATOM     21  F   UNL     1       4.147   3.850  16.264  0.00  0.00    +0.000 F 
ATOM     22  C   UNL     1       2.345   3.018  17.586  0.00  0.00    +0.000 A 
ATOM     23  C   UNL     1       1.442   3.192  18.639  0.00  0.00    +0.000 A 
ATOM     24  C   UNL     1       1.460   4.368  19.395  0.00  0.00    +0.000 A 
ATOM     25  F   UNL     1       0.567   4.526  20.402  0.00  0.00    +0.000 F 
ENDBRANCH  17  18
ENDBRANCH   5  17
TORSDOF 3
ENDMDL
