MODEL 1
REMARK VINA RESULT:      -7.0      0.000      0.000
REMARK  Name = 
REMARK  13 active torsions:
REMARK  status: ('A' for Active; 'I' for Inactive)
REMARK    1  A    between atoms: C_1  and  C_2
REMARK    2  A    between atoms: C_2  and  O_3
REMARK    3  A    between atoms: O_3  and  C_4
REMARK    4  A    between atoms: C_4  and  C_6
REMARK    5  A    between atoms: C_7  and  N_8
REMARK    6  A    between atoms: C_9  and  C_11
REMARK    7  A    between atoms: C_11  and  S_12
REMARK    8  A    between atoms: S_12  and  C_13
REMARK    9  A    between atoms: C_16  and  C_17
REMARK   10  A    between atoms: C_17  and  C_18
REMARK   11  A    between atoms: N_24  and  C_25
REMARK   12  A    between atoms: C_27  and  C_28
REMARK   13  A    between atoms: C_29  and  C_30
REMARK                            x       y       z     vdW  Elec       q    Type
REMARK                         _______ _______ _______ _____ _____    ______ ____
ROOT
ATOM      1  C   UNL     1       0.982   9.346  18.445  0.00  0.00    +0.000 C 
ENDROOT
BRANCH   1   3
ATOM      2  N   UNL     1       2.581   7.643  17.730  0.00  0.00    +0.000 N 
ATOM      3  C   UNL     1       1.963   8.241  18.828  0.00  0.00    +0.000 C 
ATOM      4  O   UNL     1       2.123   7.956  20.013  0.00  0.00    +0.000 OA
ATOM      5  H   UNL     1       2.356   8.003  16.807  0.00  0.00    +0.000 HD
BRANCH   2   7
ATOM      6  C   UNL     1       3.198   5.234  18.035  0.00  0.00    +0.000 A 
ATOM      7  C   UNL     1       3.473   6.570  17.745  0.00  0.00    +0.000 A 
ATOM      8  S   UNL     1       5.110   6.810  17.374  0.00  0.00    +0.000 S 
ATOM      9  C   UNL     1       5.513   5.177  17.611  0.00  0.00    +0.000 A 
ATOM     10  C   UNL     1       6.923   4.731  17.400  0.00  0.00    +0.000 C 
ATOM     11  C   UNL     1       4.417   4.422  17.992  0.00  0.00    +0.000 A 
ATOM     12  C   UNL     1       4.470   2.952  18.292  0.00  0.00    +0.000 C 
BRANCH   6  13
ATOM     13  C   UNL     1       1.863   4.675  18.293  0.00  0.00    +0.000 C 
ATOM     14  O   UNL     1       1.112   4.287  17.409  0.00  0.00    +0.000 OA
BRANCH  13  15
ATOM     15  O   UNL     1       1.504   4.742  19.613  0.00  0.00    +0.000 OA
BRANCH  15  17
ATOM     16  C   UNL     1       1.868   3.087  21.289  0.00  0.00    +0.000 C 
ATOM     17  C   UNL     1       0.970   3.520  20.144  0.00  0.00    +0.000 C 
ENDBRANCH  15  17
ENDBRANCH  13  15
ENDBRANCH   6  13
ENDBRANCH   2   7
ENDBRANCH   1   3
BRANCH   1  18
ATOM     18  S   UNL     1       1.569  10.918  19.147  0.00  0.00    +0.000 S 
BRANCH  18  19
ATOM     19  C   UNL     1       0.677  10.991  20.626  0.00  0.00    +0.000 A 
ATOM     20  N   UNL     1       1.044  10.492  21.782  0.00  0.00    +0.000 NA
ATOM     21  N   UNL     1       0.048  10.764  22.690  0.00  0.00    +0.000 NA
ATOM     22  C   UNL     1      -0.915  11.422  22.067  0.00  0.00    +0.000 A 
ATOM     23  N   UNL     1      -0.539  11.609  20.755  0.00  0.00    +0.000 N 
ATOM     24  C   UNL     1      -1.291  12.280  19.725  0.00  0.00    +0.000 C 
BRANCH  22  25
ATOM     25  C   UNL     1      -2.213  11.851  22.673  0.00  0.00    +0.000 C 
BRANCH  25  26
ATOM     26  C   UNL     1      -2.138  13.200  23.320  0.00  0.00    +0.000 A 
ATOM     27  C   UNL     1      -1.041  14.042  23.354  0.00  0.00    +0.000 A 
ATOM     28  S   UNL     1      -1.429  15.477  24.202  0.00  0.00    +0.000 S 
ATOM     29  C   UNL     1      -3.018  14.885  24.464  0.00  0.00    +0.000 A 
ATOM     30  N   UNL     1      -3.935  15.613  25.118  0.00  0.00    +0.000 N 
ATOM     31  N   UNL     1      -3.259  13.690  23.983  0.00  0.00    +0.000 NA
ATOM     32  H   UNL     1      -3.630  16.408  25.665  0.00  0.00    +0.000 HD
ATOM     33  H   UNL     1      -4.733  15.115  25.492  0.00  0.00    +0.000 HD
ENDBRANCH  25  26
ENDBRANCH  22  25
ENDBRANCH  18  19
ENDBRANCH   1  18
TORSDOF 9
ENDMDL
MODEL 2
REMARK VINA RESULT:      -6.9      2.826      4.030
REMARK  Name = 
REMARK  13 active torsions:
REMARK  status: ('A' for Active; 'I' for Inactive)
REMARK    1  A    between atoms: C_1  and  C_2
REMARK    2  A    between atoms: C_2  and  O_3
REMARK    3  A    between atoms: O_3  and  C_4
REMARK    4  A    between atoms: C_4  and  C_6
REMARK    5  A    between atoms: C_7  and  N_8
REMARK    6  A    between atoms: C_9  and  C_11
REMARK    7  A    between atoms: C_11  and  S_12
REMARK    8  A    between atoms: S_12  and  C_13
REMARK    9  A    between atoms: C_16  and  C_17
REMARK   10  A    between atoms: C_17  and  C_18
REMARK   11  A    between atoms: N_24  and  C_25
REMARK   12  A    between atoms: C_27  and  C_28
REMARK   13  A    between atoms: C_29  and  C_30
REMARK                            x       y       z     vdW  Elec       q    Type
REMARK                         _______ _______ _______ _____ _____    ______ ____
ROOT
ATOM      1  C   UNL     1       1.114   9.442  18.157  0.00  0.00    +0.000 C 
ENDROOT
BRANCH   1   3
ATOM      2  N   UNL     1       2.753   7.710  17.628  0.00  0.00    +0.000 N 
ATOM      3  C   UNL     1       2.021   8.316  18.649  0.00  0.00    +0.000 C 
ATOM      4  O   UNL     1       2.035   8.025  19.842  0.00  0.00    +0.000 OA
ATOM      5  H   UNL     1       2.646   8.077  16.686  0.00  0.00    +0.000 HD
BRANCH   2   7
ATOM      6  C   UNL     1       3.293   5.303  18.072  0.00  0.00    +0.000 A 
ATOM      7  C   UNL     1       3.616   6.619  17.743  0.00  0.00    +0.000 A 
ATOM      8  S   UNL     1       5.278   6.808  17.463  0.00  0.00    +0.000 S 
ATOM      9  C   UNL     1       5.626   5.178  17.793  0.00  0.00    +0.000 A 
ATOM     10  C   UNL     1       7.036   4.694  17.688  0.00  0.00    +0.000 C 
ATOM     11  C   UNL     1       4.492   4.465  18.137  0.00  0.00    +0.000 A 
ATOM     12  C   UNL     1       4.491   3.008  18.502  0.00  0.00    +0.000 C 
BRANCH   6  13
ATOM     13  C   UNL     1       1.931   4.786  18.271  0.00  0.00    +0.000 C 
ATOM     14  O   UNL     1       1.160   4.545  17.352  0.00  0.00    +0.000 OA
BRANCH  13  15
ATOM     15  O   UNL     1       1.578   4.711  19.592  0.00  0.00    +0.000 OA
BRANCH  15  17
ATOM     16  C   UNL     1       1.463   3.129  21.371  0.00  0.00    +0.000 C 
ATOM     17  C   UNL     1       0.973   3.467  19.974  0.00  0.00    +0.000 C 
ENDBRANCH  15  17
ENDBRANCH  13  15
ENDBRANCH   6  13
ENDBRANCH   2   7
ENDBRANCH   1   3
BRANCH   1  18
ATOM     18  S   UNL     1      -0.118   9.805  19.446  0.00  0.00    +0.000 S 
BRANCH  18  19
ATOM     19  C   UNL     1       0.478  11.298  20.083  0.00  0.00    +0.000 A 
ATOM     20  N   UNL     1       1.224  11.447  21.150  0.00  0.00    +0.000 NA
ATOM     21  N   UNL     1       1.467  12.791  21.307  0.00  0.00    +0.000 NA
ATOM     22  C   UNL     1       0.858  13.441  20.330  0.00  0.00    +0.000 A 
ATOM     23  N   UNL     1       0.237  12.521  19.513  0.00  0.00    +0.000 N 
ATOM     24  C   UNL     1      -0.538  12.796  18.330  0.00  0.00    +0.000 C 
BRANCH  22  25
ATOM     25  C   UNL     1       0.812  14.926  20.164  0.00  0.00    +0.000 C 
BRANCH  25  26
ATOM     26  C   UNL     1       1.793  15.432  19.152  0.00  0.00    +0.000 A 
ATOM     27  C   UNL     1       1.701  16.607  18.426  0.00  0.00    +0.000 A 
ATOM     28  S   UNL     1       3.057  16.767  17.395  0.00  0.00    +0.000 S 
ATOM     29  C   UNL     1       3.669  15.274  17.979  0.00  0.00    +0.000 A 
ATOM     30  N   UNL     1       4.839  14.781  17.545  0.00  0.00    +0.000 N 
ATOM     31  N   UNL     1       2.918  14.667  18.865  0.00  0.00    +0.000 NA
ATOM     32  H   UNL     1       5.249  15.164  16.702  0.00  0.00    +0.000 HD
ATOM     33  H   UNL     1       5.003  13.793  17.693  0.00  0.00    +0.000 HD
ENDBRANCH  25  26
ENDBRANCH  22  25
ENDBRANCH  18  19
ENDBRANCH   1  18
TORSDOF 9
ENDMDL
MODEL 3
REMARK VINA RESULT:      -6.9      2.204      3.154
REMARK  Name = 
REMARK  13 active torsions:
REMARK  status: ('A' for Active; 'I' for Inactive)
REMARK    1  A    between atoms: C_1  and  C_2
REMARK    2  A    between atoms: C_2  and  O_3
REMARK    3  A    between atoms: O_3  and  C_4
REMARK    4  A    between atoms: C_4  and  C_6
REMARK    5  A    between atoms: C_7  and  N_8
REMARK    6  A    between atoms: C_9  and  C_11
REMARK    7  A    between atoms: C_11  and  S_12
REMARK    8  A    between atoms: S_12  and  C_13
REMARK    9  A    between atoms: C_16  and  C_17
REMARK   10  A    between atoms: C_17  and  C_18
REMARK   11  A    between atoms: N_24  and  C_25
REMARK   12  A    between atoms: C_27  and  C_28
REMARK   13  A    between atoms: C_29  and  C_30
REMARK                            x       y       z     vdW  Elec       q    Type
REMARK                         _______ _______ _______ _____ _____    ______ ____
ROOT
ATOM      1  C   UNL     1       2.065   8.899  19.537  0.00  0.00    +0.000 C 
ENDROOT
BRANCH   1   3
ATOM      2  N   UNL     1       3.031   6.698  19.105  0.00  0.00    +0.000 N 
ATOM      3  C   UNL     1       2.308   7.755  18.555  0.00  0.00    +0.000 C 
ATOM      4  O   UNL     1       1.886   7.844  17.404  0.00  0.00    +0.000 OA
ATOM      5  H   UNL     1       3.297   6.765  20.084  0.00  0.00    +0.000 HD
BRANCH   2   7
ATOM      6  C   UNL     1       4.365   5.448  17.391  0.00  0.00    +0.000 A 
ATOM      7  C   UNL     1       3.466   5.543  18.452  0.00  0.00    +0.000 A 
ATOM      8  S   UNL     1       2.897   4.021  18.934  0.00  0.00    +0.000 S 
ATOM      9  C   UNL     1       3.789   3.195  17.747  0.00  0.00    +0.000 A 
ATOM     10  C   UNL     1       3.708   1.704  17.673  0.00  0.00    +0.000 C 
ATOM     11  C   UNL     1       4.522   4.059  16.954  0.00  0.00    +0.000 A 
ATOM     12  C   UNL     1       5.390   3.621  15.810  0.00  0.00    +0.000 C 
BRANCH   6  13
ATOM     13  C   UNL     1       5.117   6.570  16.809  0.00  0.00    +0.000 C 
ATOM     14  O   UNL     1       4.937   6.984  15.671  0.00  0.00    +0.000 OA
BRANCH  13  15
ATOM     15  O   UNL     1       6.113   7.026  17.629  0.00  0.00    +0.000 OA
BRANCH  15  17
ATOM     16  C   UNL     1       7.869   6.116  18.960  0.00  0.00    +0.000 C 
ATOM     17  C   UNL     1       7.336   6.280  17.547  0.00  0.00    +0.000 C 
ENDBRANCH  15  17
ENDBRANCH  13  15
ENDBRANCH   6  13
ENDBRANCH   2   7
ENDBRANCH   1   3
BRANCH   1  18
ATOM     18  S   UNL     1       1.220   8.238  21.007  0.00  0.00    +0.000 S 
BRANCH  18  19
ATOM     19  C   UNL     1       0.419   9.647  21.608  0.00  0.00    +0.000 A 
ATOM     20  N   UNL     1       0.533  10.153  22.812  0.00  0.00    +0.000 NA
ATOM     21  N   UNL     1      -0.274  11.265  22.877  0.00  0.00    +0.000 NA
ATOM     22  C   UNL     1      -0.871  11.415  21.707  0.00  0.00    +0.000 A 
ATOM     23  N   UNL     1      -0.435  10.417  20.863  0.00  0.00    +0.000 N 
ATOM     24  C   UNL     1      -0.830  10.207  19.493  0.00  0.00    +0.000 C 
BRANCH  22  25
ATOM     25  C   UNL     1      -1.883  12.462  21.371  0.00  0.00    +0.000 C 
BRANCH  25  26
ATOM     26  C   UNL     1      -2.626  12.964  22.571  0.00  0.00    +0.000 A 
ATOM     27  C   UNL     1      -2.489  14.204  23.171  0.00  0.00    +0.000 A 
ATOM     28  S   UNL     1      -3.548  14.328  24.510  0.00  0.00    +0.000 S 
ATOM     29  C   UNL     1      -4.111  12.737  24.203  0.00  0.00    +0.000 A 
ATOM     30  N   UNL     1      -5.067  12.177  24.960  0.00  0.00    +0.000 N 
ATOM     31  N   UNL     1      -3.545  12.125  23.192  0.00  0.00    +0.000 NA
ATOM     32  H   UNL     1      -5.291  12.594  25.854  0.00  0.00    +0.000 HD
ATOM     33  H   UNL     1      -5.148  11.168  24.924  0.00  0.00    +0.000 HD
ENDBRANCH  25  26
ENDBRANCH  22  25
ENDBRANCH  18  19
ENDBRANCH   1  18
TORSDOF 9
ENDMDL
MODEL 4
REMARK VINA RESULT:      -6.8      2.522      3.591
REMARK  Name = 
REMARK  13 active torsions:
REMARK  status: ('A' for Active; 'I' for Inactive)
REMARK    1  A    between atoms: C_1  and  C_2
REMARK    2  A    between atoms: C_2  and  O_3
REMARK    3  A    between atoms: O_3  and  C_4
REMARK    4  A    between atoms: C_4  and  C_6
REMARK    5  A    between atoms: C_7  and  N_8
REMARK    6  A    between atoms: C_9  and  C_11
REMARK    7  A    between atoms: C_11  and  S_12
REMARK    8  A    between atoms: S_12  and  C_13
REMARK    9  A    between atoms: C_16  and  C_17
REMARK   10  A    between atoms: C_17  and  C_18
REMARK   11  A    between atoms: N_24  and  C_25
REMARK   12  A    between atoms: C_27  and  C_28
REMARK   13  A    between atoms: C_29  and  C_30
REMARK                            x       y       z     vdW  Elec       q    Type
REMARK                         _______ _______ _______ _____ _____    ______ ____
ROOT
ATOM      1  C   UNL     1       1.468   8.954  19.439  0.00  0.00    +0.000 C 
ENDROOT
BRANCH   1   3
ATOM      2  N   UNL     1       2.568   7.151  18.213  0.00  0.00    +0.000 N 
ATOM      3  C   UNL     1       2.060   7.547  19.450  0.00  0.00    +0.000 C 
ATOM      4  O   UNL     1       2.038   6.888  20.486  0.00  0.00    +0.000 OA
ATOM      5  H   UNL     1       2.528   7.820  17.449  0.00  0.00    +0.000 HD
BRANCH   2   7
ATOM      6  C   UNL     1       4.244   5.650  17.110  0.00  0.00    +0.000 A 
ATOM      7  C   UNL     1       3.114   5.909  17.884  0.00  0.00    +0.000 A 
ATOM      8  S   UNL     1       2.398   4.480  18.450  0.00  0.00    +0.000 S 
ATOM      9  C   UNL     1       3.528   3.480  17.672  0.00  0.00    +0.000 A 
ATOM     10  C   UNL     1       3.422   1.997  17.822  0.00  0.00    +0.000 C 
ATOM     11  C   UNL     1       4.461   4.210  16.956  0.00  0.00    +0.000 A 
ATOM     12  C   UNL     1       5.570   3.599  16.149  0.00  0.00    +0.000 C 
BRANCH   6  13
ATOM     13  C   UNL     1       5.150   6.669  16.558  0.00  0.00    +0.000 C 
ATOM     14  O   UNL     1       5.293   6.866  15.359  0.00  0.00    +0.000 OA
BRANCH  13  15
ATOM     15  O   UNL     1       5.898   7.293  17.520  0.00  0.00    +0.000 OA
BRANCH  15  17
ATOM     16  C   UNL     1       7.637   5.994  18.506  0.00  0.00    +0.000 C 
ATOM     17  C   UNL     1       7.306   7.025  17.441  0.00  0.00    +0.000 C 
ENDBRANCH  15  17
ENDBRANCH  13  15
ENDBRANCH   6  13
ENDBRANCH   2   7
ENDBRANCH   1   3
BRANCH   1  18
ATOM     18  S   UNL     1       0.476   9.183  20.947  0.00  0.00    +0.000 S 
BRANCH  18  19
ATOM     19  C   UNL     1      -0.492  10.551  20.520  0.00  0.00    +0.000 A 
ATOM     20  N   UNL     1      -0.793  10.943  19.306  0.00  0.00    +0.000 NA
ATOM     21  N   UNL     1      -1.572  12.071  19.412  0.00  0.00    +0.000 NA
ATOM     22  C   UNL     1      -1.729  12.350  20.695  0.00  0.00    +0.000 A 
ATOM     23  N   UNL     1      -1.075  11.389  21.435  0.00  0.00    +0.000 N 
ATOM     24  C   UNL     1      -0.992  11.308  22.871  0.00  0.00    +0.000 C 
BRANCH  22  25
ATOM     25  C   UNL     1      -2.454  13.534  21.249  0.00  0.00    +0.000 C 
BRANCH  25  26
ATOM     26  C   UNL     1      -3.865  13.225  21.641  0.00  0.00    +0.000 A 
ATOM     27  C   UNL     1      -4.885  12.809  20.804  0.00  0.00    +0.000 A 
ATOM     28  S   UNL     1      -6.323  12.575  21.702  0.00  0.00    +0.000 S 
ATOM     29  C   UNL     1      -5.498  13.040  23.132  0.00  0.00    +0.000 A 
ATOM     30  N   UNL     1      -6.117  13.052  24.323  0.00  0.00    +0.000 N 
ATOM     31  N   UNL     1      -4.241  13.376  22.972  0.00  0.00    +0.000 NA
ATOM     32  H   UNL     1      -7.128  13.017  24.349  0.00  0.00    +0.000 HD
ATOM     33  H   UNL     1      -5.686  13.599  25.057  0.00  0.00    +0.000 HD
ENDBRANCH  25  26
ENDBRANCH  22  25
ENDBRANCH  18  19
ENDBRANCH   1  18
TORSDOF 9
ENDMDL
MODEL 5
REMARK VINA RESULT:      -6.7      1.652      1.748
REMARK  Name = 
REMARK  13 active torsions:
REMARK  status: ('A' for Active; 'I' for Inactive)
REMARK    1  A    between atoms: C_1  and  C_2
REMARK    2  A    between atoms: C_2  and  O_3
REMARK    3  A    between atoms: O_3  and  C_4
REMARK    4  A    between atoms: C_4  and  C_6
REMARK    5  A    between atoms: C_7  and  N_8
REMARK    6  A    between atoms: C_9  and  C_11
REMARK    7  A    between atoms: C_11  and  S_12
REMARK    8  A    between atoms: S_12  and  C_13
REMARK    9  A    between atoms: C_16  and  C_17
REMARK   10  A    between atoms: C_17  and  C_18
REMARK   11  A    between atoms: N_24  and  C_25
REMARK   12  A    between atoms: C_27  and  C_28
REMARK   13  A    between atoms: C_29  and  C_30
REMARK                            x       y       z     vdW  Elec       q    Type
REMARK                         _______ _______ _______ _____ _____    ______ ____
ROOT
ATOM      1  C   UNL     1       1.277   9.076  19.242  0.00  0.00    +0.000 C 
ENDROOT
BRANCH   1   3
ATOM      2  N   UNL     1       2.537   7.040  18.761  0.00  0.00    +0.000 N 
ATOM      3  C   UNL     1       2.162   8.292  18.276  0.00  0.00    +0.000 C 
ATOM      4  O   UNL     1       2.480   8.795  17.200  0.00  0.00    +0.000 OA
ATOM      5  H   UNL     1       2.177   6.756  19.668  0.00  0.00    +0.000 HD
BRANCH   2   7
ATOM      6  C   UNL     1       3.116   4.788  17.825  0.00  0.00    +0.000 A 
ATOM      7  C   UNL     1       3.387   6.117  18.147  0.00  0.00    +0.000 A 
ATOM      8  S   UNL     1       4.956   6.568  17.692  0.00  0.00    +0.000 S 
ATOM      9  C   UNL     1       5.338   5.027  17.087  0.00  0.00    +0.000 A 
ATOM     10  C   UNL     1       6.686   4.787  16.489  0.00  0.00    +0.000 C 
ATOM     11  C   UNL     1       4.288   4.138  17.234  0.00  0.00    +0.000 A 
ATOM     12  C   UNL     1       4.338   2.698  16.811  0.00  0.00    +0.000 C 
BRANCH   6  13
ATOM     13  C   UNL     1       1.817   4.119  17.991  0.00  0.00    +0.000 C 
ATOM     14  O   UNL     1       0.839   4.364  17.296  0.00  0.00    +0.000 OA
BRANCH  13  15
ATOM     15  O   UNL     1       1.784   3.281  19.073  0.00  0.00    +0.000 OA
BRANCH  15  17
ATOM     16  C   UNL     1       2.068   4.088  21.298  0.00  0.00    +0.000 C 
ATOM     17  C   UNL     1       1.060   3.797  20.200  0.00  0.00    +0.000 C 
ENDBRANCH  15  17
ENDBRANCH  13  15
ENDBRANCH   6  13
ENDBRANCH   2   7
ENDBRANCH   1   3
BRANCH   1  18
ATOM     18  S   UNL     1       1.179  10.802  18.675  0.00  0.00    +0.000 S 
BRANCH  18  19
ATOM     19  C   UNL     1      -0.019  11.448  19.742  0.00  0.00    +0.000 A 
ATOM     20  N   UNL     1       0.086  11.580  21.042  0.00  0.00    +0.000 NA
ATOM     21  N   UNL     1      -1.088  12.127  21.503  0.00  0.00    +0.000 NA
ATOM     22  C   UNL     1      -1.893  12.316  20.472  0.00  0.00    +0.000 A 
ATOM     23  N   UNL     1      -1.238  11.918  19.327  0.00  0.00    +0.000 N 
ATOM     24  C   UNL     1      -1.747  11.954  17.979  0.00  0.00    +0.000 C 
BRANCH  22  25
ATOM     25  C   UNL     1      -3.295  12.830  20.541  0.00  0.00    +0.000 C 
BRANCH  25  26
ATOM     26  C   UNL     1      -3.699  13.243  21.922  0.00  0.00    +0.000 A 
ATOM     27  C   UNL     1      -3.660  14.522  22.448  0.00  0.00    +0.000 A 
ATOM     28  S   UNL     1      -4.223  14.509  24.065  0.00  0.00    +0.000 S 
ATOM     29  C   UNL     1      -4.477  12.816  23.955  0.00  0.00    +0.000 A 
ATOM     30  N   UNL     1      -4.980  12.118  24.985  0.00  0.00    +0.000 N 
ATOM     31  N   UNL     1      -4.149  12.271  22.810  0.00  0.00    +0.000 NA
ATOM     32  H   UNL     1      -4.989  12.539  25.905  0.00  0.00    +0.000 HD
ATOM     33  H   UNL     1      -4.836  11.116  24.973  0.00  0.00    +0.000 HD
ENDBRANCH  25  26
ENDBRANCH  22  25
ENDBRANCH  18  19
ENDBRANCH   1  18
TORSDOF 9
ENDMDL
MODEL 6
REMARK VINA RESULT:      -6.7      1.580      1.990
REMARK  Name = 
REMARK  13 active torsions:
REMARK  status: ('A' for Active; 'I' for Inactive)
REMARK    1  A    between atoms: C_1  and  C_2
REMARK    2  A    between atoms: C_2  and  O_3
REMARK    3  A    between atoms: O_3  and  C_4
REMARK    4  A    between atoms: C_4  and  C_6
REMARK    5  A    between atoms: C_7  and  N_8
REMARK    6  A    between atoms: C_9  and  C_11
REMARK    7  A    between atoms: C_11  and  S_12
REMARK    8  A    between atoms: S_12  and  C_13
REMARK    9  A    between atoms: C_16  and  C_17
REMARK   10  A    between atoms: C_17  and  C_18
REMARK   11  A    between atoms: N_24  and  C_25
REMARK   12  A    between atoms: C_27  and  C_28
REMARK   13  A    between atoms: C_29  and  C_30
REMARK                            x       y       z     vdW  Elec       q    Type
REMARK                         _______ _______ _______ _____ _____    ______ ____
ROOT
ATOM      1  C   UNL     1       0.956   9.443  18.587  0.00  0.00    +0.000 C 
ENDROOT
BRANCH   1   3
ATOM      2  N   UNL     1       2.140   7.307  18.592  0.00  0.00    +0.000 N 
ATOM      3  C   UNL     1       2.026   8.548  17.967  0.00  0.00    +0.000 C 
ATOM      4  O   UNL     1       2.690   8.964  17.021  0.00  0.00    +0.000 OA
ATOM      5  H   UNL     1       1.504   7.102  19.358  0.00  0.00    +0.000 HD
BRANCH   2   7
ATOM      6  C   UNL     1       2.825   4.927  18.210  0.00  0.00    +0.000 A 
ATOM      7  C   UNL     1       3.061   6.299  18.303  0.00  0.00    +0.000 A 
ATOM      8  S   UNL     1       4.686   6.680  18.005  0.00  0.00    +0.000 S 
ATOM      9  C   UNL     1       5.135   5.058  17.776  0.00  0.00    +0.000 A 
ATOM     10  C   UNL     1       6.554   4.729  17.442  0.00  0.00    +0.000 C 
ATOM     11  C   UNL     1       4.064   4.196  17.936  0.00  0.00    +0.000 A 
ATOM     12  C   UNL     1       4.160   2.702  17.814  0.00  0.00    +0.000 C 
BRANCH   6  13
ATOM     13  C   UNL     1       1.508   4.281  18.308  0.00  0.00    +0.000 C 
ATOM     14  O   UNL     1       0.845   3.949  17.335  0.00  0.00    +0.000 OA
BRANCH  13  15
ATOM     15  O   UNL     1       1.053   4.193  19.597  0.00  0.00    +0.000 OA
BRANCH  15  17
ATOM     16  C   UNL     1       1.684   2.993  21.557  0.00  0.00    +0.000 C 
ATOM     17  C   UNL     1       1.110   2.873  20.157  0.00  0.00    +0.000 C 
ENDBRANCH  15  17
ENDBRANCH  13  15
ENDBRANCH   6  13
ENDBRANCH   2   7
ENDBRANCH   1   3
BRANCH   1  18
ATOM     18  S   UNL     1       0.998   9.238  20.395  0.00  0.00    +0.000 S 
BRANCH  18  19
ATOM     19  C   UNL     1       0.354  10.752  20.929  0.00  0.00    +0.000 A 
ATOM     20  N   UNL     1       0.419  11.894  20.289  0.00  0.00    +0.000 NA
ATOM     21  N   UNL     1      -0.208  12.843  21.063  0.00  0.00    +0.000 NA
ATOM     22  C   UNL     1      -0.642  12.259  22.167  0.00  0.00    +0.000 A 
ATOM     23  N   UNL     1      -0.325  10.920  22.107  0.00  0.00    +0.000 N 
ATOM     24  C   UNL     1      -0.614   9.915  23.099  0.00  0.00    +0.000 C 
BRANCH  22  25
ATOM     25  C   UNL     1      -1.321  12.945  23.308  0.00  0.00    +0.000 C 
BRANCH  25  26
ATOM     26  C   UNL     1      -2.736  13.329  23.002  0.00  0.00    +0.000 A 
ATOM     27  C   UNL     1      -3.289  14.594  23.098  0.00  0.00    +0.000 A 
ATOM     28  S   UNL     1      -4.938  14.549  22.640  0.00  0.00    +0.000 S 
ATOM     29  C   UNL     1      -4.804  12.864  22.347  0.00  0.00    +0.000 A 
ATOM     30  N   UNL     1      -5.846  12.149  21.898  0.00  0.00    +0.000 N 
ATOM     31  N   UNL     1      -3.626  12.343  22.591  0.00  0.00    +0.000 NA
ATOM     32  H   UNL     1      -6.775  12.547  21.957  0.00  0.00    +0.000 HD
ATOM     33  H   UNL     1      -5.800  11.145  22.022  0.00  0.00    +0.000 HD
ENDBRANCH  25  26
ENDBRANCH  22  25
ENDBRANCH  18  19
ENDBRANCH   1  18
TORSDOF 9
ENDMDL
MODEL 7
REMARK VINA RESULT:      -6.7      2.396      2.926
REMARK  Name = 
REMARK  13 active torsions:
REMARK  status: ('A' for Active; 'I' for Inactive)
REMARK    1  A    between atoms: C_1  and  C_2
REMARK    2  A    between atoms: C_2  and  O_3
REMARK    3  A    between atoms: O_3  and  C_4
REMARK    4  A    between atoms: C_4  and  C_6
REMARK    5  A    between atoms: C_7  and  N_8
REMARK    6  A    between atoms: C_9  and  C_11
REMARK    7  A    between atoms: C_11  and  S_12
REMARK    8  A    between atoms: S_12  and  C_13
REMARK    9  A    between atoms: C_16  and  C_17
REMARK   10  A    between atoms: C_17  and  C_18
REMARK   11  A    between atoms: N_24  and  C_25
REMARK   12  A    between atoms: C_27  and  C_28
REMARK   13  A    between atoms: C_29  and  C_30
REMARK                            x       y       z     vdW  Elec       q    Type
REMARK                         _______ _______ _______ _____ _____    ______ ____
ROOT
ATOM      1  C   UNL     1       1.183   9.372  17.878  0.00  0.00    +0.000 C 
ENDROOT
BRANCH   1   3
ATOM      2  N   UNL     1       2.879   7.650  17.523  0.00  0.00    +0.000 N 
ATOM      3  C   UNL     1       2.086   8.294  18.472  0.00  0.00    +0.000 C 
ATOM      4  O   UNL     1       2.045   8.067  19.679  0.00  0.00    +0.000 OA
ATOM      5  H   UNL     1       2.811   7.964  16.559  0.00  0.00    +0.000 HD
BRANCH   2   7
ATOM      6  C   UNL     1       3.446   5.297  18.172  0.00  0.00    +0.000 A 
ATOM      7  C   UNL     1       3.756   6.585  17.738  0.00  0.00    +0.000 A 
ATOM      8  S   UNL     1       5.418   6.774  17.462  0.00  0.00    +0.000 S 
ATOM      9  C   UNL     1       5.784   5.183  17.931  0.00  0.00    +0.000 A 
ATOM     10  C   UNL     1       7.202   4.713  17.883  0.00  0.00    +0.000 C 
ATOM     11  C   UNL     1       4.656   4.484  18.321  0.00  0.00    +0.000 A 
ATOM     12  C   UNL     1       4.671   3.064  18.807  0.00  0.00    +0.000 C 
BRANCH   6  13
ATOM     13  C   UNL     1       2.089   4.778  18.399  0.00  0.00    +0.000 C 
ATOM     14  O   UNL     1       1.255   4.660  17.511  0.00  0.00    +0.000 OA
BRANCH  13  15
ATOM     15  O   UNL     1       1.821   4.548  19.722  0.00  0.00    +0.000 OA
BRANCH  15  17
ATOM     16  C   UNL     1       1.367   2.908  21.391  0.00  0.00    +0.000 C 
ATOM     17  C   UNL     1       1.058   3.359  19.974  0.00  0.00    +0.000 C 
ENDBRANCH  15  17
ENDBRANCH  13  15
ENDBRANCH   6  13
ENDBRANCH   2   7
ENDBRANCH   1   3
BRANCH   1  18
ATOM     18  S   UNL     1       1.637  10.978  18.601  0.00  0.00    +0.000 S 
BRANCH  18  19
ATOM     19  C   UNL     1       0.263  11.309  19.598  0.00  0.00    +0.000 A 
ATOM     20  N   UNL     1      -0.080  10.666  20.688  0.00  0.00    +0.000 NA
ATOM     21  N   UNL     1      -1.233  11.242  21.167  0.00  0.00    +0.000 NA
ATOM     22  C   UNL     1      -1.576  12.227  20.354  0.00  0.00    +0.000 A 
ATOM     23  N   UNL     1      -0.632  12.317  19.354  0.00  0.00    +0.000 N 
ATOM     24  C   UNL     1      -0.616  13.254  18.260  0.00  0.00    +0.000 C 
BRANCH  22  25
ATOM     25  C   UNL     1      -2.805  13.070  20.473  0.00  0.00    +0.000 C 
BRANCH  25  26
ATOM     26  C   UNL     1      -4.018  12.422  19.881  0.00  0.00    +0.000 A 
ATOM     27  C   UNL     1      -4.114  11.828  18.634  0.00  0.00    +0.000 A 
ATOM     28  S   UNL     1      -5.696  11.219  18.395  0.00  0.00    +0.000 S 
ATOM     29  C   UNL     1      -6.141  11.782  19.953  0.00  0.00    +0.000 A 
ATOM     30  N   UNL     1      -7.375  11.584  20.441  0.00  0.00    +0.000 N 
ATOM     31  N   UNL     1      -5.199  12.407  20.616  0.00  0.00    +0.000 NA
ATOM     32  H   UNL     1      -8.116  11.315  19.805  0.00  0.00    +0.000 HD
ATOM     33  H   UNL     1      -7.663  12.174  21.211  0.00  0.00    +0.000 HD
ENDBRANCH  25  26
ENDBRANCH  22  25
ENDBRANCH  18  19
ENDBRANCH   1  18
TORSDOF 9
ENDMDL
MODEL 8
REMARK VINA RESULT:      -6.6      1.523      1.642
REMARK  Name = 
REMARK  13 active torsions:
REMARK  status: ('A' for Active; 'I' for Inactive)
REMARK    1  A    between atoms: C_1  and  C_2
REMARK    2  A    between atoms: C_2  and  O_3
REMARK    3  A    between atoms: O_3  and  C_4
REMARK    4  A    between atoms: C_4  and  C_6
REMARK    5  A    between atoms: C_7  and  N_8
REMARK    6  A    between atoms: C_9  and  C_11
REMARK    7  A    between atoms: C_11  and  S_12
REMARK    8  A    between atoms: S_12  and  C_13
REMARK    9  A    between atoms: C_16  and  C_17
REMARK   10  A    between atoms: C_17  and  C_18
REMARK   11  A    between atoms: N_24  and  C_25
REMARK   12  A    between atoms: C_27  and  C_28
REMARK   13  A    between atoms: C_29  and  C_30
REMARK                            x       y       z     vdW  Elec       q    Type
REMARK                         _______ _______ _______ _____ _____    ______ ____
ROOT
ATOM      1  C   UNL     1       1.351   8.899  19.843  0.00  0.00    +0.000 C 
ENDROOT
BRANCH   1   3
ATOM      2  N   UNL     1       2.707   7.083  18.935  0.00  0.00    +0.000 N 
ATOM      3  C   UNL     1       2.047   8.274  18.637  0.00  0.00    +0.000 C 
ATOM      4  O   UNL     1       1.995   8.838  17.547  0.00  0.00    +0.000 OA
ATOM      5  H   UNL     1       2.644   6.732  19.887  0.00  0.00    +0.000 HD
BRANCH   2   7
ATOM      6  C   UNL     1       3.295   4.973  17.717  0.00  0.00    +0.000 A 
ATOM      7  C   UNL     1       3.483   6.309  18.070  0.00  0.00    +0.000 A 
ATOM      8  S   UNL     1       4.835   6.980  17.298  0.00  0.00    +0.000 S 
ATOM      9  C   UNL     1       5.231   5.532  16.502  0.00  0.00    +0.000 A 
ATOM     10  C   UNL     1       6.414   5.498  15.589  0.00  0.00    +0.000 C 
ATOM     11  C   UNL     1       4.356   4.509  16.819  0.00  0.00    +0.000 A 
ATOM     12  C   UNL     1       4.465   3.110  16.286  0.00  0.00    +0.000 C 
BRANCH   6  13
ATOM     13  C   UNL     1       2.159   4.135  18.129  0.00  0.00    +0.000 C 
ATOM     14  O   UNL     1       1.135   4.015  17.468  0.00  0.00    +0.000 OA
BRANCH  13  15
ATOM     15  O   UNL     1       2.319   3.596  19.377  0.00  0.00    +0.000 OA
BRANCH  15  17
ATOM     16  C   UNL     1       1.328   2.822  21.402  0.00  0.00    +0.000 C 
ATOM     17  C   UNL     1       1.216   3.824  20.267  0.00  0.00    +0.000 C 
ENDBRANCH  15  17
ENDBRANCH  13  15
ENDBRANCH   6  13
ENDBRANCH   2   7
ENDBRANCH   1   3
BRANCH   1  18
ATOM     18  S   UNL     1       0.719  10.538  19.369  0.00  0.00    +0.000 S 
BRANCH  18  19
ATOM     19  C   UNL     1       0.109  11.123  20.878  0.00  0.00    +0.000 A 
ATOM     20  N   UNL     1      -0.007  10.437  21.989  0.00  0.00    +0.000 NA
ATOM     21  N   UNL     1      -0.538  11.273  22.943  0.00  0.00    +0.000 NA
ATOM     22  C   UNL     1      -0.740  12.458  22.393  0.00  0.00    +0.000 A 
ATOM     23  N   UNL     1      -0.316  12.410  21.083  0.00  0.00    +0.000 N 
ATOM     24  C   UNL     1      -0.352  13.481  20.120  0.00  0.00    +0.000 C 
BRANCH  22  25
ATOM     25  C   UNL     1      -1.366  13.638  23.064  0.00  0.00    +0.000 C 
BRANCH  25  26
ATOM     26  C   UNL     1      -2.863  13.615  23.011  0.00  0.00    +0.000 A 
ATOM     27  C   UNL     1      -3.651  12.768  22.251  0.00  0.00    +0.000 A 
ATOM     28  S   UNL     1      -5.307  13.110  22.520  0.00  0.00    +0.000 S 
ATOM     29  C   UNL     1      -4.865  14.350  23.620  0.00  0.00    +0.000 A 
ATOM     30  N   UNL     1      -5.793  15.071  24.268  0.00  0.00    +0.000 N 
ATOM     31  N   UNL     1      -3.576  14.533  23.774  0.00  0.00    +0.000 NA
ATOM     32  H   UNL     1      -6.749  15.051  23.936  0.00  0.00    +0.000 HD
ATOM     33  H   UNL     1      -5.494  15.955  24.662  0.00  0.00    +0.000 HD
ENDBRANCH  25  26
ENDBRANCH  22  25
ENDBRANCH  18  19
ENDBRANCH   1  18
TORSDOF 9
ENDMDL
MODEL 9
REMARK VINA RESULT:      -6.6      1.385      1.573
REMARK  Name = 
REMARK  13 active torsions:
REMARK  status: ('A' for Active; 'I' for Inactive)
REMARK    1  A    between atoms: C_1  and  C_2
REMARK    2  A    between atoms: C_2  and  O_3
REMARK    3  A    between atoms: O_3  and  C_4
REMARK    4  A    between atoms: C_4  and  C_6
REMARK    5  A    between atoms: C_7  and  N_8
REMARK    6  A    between atoms: C_9  and  C_11
REMARK    7  A    between atoms: C_11  and  S_12
REMARK    8  A    between atoms: S_12  and  C_13
REMARK    9  A    between atoms: C_16  and  C_17
REMARK   10  A    between atoms: C_17  and  C_18
REMARK   11  A    between atoms: N_24  and  C_25
REMARK   12  A    between atoms: C_27  and  C_28
REMARK   13  A    between atoms: C_29  and  C_30
REMARK                            x       y       z     vdW  Elec       q    Type
REMARK                         _______ _______ _______ _____ _____    ______ ____
ROOT
ATOM      1  C   UNL     1       0.650   9.218  19.144  0.00  0.00    +0.000 C 
ENDROOT
BRANCH   1   3
ATOM      2  N   UNL     1       2.182   7.678  18.028  0.00  0.00    +0.000 N 
ATOM      3  C   UNL     1       1.760   8.176  19.260  0.00  0.00    +0.000 C 
ATOM      4  O   UNL     1       2.175   7.853  20.371  0.00  0.00    +0.000 OA
ATOM      5  H   UNL     1       1.752   8.060  17.190  0.00  0.00    +0.000 HD
BRANCH   2   7
ATOM      6  C   UNL     1       2.956   5.298  17.903  0.00  0.00    +0.000 A 
ATOM      7  C   UNL     1       3.129   6.677  17.803  0.00  0.00    +0.000 A 
ATOM      8  S   UNL     1       4.710   7.081  17.340  0.00  0.00    +0.000 S 
ATOM      9  C   UNL     1       5.221   5.462  17.287  0.00  0.00    +0.000 A 
ATOM     10  C   UNL     1       6.629   5.150  16.894  0.00  0.00    +0.000 C 
ATOM     11  C   UNL     1       4.208   4.586  17.634  0.00  0.00    +0.000 A 
ATOM     12  C   UNL     1       4.368   3.095  17.698  0.00  0.00    +0.000 C 
BRANCH   6  13
ATOM     13  C   UNL     1       1.682   4.617  18.181  0.00  0.00    +0.000 C 
ATOM     14  O   UNL     1       1.017   4.053  17.321  0.00  0.00    +0.000 OA
BRANCH  13  15
ATOM     15  O   UNL     1       1.263   4.779  19.474  0.00  0.00    +0.000 OA
BRANCH  15  17
ATOM     16  C   UNL     1       1.423   3.148  21.204  0.00  0.00    +0.000 C 
ATOM     17  C   UNL     1       2.160   4.246  20.459  0.00  0.00    +0.000 C 
ENDBRANCH  15  17
ENDBRANCH  13  15
ENDBRANCH   6  13
ENDBRANCH   2   7
ENDBRANCH   1   3
BRANCH   1  18
ATOM     18  S   UNL     1       1.372  10.871  19.382  0.00  0.00    +0.000 S 
BRANCH  18  19
ATOM     19  C   UNL     1       0.578  11.390  20.827  0.00  0.00    +0.000 A 
ATOM     20  N   UNL     1       0.434  10.694  21.929  0.00  0.00    +0.000 NA
ATOM     21  N   UNL     1      -0.259  11.471  22.827  0.00  0.00    +0.000 NA
ATOM     22  C   UNL     1      -0.529  12.631  22.253  0.00  0.00    +0.000 A 
ATOM     23  N   UNL     1       0.011  12.628  20.985  0.00  0.00    +0.000 N 
ATOM     24  C   UNL     1      -0.047  13.692  20.015  0.00  0.00    +0.000 C 
BRANCH  22  25
ATOM     25  C   UNL     1      -1.325  13.742  22.859  0.00  0.00    +0.000 C 
BRANCH  25  26
ATOM     26  C   UNL     1      -2.790  13.437  22.934  0.00  0.00    +0.000 A 
ATOM     27  C   UNL     1      -3.741  13.702  21.965  0.00  0.00    +0.000 A 
ATOM     28  S   UNL     1      -5.281  13.173  22.494  0.00  0.00    +0.000 S 
ATOM     29  C   UNL     1      -4.582  12.633  23.965  0.00  0.00    +0.000 A 
ATOM     30  N   UNL     1      -5.322  12.036  24.912  0.00  0.00    +0.000 N 
ATOM     31  N   UNL     1      -3.294  12.844  24.087  0.00  0.00    +0.000 NA
ATOM     32  H   UNL     1      -6.331  12.115  24.868  0.00  0.00    +0.000 HD
ATOM     33  H   UNL     1      -4.934  12.008  25.846  0.00  0.00    +0.000 HD
ENDBRANCH  25  26
ENDBRANCH  22  25
ENDBRANCH  18  19
ENDBRANCH   1  18
TORSDOF 9
ENDMDL
