MODEL 1
REMARK VINA RESULT:      -7.6      0.000      0.000
REMARK  Name = 
REMARK  6 active torsions:
REMARK  status: ('A' for Active; 'I' for Inactive)
REMARK    1  A    between atoms: C_1  and  C_2
REMARK    2  A    between atoms: C_5  and  N_6
REMARK    3  A    between atoms: N_15  and  C_16
REMARK    4  A    between atoms: C_16  and  C_17
REMARK    5  A    between atoms: N_19  and  C_20
REMARK    6  A    between atoms: C_28  and  C_29
REMARK                            x       y       z     vdW  Elec       q    Type
REMARK                         _______ _______ _______ _____ _____    ______ ____
ROOT
ATOM      1  N   UNL     1       1.174   9.672  19.351  0.00  0.00    +0.000 N 
ATOM      2  C   UNL     1       1.931   9.007  18.384  0.00  0.00    +0.000 A 
ATOM      3  O   UNL     1       2.319   9.372  17.287  0.00  0.00    +0.000 OA
ATOM      4  C   UNL     1       2.221   7.707  18.942  0.00  0.00    +0.000 A 
ATOM      5  C   UNL     1       2.889   6.630  18.373  0.00  0.00    +0.000 A 
ATOM      6  C   UNL     1       2.851   5.448  19.089  0.00  0.00    +0.000 A 
ATOM      7  C   UNL     1       2.142   5.418  20.294  0.00  0.00    +0.000 A 
ATOM      8  N   UNL     1       1.535   6.494  20.877  0.00  0.00    +0.000 NA
ATOM      9  C   UNL     1       1.606   7.645  20.184  0.00  0.00    +0.000 A 
ATOM     10  N   UNL     1       1.134   8.941  20.597  0.00  0.00    +0.000 N 
ENDROOT
BRANCH   1  15
ATOM     11  C   UNL     1      -0.567  15.090  18.871  0.00  0.00    +0.000 C 
ATOM     12  C   UNL     1      -0.085  13.673  19.010  0.00  0.00    +0.000 A 
ATOM     13  C   UNL     1      -0.861  12.635  18.478  0.00  0.00    +0.000 A 
ATOM     14  C   UNL     1      -0.442  11.309  18.573  0.00  0.00    +0.000 A 
ATOM     15  C   UNL     1       0.743  10.996  19.234  0.00  0.00    +0.000 A 
ATOM     16  C   UNL     1       1.510  12.028  19.793  0.00  0.00    +0.000 A 
ATOM     17  C   UNL     1       1.125  13.370  19.662  0.00  0.00    +0.000 A 
ATOM     18  C   UNL     1       2.013  14.452  20.217  0.00  0.00    +0.000 C 
ENDBRANCH   1  15
BRANCH  10  19
ATOM     19  C   UNL     1      -0.162   8.891  21.317  0.00  0.00    +0.000 C 
BRANCH  19  20
ATOM     20  C   UNL     1      -0.363  10.087  22.268  0.00  0.00    +0.000 C 
ATOM     21  O   UNL     1       0.244  10.136  23.339  0.00  0.00    +0.000 OA
ATOM     22  N   UNL     1      -1.253  11.064  21.841  0.00  0.00    +0.000 N 
ATOM     23  H   UNL     1      -1.912  10.759  21.132  0.00  0.00    +0.000 HD
BRANCH  22  24
ATOM     24  C   UNL     1      -1.583  12.203  22.613  0.00  0.00    +0.000 A 
ATOM     25  C   UNL     1      -0.724  13.306  22.708  0.00  0.00    +0.000 A 
ATOM     26  C   UNL     1      -1.087  14.423  23.468  0.00  0.00    +0.000 A 
ATOM     27  C   UNL     1      -2.293  14.421  24.172  0.00  0.00    +0.000 A 
ATOM     28 BR   UNL     1      -2.770  15.909  25.233  0.00  0.00    +0.000 Br
ATOM     29  C   UNL     1      -3.146  13.324  24.091  0.00  0.00    +0.000 A 
ATOM     30  C   UNL     1      -2.805  12.230  23.282  0.00  0.00    +0.000 A 
ENDBRANCH  22  24
ENDBRANCH  19  20
ENDBRANCH  10  19
TORSDOF 4
ENDMDL
MODEL 2
REMARK VINA RESULT:      -7.1      0.695      1.459
REMARK  Name = 
REMARK  6 active torsions:
REMARK  status: ('A' for Active; 'I' for Inactive)
REMARK    1  A    between atoms: C_1  and  C_2
REMARK    2  A    between atoms: C_5  and  N_6
REMARK    3  A    between atoms: N_15  and  C_16
REMARK    4  A    between atoms: C_16  and  C_17
REMARK    5  A    between atoms: N_19  and  C_20
REMARK    6  A    between atoms: C_28  and  C_29
REMARK                            x       y       z     vdW  Elec       q    Type
REMARK                         _______ _______ _______ _____ _____    ______ ____
ROOT
ATOM      1  N   UNL     1       1.368   9.098  19.333  0.00  0.00    +0.000 N 
ATOM      2  C   UNL     1       2.095   8.386  18.378  0.00  0.00    +0.000 A 
ATOM      3  O   UNL     1       2.432   8.688  17.245  0.00  0.00    +0.000 OA
ATOM      4  C   UNL     1       2.428   7.126  19.001  0.00  0.00    +0.000 A 
ATOM      5  C   UNL     1       3.089   6.026  18.471  0.00  0.00    +0.000 A 
ATOM      6  C   UNL     1       3.099   4.889  19.258  0.00  0.00    +0.000 A 
ATOM      7  C   UNL     1       2.440   4.923  20.491  0.00  0.00    +0.000 A 
ATOM      8  N   UNL     1       1.840   6.025  21.033  0.00  0.00    +0.000 NA
ATOM      9  C   UNL     1       1.865   7.132  20.269  0.00  0.00    +0.000 A 
ATOM     10  N   UNL     1       1.390   8.445  20.622  0.00  0.00    +0.000 N 
ENDROOT
BRANCH   1  15
ATOM     11  C   UNL     1      -0.516  14.441  18.610  0.00  0.00    +0.000 C 
ATOM     12  C   UNL     1      -0.046  13.025  18.792  0.00  0.00    +0.000 A 
ATOM     13  C   UNL     1       1.247  12.795  19.282  0.00  0.00    +0.000 A 
ATOM     14  C   UNL     1       1.715  11.498  19.479  0.00  0.00    +0.000 A 
ATOM     15  C   UNL     1       0.911  10.407  19.154  0.00  0.00    +0.000 A 
ATOM     16  C   UNL     1      -0.372  10.631  18.638  0.00  0.00    +0.000 A 
ATOM     17  C   UNL     1      -0.874  11.930  18.481  0.00  0.00    +0.000 A 
ATOM     18  C   UNL     1      -2.284  12.125  17.987  0.00  0.00    +0.000 C 
ENDBRANCH   1  15
BRANCH  10  19
ATOM     19  C   UNL     1       0.125   8.421  21.397  0.00  0.00    +0.000 C 
BRANCH  19  20
ATOM     20  C   UNL     1      -0.074   9.688  22.253  0.00  0.00    +0.000 C 
ATOM     21  O   UNL     1       0.584   9.849  23.282  0.00  0.00    +0.000 OA
ATOM     22  N   UNL     1      -1.021  10.594  21.793  0.00  0.00    +0.000 N 
ATOM     23  H   UNL     1      -1.702  10.207  21.148  0.00  0.00    +0.000 HD
BRANCH  22  24
ATOM     24  C   UNL     1      -1.355  11.783  22.482  0.00  0.00    +0.000 A 
ATOM     25  C   UNL     1      -0.542  12.923  22.427  0.00  0.00    +0.000 A 
ATOM     26  C   UNL     1      -0.909  14.088  23.109  0.00  0.00    +0.000 A 
ATOM     27  C   UNL     1      -2.069  14.101  23.884  0.00  0.00    +0.000 A 
ATOM     28 BR   UNL     1      -2.549  15.659  24.841  0.00  0.00    +0.000 Br
ATOM     29  C   UNL     1      -2.876  12.970  23.954  0.00  0.00    +0.000 A 
ATOM     30  C   UNL     1      -2.535  11.822  23.222  0.00  0.00    +0.000 A 
ENDBRANCH  22  24
ENDBRANCH  19  20
ENDBRANCH  10  19
TORSDOF 4
ENDMDL
MODEL 3
REMARK VINA RESULT:      -7.0      3.976      7.843
REMARK  Name = 
REMARK  6 active torsions:
REMARK  status: ('A' for Active; 'I' for Inactive)
REMARK    1  A    between atoms: C_1  and  C_2
REMARK    2  A    between atoms: C_5  and  N_6
REMARK    3  A    between atoms: N_15  and  C_16
REMARK    4  A    between atoms: C_16  and  C_17
REMARK    5  A    between atoms: N_19  and  C_20
REMARK    6  A    between atoms: C_28  and  C_29
REMARK                            x       y       z     vdW  Elec       q    Type
REMARK                         _______ _______ _______ _____ _____    ______ ____
ROOT
ATOM      1  N   UNL     1       4.081   3.992  17.487  0.00  0.00    +0.000 N 
ATOM      2  C   UNL     1       2.937   3.210  17.325  0.00  0.00    +0.000 A 
ATOM      3  O   UNL     1       2.483   2.658  16.336  0.00  0.00    +0.000 OA
ATOM      4  C   UNL     1       2.325   3.139  18.631  0.00  0.00    +0.000 A 
ATOM      5  C   UNL     1       1.134   2.539  19.016  0.00  0.00    +0.000 A 
ATOM      6  C   UNL     1       0.717   2.795  20.310  0.00  0.00    +0.000 A 
ATOM      7  C   UNL     1       1.497   3.638  21.108  0.00  0.00    +0.000 A 
ATOM      8  N   UNL     1       2.697   4.181  20.743  0.00  0.00    +0.000 NA
ATOM      9  C   UNL     1       3.104   3.897  19.493  0.00  0.00    +0.000 A 
ATOM     10  N   UNL     1       4.355   4.261  18.880  0.00  0.00    +0.000 N 
ENDROOT
BRANCH   1  15
ATOM     11  C   UNL     1       7.836   5.054  13.316  0.00  0.00    +0.000 C 
ATOM     12  C   UNL     1       6.829   4.764  14.394  0.00  0.00    +0.000 A 
ATOM     13  C   UNL     1       7.121   5.134  15.714  0.00  0.00    +0.000 A 
ATOM     14  C   UNL     1       6.209   4.896  16.740  0.00  0.00    +0.000 A 
ATOM     15  C   UNL     1       5.004   4.251  16.469  0.00  0.00    +0.000 A 
ATOM     16  C   UNL     1       4.720   3.853  15.156  0.00  0.00    +0.000 A 
ATOM     17  C   UNL     1       5.607   4.130  14.106  0.00  0.00    +0.000 A 
ATOM     18  C   UNL     1       5.231   3.747  12.699  0.00  0.00    +0.000 C 
ENDBRANCH   1  15
BRANCH  10  19
ATOM     19  C   UNL     1       4.806   5.629  19.236  0.00  0.00    +0.000 C 
BRANCH  19  20
ATOM     20  C   UNL     1       3.787   6.715  18.841  0.00  0.00    +0.000 C 
ATOM     21  O   UNL     1       3.811   7.206  17.710  0.00  0.00    +0.000 OA
ATOM     22  N   UNL     1       2.878   7.088  19.823  0.00  0.00    +0.000 N 
ATOM     23  H   UNL     1       3.161   6.864  20.771  0.00  0.00    +0.000 HD
BRANCH  22  24
ATOM     24  C   UNL     1       1.907   8.098  19.637  0.00  0.00    +0.000 A 
ATOM     25  C   UNL     1       1.717   8.725  18.398  0.00  0.00    +0.000 A 
ATOM     26  C   UNL     1       0.737   9.711  18.244  0.00  0.00    +0.000 A 
ATOM     27  C   UNL     1      -0.027  10.105  19.343  0.00  0.00    +0.000 A 
ATOM     28 BR   UNL     1      -1.324  11.466  19.152  0.00  0.00    +0.000 Br
ATOM     29  C   UNL     1       0.162   9.497  20.580  0.00  0.00    +0.000 A 
ATOM     30  C   UNL     1       1.105   8.467  20.716  0.00  0.00    +0.000 A 
ENDBRANCH  22  24
ENDBRANCH  19  20
ENDBRANCH  10  19
TORSDOF 4
ENDMDL
MODEL 4
REMARK VINA RESULT:      -6.9      3.754      7.479
REMARK  Name = 
REMARK  6 active torsions:
REMARK  status: ('A' for Active; 'I' for Inactive)
REMARK    1  A    between atoms: C_1  and  C_2
REMARK    2  A    between atoms: C_5  and  N_6
REMARK    3  A    between atoms: N_15  and  C_16
REMARK    4  A    between atoms: C_16  and  C_17
REMARK    5  A    between atoms: N_19  and  C_20
REMARK    6  A    between atoms: C_28  and  C_29
REMARK                            x       y       z     vdW  Elec       q    Type
REMARK                         _______ _______ _______ _____ _____    ______ ____
ROOT
ATOM      1  N   UNL     1       4.203   4.222  18.182  0.00  0.00    +0.000 N 
ATOM      2  C   UNL     1       4.215   3.031  18.910  0.00  0.00    +0.000 A 
ATOM      3  O   UNL     1       4.897   2.028  18.785  0.00  0.00    +0.000 OA
ATOM      4  C   UNL     1       3.212   3.191  19.937  0.00  0.00    +0.000 A 
ATOM      5  C   UNL     1       2.773   2.285  20.893  0.00  0.00    +0.000 A 
ATOM      6  C   UNL     1       1.664   2.667  21.626  0.00  0.00    +0.000 A 
ATOM      7  C   UNL     1       1.068   3.899  21.343  0.00  0.00    +0.000 A 
ATOM      8  N   UNL     1       1.536   4.813  20.440  0.00  0.00    +0.000 NA
ATOM      9  C   UNL     1       2.633   4.440  19.756  0.00  0.00    +0.000 A 
ATOM     10  N   UNL     1       3.383   5.230  18.815  0.00  0.00    +0.000 N 
ENDROOT
BRANCH   1  15
ATOM     11  C   UNL     1       7.775   5.391  13.882  0.00  0.00    +0.000 C 
ATOM     12  C   UNL     1       6.818   5.069  14.995  0.00  0.00    +0.000 A 
ATOM     13  C   UNL     1       7.071   5.575  16.278  0.00  0.00    +0.000 A 
ATOM     14  C   UNL     1       6.201   5.311  17.333  0.00  0.00    +0.000 A 
ATOM     15  C   UNL     1       5.081   4.508  17.133  0.00  0.00    +0.000 A 
ATOM     16  C   UNL     1       4.837   3.976  15.859  0.00  0.00    +0.000 A 
ATOM     17  C   UNL     1       5.678   4.273  14.777  0.00  0.00    +0.000 A 
ATOM     18  C   UNL     1       5.342   3.738  13.410  0.00  0.00    +0.000 C 
ENDBRANCH   1  15
BRANCH  10  19
ATOM     19  C   UNL     1       2.527   6.064  17.937  0.00  0.00    +0.000 C 
BRANCH  19  20
ATOM     20  C   UNL     1       2.249   7.461  18.526  0.00  0.00    +0.000 C 
ATOM     21  O   UNL     1       2.464   7.684  19.719  0.00  0.00    +0.000 OA
ATOM     22  N   UNL     1       1.752   8.410  17.643  0.00  0.00    +0.000 N 
ATOM     23  H   UNL     1       1.322   8.028  16.806  0.00  0.00    +0.000 HD
BRANCH  22  24
ATOM     24  C   UNL     1       1.404   9.725  18.031  0.00  0.00    +0.000 A 
ATOM     25  C   UNL     1       2.343  10.765  18.047  0.00  0.00    +0.000 A 
ATOM     26  C   UNL     1       1.963  12.057  18.422  0.00  0.00    +0.000 A 
ATOM     27  C   UNL     1       0.650  12.304  18.827  0.00  0.00    +0.000 A 
ATOM     28 BR   UNL     1       0.141  14.039  19.375  0.00  0.00    +0.000 Br
ATOM     29  C   UNL     1      -0.285  11.274  18.826  0.00  0.00    +0.000 A 
ATOM     30  C   UNL     1       0.085   9.992  18.393  0.00  0.00    +0.000 A 
ENDBRANCH  22  24
ENDBRANCH  19  20
ENDBRANCH  10  19
TORSDOF 4
ENDMDL
MODEL 5
REMARK VINA RESULT:      -6.7      2.806      6.255
REMARK  Name = 
REMARK  6 active torsions:
REMARK  status: ('A' for Active; 'I' for Inactive)
REMARK    1  A    between atoms: C_1  and  C_2
REMARK    2  A    between atoms: C_5  and  N_6
REMARK    3  A    between atoms: N_15  and  C_16
REMARK    4  A    between atoms: C_16  and  C_17
REMARK    5  A    between atoms: N_19  and  C_20
REMARK    6  A    between atoms: C_28  and  C_29
REMARK                            x       y       z     vdW  Elec       q    Type
REMARK                         _______ _______ _______ _____ _____    ______ ____
ROOT
ATOM      1  N   UNL     1       0.719   9.754  20.577  0.00  0.00    +0.000 N 
ATOM      2  C   UNL     1      -0.120   9.516  21.667  0.00  0.00    +0.000 A 
ATOM      3  O   UNL     1      -0.489   8.470  22.174  0.00  0.00    +0.000 OA
ATOM      4  C   UNL     1      -0.506  10.819  22.154  0.00  0.00    +0.000 A 
ATOM      5  C   UNL     1      -1.379  11.156  23.180  0.00  0.00    +0.000 A 
ATOM      6  C   UNL     1      -1.690  12.499  23.294  0.00  0.00    +0.000 A 
ATOM      7  C   UNL     1      -1.133  13.395  22.375  0.00  0.00    +0.000 A 
ATOM      8  N   UNL     1      -0.231  13.066  21.402  0.00  0.00    +0.000 NA
ATOM      9  C   UNL     1       0.086  11.761  21.324  0.00  0.00    +0.000 A 
ATOM     10  N   UNL     1       1.063  11.152  20.459  0.00  0.00    +0.000 N 
ENDROOT
BRANCH   1  15
ATOM     11  C   UNL     1       3.376   5.634  17.645  0.00  0.00    +0.000 C 
ATOM     12  C   UNL     1       2.674   6.701  18.439  0.00  0.00    +0.000 A 
ATOM     13  C   UNL     1       2.378   7.924  17.823  0.00  0.00    +0.000 A 
ATOM     14  C   UNL     1       1.716   8.933  18.520  0.00  0.00    +0.000 A 
ATOM     15  C   UNL     1       1.372   8.749  19.857  0.00  0.00    +0.000 A 
ATOM     16  C   UNL     1       1.691   7.538  20.487  0.00  0.00    +0.000 A 
ATOM     17  C   UNL     1       2.313   6.497  19.784  0.00  0.00    +0.000 A 
ATOM     18  C   UNL     1       2.575   5.187  20.479  0.00  0.00    +0.000 C 
ENDBRANCH   1  15
BRANCH  10  19
ATOM     19  C   UNL     1       1.085  11.737  19.096  0.00  0.00    +0.000 C 
BRANCH  19  20
ATOM     20  C   UNL     1      -0.305  12.207  18.626  0.00  0.00    +0.000 C 
ATOM     21  O   UNL     1      -0.445  13.325  18.125  0.00  0.00    +0.000 OA
ATOM     22  N   UNL     1      -1.349  11.309  18.808  0.00  0.00    +0.000 N 
ATOM     23  H   UNL     1      -1.175  10.591  19.504  0.00  0.00    +0.000 HD
BRANCH  22  24
ATOM     24  C   UNL     1      -2.691  11.601  18.471  0.00  0.00    +0.000 A 
ATOM     25  C   UNL     1      -3.206  11.342  17.193  0.00  0.00    +0.000 A 
ATOM     26  C   UNL     1      -4.543  11.629  16.897  0.00  0.00    +0.000 A 
ATOM     27  C   UNL     1      -5.357  12.218  17.866  0.00  0.00    +0.000 A 
ATOM     28 BR   UNL     1      -7.151  12.646  17.458  0.00  0.00    +0.000 Br
ATOM     29  C   UNL     1      -4.849  12.490  19.132  0.00  0.00    +0.000 A 
ATOM     30  C   UNL     1      -3.525  12.147  19.445  0.00  0.00    +0.000 A 
ENDBRANCH  22  24
ENDBRANCH  19  20
ENDBRANCH  10  19
TORSDOF 4
ENDMDL
MODEL 6
REMARK VINA RESULT:      -6.7      3.654      7.348
REMARK  Name = 
REMARK  6 active torsions:
REMARK  status: ('A' for Active; 'I' for Inactive)
REMARK    1  A    between atoms: C_1  and  C_2
REMARK    2  A    between atoms: C_5  and  N_6
REMARK    3  A    between atoms: N_15  and  C_16
REMARK    4  A    between atoms: C_16  and  C_17
REMARK    5  A    between atoms: N_19  and  C_20
REMARK    6  A    between atoms: C_28  and  C_29
REMARK                            x       y       z     vdW  Elec       q    Type
REMARK                         _______ _______ _______ _____ _____    ______ ____
ROOT
ATOM      1  N   UNL     1       4.323   4.327  18.180  0.00  0.00    +0.000 N 
ATOM      2  C   UNL     1       4.373   3.187  18.984  0.00  0.00    +0.000 A 
ATOM      3  O   UNL     1       5.090   2.202  18.924  0.00  0.00    +0.000 OA
ATOM      4  C   UNL     1       3.362   3.379  19.997  0.00  0.00    +0.000 A 
ATOM      5  C   UNL     1       2.952   2.521  21.009  0.00  0.00    +0.000 A 
ATOM      6  C   UNL     1       1.828   2.911  21.715  0.00  0.00    +0.000 A 
ATOM      7  C   UNL     1       1.191   4.102  21.352  0.00  0.00    +0.000 A 
ATOM      8  N   UNL     1       1.631   4.970  20.392  0.00  0.00    +0.000 NA
ATOM      9  C   UNL     1       2.742   4.592  19.735  0.00  0.00    +0.000 A 
ATOM     10  N   UNL     1       3.467   5.345  18.746  0.00  0.00    +0.000 N 
ENDROOT
BRANCH   1  15
ATOM     11  C   UNL     1       7.867   5.339  13.817  0.00  0.00    +0.000 C 
ATOM     12  C   UNL     1       6.916   5.059  14.947  0.00  0.00    +0.000 A 
ATOM     13  C   UNL     1       7.191   5.590  16.214  0.00  0.00    +0.000 A 
ATOM     14  C   UNL     1       6.328   5.365  17.285  0.00  0.00    +0.000 A 
ATOM     15  C   UNL     1       5.194   4.574  17.115  0.00  0.00    +0.000 A 
ATOM     16  C   UNL     1       4.929   4.017  15.857  0.00  0.00    +0.000 A 
ATOM     17  C   UNL     1       5.762   4.275  14.759  0.00  0.00    +0.000 A 
ATOM     18  C   UNL     1       5.404   3.714  13.409  0.00  0.00    +0.000 C 
ENDBRANCH   1  15
BRANCH  10  19
ATOM     19  C   UNL     1       2.586   6.091  17.815  0.00  0.00    +0.000 C 
BRANCH  19  20
ATOM     20  C   UNL     1       2.464   7.585  18.176  0.00  0.00    +0.000 C 
ATOM     21  O   UNL     1       3.270   8.399  17.723  0.00  0.00    +0.000 OA
ATOM     22  N   UNL     1       1.418   7.926  19.023  0.00  0.00    +0.000 N 
ATOM     23  H   UNL     1       1.045   7.156  19.569  0.00  0.00    +0.000 HD
BRANCH  22  24
ATOM     24  C   UNL     1       1.192   9.243  19.484  0.00  0.00    +0.000 A 
ATOM     25  C   UNL     1       1.190  10.342  18.615  0.00  0.00    +0.000 A 
ATOM     26  C   UNL     1       0.949  11.631  19.102  0.00  0.00    +0.000 A 
ATOM     27  C   UNL     1       0.751  11.830  20.470  0.00  0.00    +0.000 A 
ATOM     28 BR   UNL     1       0.466  13.573  21.139  0.00  0.00    +0.000 Br
ATOM     29  C   UNL     1       0.763  10.745  21.341  0.00  0.00    +0.000 A 
ATOM     30  C   UNL     1       0.947   9.447  20.841  0.00  0.00    +0.000 A 
ENDBRANCH  22  24
ENDBRANCH  19  20
ENDBRANCH  10  19
TORSDOF 4
ENDMDL
MODEL 7
REMARK VINA RESULT:      -6.6      3.510      6.423
REMARK  Name = 
REMARK  6 active torsions:
REMARK  status: ('A' for Active; 'I' for Inactive)
REMARK    1  A    between atoms: C_1  and  C_2
REMARK    2  A    between atoms: C_5  and  N_6
REMARK    3  A    between atoms: N_15  and  C_16
REMARK    4  A    between atoms: C_16  and  C_17
REMARK    5  A    between atoms: N_19  and  C_20
REMARK    6  A    between atoms: C_28  and  C_29
REMARK                            x       y       z     vdW  Elec       q    Type
REMARK                         _______ _______ _______ _____ _____    ______ ____
ROOT
ATOM      1  N   UNL     1      -0.756  11.282  22.177  0.00  0.00    +0.000 N 
ATOM      2  C   UNL     1      -0.072  10.216  22.765  0.00  0.00    +0.000 A 
ATOM      3  O   UNL     1       0.093   9.925  23.938  0.00  0.00    +0.000 OA
ATOM      4  C   UNL     1       0.447   9.433  21.667  0.00  0.00    +0.000 A 
ATOM      5  C   UNL     1       1.253   8.303  21.692  0.00  0.00    +0.000 A 
ATOM      6  C   UNL     1       1.740   7.880  20.469  0.00  0.00    +0.000 A 
ATOM      7  C   UNL     1       1.411   8.617  19.327  0.00  0.00    +0.000 A 
ATOM      8  N   UNL     1       0.571   9.695  19.300  0.00  0.00    +0.000 NA
ATOM      9  C   UNL     1       0.081  10.077  20.493  0.00  0.00    +0.000 A 
ATOM     10  N   UNL     1      -0.883  11.115  20.748  0.00  0.00    +0.000 N 
ENDROOT
BRANCH   1  15
ATOM     11  C   UNL     1      -3.687  15.200  25.123  0.00  0.00    +0.000 C 
ATOM     12  C   UNL     1      -2.936  14.150  24.352  0.00  0.00    +0.000 A 
ATOM     13  C   UNL     1      -1.648  14.441  23.883  0.00  0.00    +0.000 A 
ATOM     14  C   UNL     1      -0.915  13.490  23.176  0.00  0.00    +0.000 A 
ATOM     15  C   UNL     1      -1.471  12.244  22.895  0.00  0.00    +0.000 A 
ATOM     16  C   UNL     1      -2.770  11.958  23.337  0.00  0.00    +0.000 A 
ATOM     17  C   UNL     1      -3.501  12.887  24.091  0.00  0.00    +0.000 A 
ATOM     18  C   UNL     1      -4.866  12.514  24.606  0.00  0.00    +0.000 C 
ENDBRANCH   1  15
BRANCH  10  19
ATOM     19  C   UNL     1      -0.686  12.317  19.900  0.00  0.00    +0.000 C 
BRANCH  19  20
ATOM     20  C   UNL     1      -1.157  12.107  18.448  0.00  0.00    +0.000 C 
ATOM     21  O   UNL     1      -0.753  12.851  17.552  0.00  0.00    +0.000 OA
ATOM     22  N   UNL     1      -2.042  11.058  18.237  0.00  0.00    +0.000 N 
ATOM     23  H   UNL     1      -2.536  10.745  19.067  0.00  0.00    +0.000 HD
BRANCH  22  24
ATOM     24  C   UNL     1      -2.601  10.758  16.973  0.00  0.00    +0.000 A 
ATOM     25  C   UNL     1      -2.030   9.805  16.118  0.00  0.00    +0.000 A 
ATOM     26  C   UNL     1      -2.618   9.521  14.881  0.00  0.00    +0.000 A 
ATOM     27  C   UNL     1      -3.754  10.222  14.476  0.00  0.00    +0.000 A 
ATOM     28 BR   UNL     1      -4.528   9.872  12.788  0.00  0.00    +0.000 Br
ATOM     29  C   UNL     1      -4.321  11.177  15.314  0.00  0.00    +0.000 A 
ATOM     30  C   UNL     1      -3.763  11.418  16.579  0.00  0.00    +0.000 A 
ENDBRANCH  22  24
ENDBRANCH  19  20
ENDBRANCH  10  19
TORSDOF 4
ENDMDL
MODEL 8
REMARK VINA RESULT:      -6.5      4.085      6.572
REMARK  Name = 
REMARK  6 active torsions:
REMARK  status: ('A' for Active; 'I' for Inactive)
REMARK    1  A    between atoms: C_1  and  C_2
REMARK    2  A    between atoms: C_5  and  N_6
REMARK    3  A    between atoms: N_15  and  C_16
REMARK    4  A    between atoms: C_16  and  C_17
REMARK    5  A    between atoms: N_19  and  C_20
REMARK    6  A    between atoms: C_28  and  C_29
REMARK                            x       y       z     vdW  Elec       q    Type
REMARK                         _______ _______ _______ _____ _____    ______ ____
ROOT
ATOM      1  N   UNL     1      -3.227  12.494  19.950  0.00  0.00    +0.000 N 
ATOM      2  C   UNL     1      -4.343  12.288  19.137  0.00  0.00    +0.000 A 
ATOM      3  O   UNL     1      -5.516  12.581  19.305  0.00  0.00    +0.000 OA
ATOM      4  C   UNL     1      -3.847  11.627  17.952  0.00  0.00    +0.000 A 
ATOM      5  C   UNL     1      -4.544  11.142  16.854  0.00  0.00    +0.000 A 
ATOM      6  C   UNL     1      -3.810  10.390  15.955  0.00  0.00    +0.000 A 
ATOM      7  C   UNL     1      -2.456  10.162  16.223  0.00  0.00    +0.000 A 
ATOM      8  N   UNL     1      -1.762  10.689  17.276  0.00  0.00    +0.000 NA
ATOM      9  C   UNL     1      -2.482  11.443  18.125  0.00  0.00    +0.000 A 
ATOM     10  N   UNL     1      -1.996  12.184  19.259  0.00  0.00    +0.000 N 
ENDROOT
BRANCH   1  15
ATOM     11  C   UNL     1      -3.363  15.252  24.949  0.00  0.00    +0.000 C 
ATOM     12  C   UNL     1      -3.338  14.502  23.646  0.00  0.00    +0.000 A 
ATOM     13  C   UNL     1      -2.818  15.134  22.508  0.00  0.00    +0.000 A 
ATOM     14  C   UNL     1      -2.764  14.469  21.285  0.00  0.00    +0.000 A 
ATOM     15  C   UNL     1      -3.262  13.173  21.171  0.00  0.00    +0.000 A 
ATOM     16  C   UNL     1      -3.808  12.547  22.299  0.00  0.00    +0.000 A 
ATOM     17  C   UNL     1      -3.825  13.186  23.547  0.00  0.00    +0.000 A 
ATOM     18  C   UNL     1      -4.357  12.451  24.748  0.00  0.00    +0.000 C 
ENDBRANCH   1  15
BRANCH  10  19
ATOM     19  C   UNL     1      -0.947  11.465  20.023  0.00  0.00    +0.000 C 
BRANCH  19  20
ATOM     20  C   UNL     1       0.375  12.251  20.109  0.00  0.00    +0.000 C 
ATOM     21  O   UNL     1       1.144  12.070  21.055  0.00  0.00    +0.000 OA
ATOM     22  N   UNL     1       0.620  13.150  19.079  0.00  0.00    +0.000 N 
ATOM     23  H   UNL     1      -0.205  13.439  18.562  0.00  0.00    +0.000 HD
BRANCH  22  24
ATOM     24  C   UNL     1       1.764  13.980  19.029  0.00  0.00    +0.000 A 
ATOM     25  C   UNL     1       2.923  13.602  18.339  0.00  0.00    +0.000 A 
ATOM     26  C   UNL     1       4.032  14.453  18.297  0.00  0.00    +0.000 A 
ATOM     27  C   UNL     1       4.001  15.667  18.984  0.00  0.00    +0.000 A 
ATOM     28 BR   UNL     1       5.511  16.803  18.966  0.00  0.00    +0.000 Br
ATOM     29  C   UNL     1       2.858  16.046  19.681  0.00  0.00    +0.000 A 
ATOM     30  C   UNL     1       1.726  15.216  19.672  0.00  0.00    +0.000 A 
ENDBRANCH  22  24
ENDBRANCH  19  20
ENDBRANCH  10  19
TORSDOF 4
ENDMDL
MODEL 9
REMARK VINA RESULT:      -6.5      4.294      7.522
REMARK  Name = 
REMARK  6 active torsions:
REMARK  status: ('A' for Active; 'I' for Inactive)
REMARK    1  A    between atoms: C_1  and  C_2
REMARK    2  A    between atoms: C_5  and  N_6
REMARK    3  A    between atoms: N_15  and  C_16
REMARK    4  A    between atoms: C_16  and  C_17
REMARK    5  A    between atoms: N_19  and  C_20
REMARK    6  A    between atoms: C_28  and  C_29
REMARK                            x       y       z     vdW  Elec       q    Type
REMARK                         _______ _______ _______ _____ _____    ______ ____
ROOT
ATOM      1  N   UNL     1       0.200  12.291  19.065  0.00  0.00    +0.000 N 
ATOM      2  C   UNL     1      -1.043  12.908  18.918  0.00  0.00    +0.000 A 
ATOM      3  O   UNL     1      -1.396  14.053  19.146  0.00  0.00    +0.000 OA
ATOM      4  C   UNL     1      -1.924  11.890  18.394  0.00  0.00    +0.000 A 
ATOM      5  C   UNL     1      -3.284  11.953  18.123  0.00  0.00    +0.000 A 
ATOM      6  C   UNL     1      -3.894  10.755  17.798  0.00  0.00    +0.000 A 
ATOM      7  C   UNL     1      -3.117   9.592  17.788  0.00  0.00    +0.000 A 
ATOM      8  N   UNL     1      -1.768   9.543  18.000  0.00  0.00    +0.000 NA
ATOM      9  C   UNL     1      -1.184  10.721  18.285  0.00  0.00    +0.000 A 
ATOM     10  N   UNL     1       0.221  10.976  18.466  0.00  0.00    +0.000 N 
ENDROOT
BRANCH   1  15
ATOM     11  C   UNL     1       4.931  15.007  20.756  0.00  0.00    +0.000 C 
ATOM     12  C   UNL     1       3.693  14.297  20.283  0.00  0.00    +0.000 A 
ATOM     13  C   UNL     1       2.783  13.813  21.233  0.00  0.00    +0.000 A 
ATOM     14  C   UNL     1       1.617  13.162  20.835  0.00  0.00    +0.000 A 
ATOM     15  C   UNL     1       1.359  12.952  19.483  0.00  0.00    +0.000 A 
ATOM     16  C   UNL     1       2.279  13.410  18.530  0.00  0.00    +0.000 A 
ATOM     17  C   UNL     1       3.432  14.109  18.913  0.00  0.00    +0.000 A 
ATOM     18  C   UNL     1       4.360  14.644  17.855  0.00  0.00    +0.000 C 
ENDBRANCH   1  15
BRANCH  10  19
ATOM     19  C   UNL     1       0.921   9.899  19.208  0.00  0.00    +0.000 C 
BRANCH  19  20
ATOM     20  C   UNL     1       1.860   9.068  18.311  0.00  0.00    +0.000 C 
ATOM     21  O   UNL     1       2.211   9.502  17.212  0.00  0.00    +0.000 OA
ATOM     22  N   UNL     1       2.258   7.837  18.816  0.00  0.00    +0.000 N 
ATOM     23  H   UNL     1       1.661   7.465  19.548  0.00  0.00    +0.000 HD
BRANCH  22  24
ATOM     24  C   UNL     1       3.082   6.936  18.102  0.00  0.00    +0.000 A 
ATOM     25  C   UNL     1       4.161   7.377  17.325  0.00  0.00    +0.000 A 
ATOM     26  C   UNL     1       4.965   6.457  16.644  0.00  0.00    +0.000 A 
ATOM     27  C   UNL     1       4.664   5.096  16.702  0.00  0.00    +0.000 A 
ATOM     28 BR   UNL     1       5.722   3.853  15.750  0.00  0.00    +0.000 Br
ATOM     29  C   UNL     1       3.587   4.651  17.462  0.00  0.00    +0.000 A 
ATOM     30  C   UNL     1       2.818   5.570  18.192  0.00  0.00    +0.000 A 
ENDBRANCH  22  24
ENDBRANCH  19  20
ENDBRANCH  10  19
TORSDOF 4
ENDMDL
