MODEL 1
REMARK VINA RESULT:      -7.2      0.000      0.000
REMARK  Name = 
REMARK  2 active torsions:
REMARK  status: ('A' for Active; 'I' for Inactive)
REMARK    1  A    between atoms: C_1  and  N_2
REMARK    2  A    between atoms: C_6  and  C_7
REMARK                            x       y       z     vdW  Elec       q    Type
REMARK                         _______ _______ _______ _____ _____    ______ ____
ROOT
ATOM      1  C   UNL     1       2.871   5.338  19.068  0.00  0.00    +0.000 A 
ATOM      2  C   UNL     1       2.526   6.673  19.094  0.00  0.00    +0.000 A 
ATOM      3  N   UNL     1       3.229   7.314  18.110  0.00  0.00    +0.000 N 
ATOM      4  C   UNL     1       3.995   6.413  17.408  0.00  0.00    +0.000 A 
ATOM      5  C   UNL     1       4.836   6.622  16.307  0.00  0.00    +0.000 A 
ATOM      6  C   UNL     1       5.481   5.509  15.760  0.00  0.00    +0.000 A 
ATOM      7  C   UNL     1       5.287   4.246  16.303  0.00  0.00    +0.000 A 
ATOM      8  F   UNL     1       5.900   3.196  15.738  0.00  0.00    +0.000 F 
ATOM      9  C   UNL     1       4.458   4.052  17.408  0.00  0.00    +0.000 A 
ATOM     10  F   UNL     1       4.277   2.808  17.871  0.00  0.00    +0.000 F 
ATOM     11  C   UNL     1       3.796   5.155  17.992  0.00  0.00    +0.000 A 
ATOM     12  H   UNL     1       3.191   8.307  17.919  0.00  0.00    +0.000 HD
ENDROOT
BRANCH   1  18
ATOM     13  C   UNL     1       1.055   2.774  18.533  0.00  0.00    +0.000 C 
ATOM     14  N   UNL     1       1.503   3.278  19.806  0.00  0.00    +0.000 N 
ATOM     15  C   UNL     1       1.291   2.646  21.002  0.00  0.00    +0.000 A 
ATOM     16  N   UNL     1       1.962   3.215  21.975  0.00  0.00    +0.000 NA
ATOM     17  C   UNL     1       2.646   4.246  21.381  0.00  0.00    +0.000 A 
ATOM     18  C   UNL     1       2.359   4.328  20.033  0.00  0.00    +0.000 A 
ENDBRANCH   1  18
TORSDOF 1
ENDMDL
MODEL 2
REMARK VINA RESULT:      -7.1      2.517      5.543
REMARK  Name = 
REMARK  2 active torsions:
REMARK  status: ('A' for Active; 'I' for Inactive)
REMARK    1  A    between atoms: C_1  and  N_2
REMARK    2  A    between atoms: C_6  and  C_7
REMARK                            x       y       z     vdW  Elec       q    Type
REMARK                         _______ _______ _______ _____ _____    ______ ____
ROOT
ATOM      1  C   UNL     1       4.044   3.662  17.728  0.00  0.00    +0.000 A 
ATOM      2  C   UNL     1       3.868   2.327  17.433  0.00  0.00    +0.000 A 
ATOM      3  N   UNL     1       2.875   1.840  18.240  0.00  0.00    +0.000 N 
ATOM      4  C   UNL     1       2.364   2.845  19.026  0.00  0.00    +0.000 A 
ATOM      5  C   UNL     1       1.322   2.806  19.963  0.00  0.00    +0.000 A 
ATOM      6  C   UNL     1       0.982   3.999  20.607  0.00  0.00    +0.000 A 
ATOM      7  C   UNL     1       1.663   5.174  20.320  0.00  0.00    +0.000 A 
ATOM      8  F   UNL     1       1.293   6.305  20.937  0.00  0.00    +0.000 F 
ATOM      9  C   UNL     1       2.707   5.198  19.395  0.00  0.00    +0.000 A 
ATOM     10  F   UNL     1       3.309   6.365  19.129  0.00  0.00    +0.000 F 
ATOM     11  C   UNL     1       3.085   4.010  18.730  0.00  0.00    +0.000 A 
ATOM     12  H   UNL     1       2.556   0.880  18.257  0.00  0.00    +0.000 HD
ENDROOT
BRANCH   1  18
ATOM     13  C   UNL     1       6.434   5.268  19.095  0.00  0.00    +0.000 C 
ATOM     14  N   UNL     1       6.053   5.283  17.705  0.00  0.00    +0.000 N 
ATOM     15  C   UNL     1       6.751   5.931  16.722  0.00  0.00    +0.000 A 
ATOM     16  N   UNL     1       6.299   5.628  15.528  0.00  0.00    +0.000 NA
ATOM     17  C   UNL     1       5.278   4.737  15.749  0.00  0.00    +0.000 A 
ATOM     18  C   UNL     1       5.082   4.523  17.099  0.00  0.00    +0.000 A 
ENDBRANCH   1  18
TORSDOF 1
ENDMDL
MODEL 3
REMARK VINA RESULT:      -6.9      1.473      1.473
REMARK  Name = 
REMARK  2 active torsions:
REMARK  status: ('A' for Active; 'I' for Inactive)
REMARK    1  A    between atoms: C_1  and  N_2
REMARK    2  A    between atoms: C_6  and  C_7
REMARK                            x       y       z     vdW  Elec       q    Type
REMARK                         _______ _______ _______ _____ _____    ______ ____
ROOT
ATOM      1  C   UNL     1       3.209   5.495  18.712  0.00  0.00    +0.000 A 
ATOM      2  C   UNL     1       2.599   6.636  18.237  0.00  0.00    +0.000 A 
ATOM      3  N   UNL     1       3.542   7.384  17.585  0.00  0.00    +0.000 N 
ATOM      4  C   UNL     1       4.752   6.729  17.585  0.00  0.00    +0.000 A 
ATOM      5  C   UNL     1       5.972   7.106  17.008  0.00  0.00    +0.000 A 
ATOM      6  C   UNL     1       7.051   6.225  17.134  0.00  0.00    +0.000 A 
ATOM      7  C   UNL     1       6.903   5.023  17.813  0.00  0.00    +0.000 A 
ATOM      8  F   UNL     1       7.950   4.190  17.892  0.00  0.00    +0.000 F 
ATOM      9  C   UNL     1       5.686   4.665  18.395  0.00  0.00    +0.000 A 
ATOM     10  F   UNL     1       5.587   3.478  19.008  0.00  0.00    +0.000 F 
ATOM     11  C   UNL     1       4.577   5.534  18.294  0.00  0.00    +0.000 A 
ATOM     12  H   UNL     1       3.379   8.287  17.159  0.00  0.00    +0.000 HD
ENDROOT
BRANCH   1  18
ATOM     13  C   UNL     1       2.436   2.498  17.951  0.00  0.00    +0.000 C 
ATOM     14  N   UNL     1       2.109   3.204  19.164  0.00  0.00    +0.000 N 
ATOM     15  C   UNL     1       1.487   2.635  20.242  0.00  0.00    +0.000 A 
ATOM     16  N   UNL     1       1.481   3.440  21.277  0.00  0.00    +0.000 NA
ATOM     17  C   UNL     1       2.138   4.569  20.855  0.00  0.00    +0.000 A 
ATOM     18  C   UNL     1       2.518   4.462  19.532  0.00  0.00    +0.000 A 
ENDBRANCH   1  18
TORSDOF 1
ENDMDL
MODEL 4
REMARK VINA RESULT:      -6.9      2.334      5.071
REMARK  Name = 
REMARK  2 active torsions:
REMARK  status: ('A' for Active; 'I' for Inactive)
REMARK    1  A    between atoms: C_1  and  N_2
REMARK    2  A    between atoms: C_6  and  C_7
REMARK                            x       y       z     vdW  Elec       q    Type
REMARK                         _______ _______ _______ _____ _____    ______ ____
ROOT
ATOM      1  C   UNL     1       4.277   4.877  18.222  0.00  0.00    +0.000 A 
ATOM      2  C   UNL     1       4.535   5.887  19.124  0.00  0.00    +0.000 A 
ATOM      3  N   UNL     1       3.526   5.901  20.049  0.00  0.00    +0.000 N 
ATOM      4  C   UNL     1       2.634   4.885  19.795  0.00  0.00    +0.000 A 
ATOM      5  C   UNL     1       1.483   4.509  20.500  0.00  0.00    +0.000 A 
ATOM      6  C   UNL     1       0.766   3.403  20.033  0.00  0.00    +0.000 A 
ATOM      7  C   UNL     1       1.191   2.713  18.907  0.00  0.00    +0.000 A 
ATOM      8  F   UNL     1       0.496   1.641  18.502  0.00  0.00    +0.000 F 
ATOM      9  C   UNL     1       2.332   3.104  18.205  0.00  0.00    +0.000 A 
ATOM     10  F   UNL     1       2.718   2.383  17.145  0.00  0.00    +0.000 F 
ATOM     11  C   UNL     1       3.077   4.222  18.643  0.00  0.00    +0.000 A 
ATOM     12  H   UNL     1       3.445   6.558  20.814  0.00  0.00    +0.000 HD
ENDROOT
BRANCH   1  18
ATOM     13  C   UNL     1       7.448   4.654  17.998  0.00  0.00    +0.000 C 
ATOM     14  N   UNL     1       6.489   4.588  16.925  0.00  0.00    +0.000 N 
ATOM     15  C   UNL     1       6.808   4.306  15.623  0.00  0.00    +0.000 A 
ATOM     16  N   UNL     1       5.735   4.120  14.892  0.00  0.00    +0.000 NA
ATOM     17  C   UNL     1       4.682   4.273  15.759  0.00  0.00    +0.000 A 
ATOM     18  C   UNL     1       5.120   4.592  17.029  0.00  0.00    +0.000 A 
ENDBRANCH   1  18
TORSDOF 1
ENDMDL
MODEL 5
REMARK VINA RESULT:      -6.9      2.188      5.061
REMARK  Name = 
REMARK  2 active torsions:
REMARK  status: ('A' for Active; 'I' for Inactive)
REMARK    1  A    between atoms: C_1  and  N_2
REMARK    2  A    between atoms: C_6  and  C_7
REMARK                            x       y       z     vdW  Elec       q    Type
REMARK                         _______ _______ _______ _____ _____    ______ ____
ROOT
ATOM      1  C   UNL     1       4.150   4.847  18.157  0.00  0.00    +0.000 A 
ATOM      2  C   UNL     1       4.520   5.750  19.130  0.00  0.00    +0.000 A 
ATOM      3  N   UNL     1       3.586   5.706  20.130  0.00  0.00    +0.000 N 
ATOM      4  C   UNL     1       2.634   4.754  19.850  0.00  0.00    +0.000 A 
ATOM      5  C   UNL     1       1.525   4.350  20.606  0.00  0.00    +0.000 A 
ATOM      6  C   UNL     1       0.727   3.323  20.092  0.00  0.00    +0.000 A 
ATOM      7  C   UNL     1       1.034   2.735  18.873  0.00  0.00    +0.000 A 
ATOM      8  F   UNL     1       0.264   1.735  18.422  0.00  0.00    +0.000 F 
ATOM      9  C   UNL     1       2.134   3.155  18.123  0.00  0.00    +0.000 A 
ATOM     10  F   UNL     1       2.407   2.531  16.970  0.00  0.00    +0.000 F 
ATOM     11  C   UNL     1       2.958   4.195  18.607  0.00  0.00    +0.000 A 
ATOM     12  H   UNL     1       3.592   6.285  20.960  0.00  0.00    +0.000 HD
ENDROOT
BRANCH   1  18
ATOM     13  C   UNL     1       4.901   6.986  15.917  0.00  0.00    +0.000 C 
ATOM     14  N   UNL     1       5.126   5.563  15.878  0.00  0.00    +0.000 N 
ATOM     15  C   UNL     1       5.811   4.919  14.883  0.00  0.00    +0.000 A 
ATOM     16  N   UNL     1       6.034   3.662  15.185  0.00  0.00    +0.000 NA
ATOM     17  C   UNL     1       5.485   3.493  16.431  0.00  0.00    +0.000 A 
ATOM     18  C   UNL     1       4.886   4.654  16.878  0.00  0.00    +0.000 A 
ENDBRANCH   1  18
TORSDOF 1
ENDMDL
MODEL 6
REMARK VINA RESULT:      -6.9      2.637      5.371
REMARK  Name = 
REMARK  2 active torsions:
REMARK  status: ('A' for Active; 'I' for Inactive)
REMARK    1  A    between atoms: C_1  and  N_2
REMARK    2  A    between atoms: C_6  and  C_7
REMARK                            x       y       z     vdW  Elec       q    Type
REMARK                         _______ _______ _______ _____ _____    ______ ____
ROOT
ATOM      1  C   UNL     1       4.190   3.435  18.054  0.00  0.00    +0.000 A 
ATOM      2  C   UNL     1       3.820   2.185  17.606  0.00  0.00    +0.000 A 
ATOM      3  N   UNL     1       2.635   1.850  18.204  0.00  0.00    +0.000 N 
ATOM      4  C   UNL     1       2.198   2.881  19.002  0.00  0.00    +0.000 A 
ATOM      5  C   UNL     1       1.028   2.986  19.767  0.00  0.00    +0.000 A 
ATOM      6  C   UNL     1       0.814   4.176  20.470  0.00  0.00    +0.000 A 
ATOM      7  C   UNL     1       1.739   5.208  20.405  0.00  0.00    +0.000 A 
ATOM      8  F   UNL     1       1.491   6.345  21.070  0.00  0.00    +0.000 F 
ATOM      9  C   UNL     1       2.907   5.087  19.651  0.00  0.00    +0.000 A 
ATOM     10  F   UNL     1       3.751   6.127  19.594  0.00  0.00    +0.000 F 
ATOM     11  C   UNL     1       3.161   3.897  18.934  0.00  0.00    +0.000 A 
ATOM     12  H   UNL     1       2.145   0.975  18.078  0.00  0.00    +0.000 HD
ENDROOT
BRANCH   1  18
ATOM     13  C   UNL     1       5.236   4.293  15.168  0.00  0.00    +0.000 C 
ATOM     14  N   UNL     1       5.942   4.396  16.421  0.00  0.00    +0.000 N 
ATOM     15  C   UNL     1       7.164   4.994  16.568  0.00  0.00    +0.000 A 
ATOM     16  N   UNL     1       7.491   5.120  17.832  0.00  0.00    +0.000 NA
ATOM     17  C   UNL     1       6.430   4.597  18.528  0.00  0.00    +0.000 A 
ATOM     18  C   UNL     1       5.459   4.112  17.675  0.00  0.00    +0.000 A 
ENDBRANCH   1  18
TORSDOF 1
ENDMDL
MODEL 7
REMARK VINA RESULT:      -6.9      2.203      5.058
REMARK  Name = 
REMARK  2 active torsions:
REMARK  status: ('A' for Active; 'I' for Inactive)
REMARK    1  A    between atoms: C_1  and  N_2
REMARK    2  A    between atoms: C_6  and  C_7
REMARK                            x       y       z     vdW  Elec       q    Type
REMARK                         _______ _______ _______ _____ _____    ______ ____
ROOT
ATOM      1  C   UNL     1       4.215   5.712  17.773  0.00  0.00    +0.000 A 
ATOM      2  C   UNL     1       3.677   6.977  17.665  0.00  0.00    +0.000 A 
ATOM      3  N   UNL     1       2.710   7.112  18.625  0.00  0.00    +0.000 N 
ATOM      4  C   UNL     1       2.638   5.972  19.391  0.00  0.00    +0.000 A 
ATOM      5  C   UNL     1       1.823   5.688  20.496  0.00  0.00    +0.000 A 
ATOM      6  C   UNL     1       1.979   4.445  21.116  0.00  0.00    +0.000 A 
ATOM      7  C   UNL     1       2.912   3.533  20.642  0.00  0.00    +0.000 A 
ATOM      8  F   UNL     1       3.054   2.361  21.276  0.00  0.00    +0.000 F 
ATOM      9  C   UNL     1       3.708   3.822  19.533  0.00  0.00    +0.000 A 
ATOM     10  F   UNL     1       4.617   2.921  19.137  0.00  0.00    +0.000 F 
ATOM     11  C   UNL     1       3.573   5.065  18.875  0.00  0.00    +0.000 A 
ATOM     12  H   UNL     1       2.132   7.931  18.759  0.00  0.00    +0.000 HD
ENDROOT
BRANCH   1  18
ATOM     13  C   UNL     1       7.322   6.403  17.607  0.00  0.00    +0.000 C 
ATOM     14  N   UNL     1       6.570   5.539  16.732  0.00  0.00    +0.000 N 
ATOM     15  C   UNL     1       7.124   4.786  15.733  0.00  0.00    +0.000 A 
ATOM     16  N   UNL     1       6.253   3.952  15.217  0.00  0.00    +0.000 NA
ATOM     17  C   UNL     1       5.095   4.165  15.922  0.00  0.00    +0.000 A 
ATOM     18  C   UNL     1       5.254   5.169  16.856  0.00  0.00    +0.000 A 
ENDBRANCH   1  18
TORSDOF 1
ENDMDL
MODEL 8
REMARK VINA RESULT:      -6.8      2.185      4.871
REMARK  Name = 
REMARK  2 active torsions:
REMARK  status: ('A' for Active; 'I' for Inactive)
REMARK    1  A    between atoms: C_1  and  N_2
REMARK    2  A    between atoms: C_6  and  C_7
REMARK                            x       y       z     vdW  Elec       q    Type
REMARK                         _______ _______ _______ _____ _____    ______ ____
ROOT
ATOM      1  C   UNL     1       4.159   6.177  18.107  0.00  0.00    +0.000 A 
ATOM      2  C   UNL     1       3.335   7.279  18.027  0.00  0.00    +0.000 A 
ATOM      3  N   UNL     1       2.266   7.073  18.856  0.00  0.00    +0.000 N 
ATOM      4  C   UNL     1       2.399   5.873  19.515  0.00  0.00    +0.000 A 
ATOM      5  C   UNL     1       1.565   5.283  20.474  0.00  0.00    +0.000 A 
ATOM      6  C   UNL     1       1.960   4.054  21.011  0.00  0.00    +0.000 A 
ATOM      7  C   UNL     1       3.139   3.450  20.597  0.00  0.00    +0.000 A 
ATOM      8  F   UNL     1       3.501   2.285  21.151  0.00  0.00    +0.000 F 
ATOM      9  C   UNL     1       3.954   4.041  19.631  0.00  0.00    +0.000 A 
ATOM     10  F   UNL     1       5.099   3.433  19.291  0.00  0.00    +0.000 F 
ATOM     11  C   UNL     1       3.583   5.279  19.060  0.00  0.00    +0.000 A 
ATOM     12  H   UNL     1       1.489   7.710  18.975  0.00  0.00    +0.000 HD
ENDROOT
BRANCH   1  18
ATOM     13  C   UNL     1       4.884   3.908  15.988  0.00  0.00    +0.000 C 
ATOM     14  N   UNL     1       5.736   4.973  16.456  0.00  0.00    +0.000 N 
ATOM     15  C   UNL     1       6.986   5.231  15.962  0.00  0.00    +0.000 A 
ATOM     16  N   UNL     1       7.464   6.362  16.424  0.00  0.00    +0.000 NA
ATOM     17  C   UNL     1       6.476   6.861  17.236  0.00  0.00    +0.000 A 
ATOM     18  C   UNL     1       5.396   6.003  17.298  0.00  0.00    +0.000 A 
ENDBRANCH   1  18
TORSDOF 1
ENDMDL
MODEL 9
REMARK VINA RESULT:      -6.8      2.657      5.486
REMARK  Name = 
REMARK  2 active torsions:
REMARK  status: ('A' for Active; 'I' for Inactive)
REMARK    1  A    between atoms: C_1  and  N_2
REMARK    2  A    between atoms: C_6  and  C_7
REMARK                            x       y       z     vdW  Elec       q    Type
REMARK                         _______ _______ _______ _____ _____    ______ ____
ROOT
ATOM      1  C   UNL     1       4.165   3.711  17.635  0.00  0.00    +0.000 A 
ATOM      2  C   UNL     1       3.745   2.411  17.822  0.00  0.00    +0.000 A 
ATOM      3  N   UNL     1       2.815   2.405  18.828  0.00  0.00    +0.000 N 
ATOM      4  C   UNL     1       2.585   3.686  19.271  0.00  0.00    +0.000 A 
ATOM      5  C   UNL     1       1.696   4.147  20.252  0.00  0.00    +0.000 A 
ATOM      6  C   UNL     1       1.641   5.524  20.485  0.00  0.00    +0.000 A 
ATOM      7  C   UNL     1       2.447   6.393  19.763  0.00  0.00    +0.000 A 
ATOM      8  F   UNL     1       2.350   7.710  19.993  0.00  0.00    +0.000 F 
ATOM      9  C   UNL     1       3.338   5.922  18.798  0.00  0.00    +0.000 A 
ATOM     10  F   UNL     1       4.068   6.806  18.105  0.00  0.00    +0.000 F 
ATOM     11  C   UNL     1       3.427   4.536  18.541  0.00  0.00    +0.000 A 
ATOM     12  H   UNL     1       2.357   1.580  19.193  0.00  0.00    +0.000 HD
ENDROOT
BRANCH   1  18
ATOM     13  C   UNL     1       7.080   4.872  18.197  0.00  0.00    +0.000 C 
ATOM     14  N   UNL     1       6.441   4.695  16.917  0.00  0.00    +0.000 N 
ATOM     15  C   UNL     1       7.055   4.912  15.713  0.00  0.00    +0.000 A 
ATOM     16  N   UNL     1       6.316   4.496  14.712  0.00  0.00    +0.000 NA
ATOM     17  C   UNL     1       5.187   3.977  15.295  0.00  0.00    +0.000 A 
ATOM     18  C   UNL     1       5.223   4.111  16.668  0.00  0.00    +0.000 A 
ENDBRANCH   1  18
TORSDOF 1
ENDMDL
