MODEL 1
REMARK VINA RESULT:      -7.5      0.000      0.000
REMARK  Name = 
REMARK  9 active torsions:
REMARK  status: ('A' for Active; 'I' for Inactive)
REMARK    1  A    between atoms: C_1  and  O_2
REMARK    2  A    between atoms: O_2  and  C_3
REMARK    3  A    between atoms: C_6  and  C_7
REMARK    4  A    between atoms: C_7  and  C_8
REMARK    5  A    between atoms: C_8  and  C_9
REMARK    6  A    between atoms: C_9  and  O_10
REMARK    7  A    between atoms: O_10  and  N_11
REMARK    8  A    between atoms: C_18  and  C_19
REMARK    9  A    between atoms: C_18  and  C_20
REMARK                            x       y       z     vdW  Elec       q    Type
REMARK                         _______ _______ _______ _____ _____    ______ ____
ROOT
ATOM      1  N   UNL     1       6.822   6.005  17.829  0.00  0.00    +0.000 N 
ATOM      2  C   UNL     1       6.788   5.339  19.099  0.00  0.00    +0.000 C 
ATOM      3  N   UNL     1       7.576   5.682  20.059  0.00  0.00    +0.000 NA
ATOM      4  N   UNL     1       5.905   4.258  19.314  0.00  0.00    +0.000 NA
ATOM      5  C   UNL     1       5.156   3.801  18.377  0.00  0.00    +0.000 C 
ATOM      6  N   UNL     1       4.301   2.702  18.642  0.00  0.00    +0.000 N 
ATOM      7  N   UNL     1       5.180   4.375  17.080  0.00  0.00    +0.000 N 
ATOM      8  C   UNL     1       5.991   5.529  16.709  0.00  0.00    +0.000 C 
ATOM      9  C   UNL     1       5.020   6.628  16.247  0.00  0.00    +0.000 C 
ATOM     10  C   UNL     1       6.906   5.116  15.544  0.00  0.00    +0.000 C 
ATOM     11  H   UNL     1       8.263   6.444  19.978  0.00  0.00    +0.000 HD
ATOM     12  H   UNL     1       4.267   2.275  19.578  0.00  0.00    +0.000 HD
ATOM     13  H   UNL     1       3.700   2.321  17.896  0.00  0.00    +0.000 HD
ATOM     14  H   UNL     1       4.574   3.957  16.357  0.00  0.00    +0.000 HD
ENDROOT
BRANCH   1  15
ATOM     15  O   UNL     1       7.787   6.923  17.589  0.00  0.00    +0.000 OA
BRANCH  15  16
ATOM     16  C   UNL     1       7.225   8.220  17.610  0.00  0.00    +0.000 C 
BRANCH  16  17
ATOM     17  C   UNL     1       8.370   9.236  17.632  0.00  0.00    +0.000 C 
BRANCH  17  18
ATOM     18  C   UNL     1       8.903   9.428  19.063  0.00  0.00    +0.000 C 
BRANCH  18  22
ATOM     19  C   UNL     1      11.287  13.008  19.502  0.00  0.00    +0.000 A 
ATOM     20  C   UNL     1      10.662  12.420  20.620  0.00  0.00    +0.000 A 
ATOM     21  C   UNL     1       9.889  11.271  20.474  0.00  0.00    +0.000 A 
ATOM     22  C   UNL     1       9.715  10.688  19.210  0.00  0.00    +0.000 A 
ATOM     23  C   UNL     1      10.329  11.277  18.092  0.00  0.00    +0.000 A 
ATOM     24  C   UNL     1      11.111  12.428  18.240  0.00  0.00    +0.000 A 
BRANCH  19  26
ATOM     25  C   UNL     1      11.667  15.395  19.280  0.00  0.00    +0.000 C 
ATOM     26  O   UNL     1      12.067  14.115  19.612  0.00  0.00    +0.000 OA
ENDBRANCH  19  26
ENDBRANCH  18  22
ENDBRANCH  17  18
ENDBRANCH  16  17
ENDBRANCH  15  16
ENDBRANCH   1  15
TORSDOF 6
ENDMDL
MODEL 2
REMARK VINA RESULT:      -7.5      0.633      1.204
REMARK  Name = 
REMARK  9 active torsions:
REMARK  status: ('A' for Active; 'I' for Inactive)
REMARK    1  A    between atoms: C_1  and  O_2
REMARK    2  A    between atoms: O_2  and  C_3
REMARK    3  A    between atoms: C_6  and  C_7
REMARK    4  A    between atoms: C_7  and  C_8
REMARK    5  A    between atoms: C_8  and  C_9
REMARK    6  A    between atoms: C_9  and  O_10
REMARK    7  A    between atoms: O_10  and  N_11
REMARK    8  A    between atoms: C_18  and  C_19
REMARK    9  A    between atoms: C_18  and  C_20
REMARK                            x       y       z     vdW  Elec       q    Type
REMARK                         _______ _______ _______ _____ _____    ______ ____
ROOT
ATOM      1  N   UNL     1       6.805   6.354  17.555  0.00  0.00    +0.000 N 
ATOM      2  C   UNL     1       7.214   5.767  18.798  0.00  0.00    +0.000 C 
ATOM      3  N   UNL     1       8.234   6.213  19.448  0.00  0.00    +0.000 NA
ATOM      4  N   UNL     1       6.522   4.654  19.323  0.00  0.00    +0.000 NA
ATOM      5  C   UNL     1       5.555   4.098  18.688  0.00  0.00    +0.000 C 
ATOM      6  N   UNL     1       4.905   2.972  19.253  0.00  0.00    +0.000 N 
ATOM      7  N   UNL     1       5.134   4.591  17.426  0.00  0.00    +0.000 N 
ATOM      8  C   UNL     1       5.704   5.764  16.773  0.00  0.00    +0.000 C 
ATOM      9  C   UNL     1       4.561   6.776  16.593  0.00  0.00    +0.000 C 
ATOM     10  C   UNL     1       6.240   5.331  15.398  0.00  0.00    +0.000 C 
ATOM     11  H   UNL     1       8.805   7.005  19.125  0.00  0.00    +0.000 HD
ATOM     12  H   UNL     1       5.195   2.603  20.169  0.00  0.00    +0.000 HD
ATOM     13  H   UNL     1       4.132   2.513  18.749  0.00  0.00    +0.000 HD
ATOM     14  H   UNL     1       4.366   4.096  16.947  0.00  0.00    +0.000 HD
ENDROOT
BRANCH   1  15
ATOM     15  O   UNL     1       7.579   7.308  16.987  0.00  0.00    +0.000 OA
BRANCH  15  16
ATOM     16  C   UNL     1       7.369   8.543  17.643  0.00  0.00    +0.000 C 
BRANCH  16  17
ATOM     17  C   UNL     1       8.707   9.284  17.702  0.00  0.00    +0.000 C 
BRANCH  17  18
ATOM     18  C   UNL     1       8.953   9.857  19.109  0.00  0.00    +0.000 C 
BRANCH  18  22
ATOM     19  C   UNL     1      11.541  13.321  19.055  0.00  0.00    +0.000 A 
ATOM     20  C   UNL     1      11.128  12.714  17.852  0.00  0.00    +0.000 A 
ATOM     21  C   UNL     1      10.300  11.594  17.873  0.00  0.00    +0.000 A 
ATOM     22  C   UNL     1       9.873  11.049  19.093  0.00  0.00    +0.000 A 
ATOM     23  C   UNL     1      10.291  11.646  20.295  0.00  0.00    +0.000 A 
ATOM     24  C   UNL     1      11.118  12.774  20.274  0.00  0.00    +0.000 A 
BRANCH  19  26
ATOM     25  C   UNL     1      12.076  15.583  18.361  0.00  0.00    +0.000 C 
ATOM     26  O   UNL     1      12.329  14.427  19.072  0.00  0.00    +0.000 OA
ENDBRANCH  19  26
ENDBRANCH  18  22
ENDBRANCH  17  18
ENDBRANCH  16  17
ENDBRANCH  15  16
ENDBRANCH   1  15
TORSDOF 6
ENDMDL
MODEL 3
REMARK VINA RESULT:      -7.3      1.110      1.267
REMARK  Name = 
REMARK  9 active torsions:
REMARK  status: ('A' for Active; 'I' for Inactive)
REMARK    1  A    between atoms: C_1  and  O_2
REMARK    2  A    between atoms: O_2  and  C_3
REMARK    3  A    between atoms: C_6  and  C_7
REMARK    4  A    between atoms: C_7  and  C_8
REMARK    5  A    between atoms: C_8  and  C_9
REMARK    6  A    between atoms: C_9  and  O_10
REMARK    7  A    between atoms: O_10  and  N_11
REMARK    8  A    between atoms: C_18  and  C_19
REMARK    9  A    between atoms: C_18  and  C_20
REMARK                            x       y       z     vdW  Elec       q    Type
REMARK                         _______ _______ _______ _____ _____    ______ ____
ROOT
ATOM      1  N   UNL     1       6.929   5.898  17.720  0.00  0.00    +0.000 N 
ATOM      2  C   UNL     1       6.872   5.300  19.023  0.00  0.00    +0.000 C 
ATOM      3  N   UNL     1       7.679   5.657  19.962  0.00  0.00    +0.000 NA
ATOM      4  N   UNL     1       5.945   4.271  19.295  0.00  0.00    +0.000 NA
ATOM      5  C   UNL     1       5.172   3.799  18.385  0.00  0.00    +0.000 C 
ATOM      6  N   UNL     1       4.271   2.754  18.707  0.00  0.00    +0.000 N 
ATOM      7  N   UNL     1       5.215   4.305  17.060  0.00  0.00    +0.000 N 
ATOM      8  C   UNL     1       6.072   5.403  16.629  0.00  0.00    +0.000 C 
ATOM      9  C   UNL     1       5.148   6.518  16.114  0.00  0.00    +0.000 C 
ATOM     10  C   UNL     1       6.963   4.892  15.484  0.00  0.00    +0.000 C 
ATOM     11  H   UNL     1       8.397   6.383  19.841  0.00  0.00    +0.000 HD
ATOM     12  H   UNL     1       4.224   2.376  19.664  0.00  0.00    +0.000 HD
ATOM     13  H   UNL     1       3.651   2.362  17.983  0.00  0.00    +0.000 HD
ATOM     14  H   UNL     1       4.587   3.878  16.361  0.00  0.00    +0.000 HD
ENDROOT
BRANCH   1  15
ATOM     15  O   UNL     1       7.931   6.760  17.432  0.00  0.00    +0.000 OA
BRANCH  15  16
ATOM     16  C   UNL     1       7.470   8.090  17.571  0.00  0.00    +0.000 C 
BRANCH  16  17
ATOM     17  C   UNL     1       8.486   8.861  18.416  0.00  0.00    +0.000 C 
BRANCH  17  18
ATOM     18  C   UNL     1       8.852  10.198  17.746  0.00  0.00    +0.000 C 
BRANCH  18  22
ATOM     19  C   UNL     1      10.069  13.215  20.595  0.00  0.00    +0.000 A 
ATOM     20  C   UNL     1      10.081  11.849  20.945  0.00  0.00    +0.000 A 
ATOM     21  C   UNL     1       9.682  10.881  20.027  0.00  0.00    +0.000 A 
ATOM     22  C   UNL     1       9.253  11.252  18.745  0.00  0.00    +0.000 A 
ATOM     23  C   UNL     1       9.231  12.613  18.395  0.00  0.00    +0.000 A 
ATOM     24  C   UNL     1       9.638  13.585  19.315  0.00  0.00    +0.000 A 
BRANCH  19  26
ATOM     25  C   UNL     1       9.636  14.886  22.300  0.00  0.00    +0.000 C 
ATOM     26  O   UNL     1      10.474  14.184  21.457  0.00  0.00    +0.000 OA
ENDBRANCH  19  26
ENDBRANCH  18  22
ENDBRANCH  17  18
ENDBRANCH  16  17
ENDBRANCH  15  16
ENDBRANCH   1  15
TORSDOF 6
ENDMDL
MODEL 4
REMARK VINA RESULT:      -7.3      1.099      1.527
REMARK  Name = 
REMARK  9 active torsions:
REMARK  status: ('A' for Active; 'I' for Inactive)
REMARK    1  A    between atoms: C_1  and  O_2
REMARK    2  A    between atoms: O_2  and  C_3
REMARK    3  A    between atoms: C_6  and  C_7
REMARK    4  A    between atoms: C_7  and  C_8
REMARK    5  A    between atoms: C_8  and  C_9
REMARK    6  A    between atoms: C_9  and  O_10
REMARK    7  A    between atoms: O_10  and  N_11
REMARK    8  A    between atoms: C_18  and  C_19
REMARK    9  A    between atoms: C_18  and  C_20
REMARK                            x       y       z     vdW  Elec       q    Type
REMARK                         _______ _______ _______ _____ _____    ______ ____
ROOT
ATOM      1  N   UNL     1       6.752   5.548  17.663  0.00  0.00    +0.000 N 
ATOM      2  C   UNL     1       6.593   5.044  18.997  0.00  0.00    +0.000 C 
ATOM      3  N   UNL     1       7.315   5.481  19.970  0.00  0.00    +0.000 NA
ATOM      4  N   UNL     1       5.657   4.022  19.266  0.00  0.00    +0.000 NA
ATOM      5  C   UNL     1       4.968   3.474  18.332  0.00  0.00    +0.000 C 
ATOM      6  N   UNL     1       4.054   2.440  18.655  0.00  0.00    +0.000 N 
ATOM      7  N   UNL     1       5.115   3.884  16.982  0.00  0.00    +0.000 N 
ATOM      8  C   UNL     1       5.994   4.961  16.544  0.00  0.00    +0.000 C 
ATOM      9  C   UNL     1       5.104   6.022  15.875  0.00  0.00    +0.000 C 
ATOM     10  C   UNL     1       6.982   4.384  15.516  0.00  0.00    +0.000 C 
ATOM     11  H   UNL     1       8.034   6.208  19.856  0.00  0.00    +0.000 HD
ATOM     12  H   UNL     1       3.931   2.131  19.630  0.00  0.00    +0.000 HD
ATOM     13  H   UNL     1       3.500   1.987  17.913  0.00  0.00    +0.000 HD
ATOM     14  H   UNL     1       4.552   3.397  16.267  0.00  0.00    +0.000 HD
ENDROOT
BRANCH   1  15
ATOM     15  O   UNL     1       7.766   6.403  17.396  0.00  0.00    +0.000 OA
BRANCH  15  16
ATOM     16  C   UNL     1       7.300   7.735  17.482  0.00  0.00    +0.000 C 
BRANCH  16  17
ATOM     17  C   UNL     1       8.327   8.550  18.273  0.00  0.00    +0.000 C 
BRANCH  17  18
ATOM     18  C   UNL     1       8.637   9.878  17.559  0.00  0.00    +0.000 C 
BRANCH  18  22
ATOM     19  C   UNL     1      10.073  12.916  20.281  0.00  0.00    +0.000 A 
ATOM     20  C   UNL     1       9.792  13.231  18.936  0.00  0.00    +0.000 A 
ATOM     21  C   UNL     1       9.336  12.248  18.060  0.00  0.00    +0.000 A 
ATOM     22  C   UNL     1       9.160  10.930  18.503  0.00  0.00    +0.000 A 
ATOM     23  C   UNL     1       9.447  10.610  19.840  0.00  0.00    +0.000 A 
ATOM     24  C   UNL     1       9.899  11.598  20.722  0.00  0.00    +0.000 A 
BRANCH  19  26
ATOM     25  C   UNL     1       9.703  14.432  22.139  0.00  0.00    +0.000 C 
ATOM     26  O   UNL     1      10.496  13.854  21.168  0.00  0.00    +0.000 OA
ENDBRANCH  19  26
ENDBRANCH  18  22
ENDBRANCH  17  18
ENDBRANCH  16  17
ENDBRANCH  15  16
ENDBRANCH   1  15
TORSDOF 6
ENDMDL
MODEL 5
REMARK VINA RESULT:      -7.3      6.670      8.866
REMARK  Name = 
REMARK  9 active torsions:
REMARK  status: ('A' for Active; 'I' for Inactive)
REMARK    1  A    between atoms: C_1  and  O_2
REMARK    2  A    between atoms: O_2  and  C_3
REMARK    3  A    between atoms: C_6  and  C_7
REMARK    4  A    between atoms: C_7  and  C_8
REMARK    5  A    between atoms: C_8  and  C_9
REMARK    6  A    between atoms: C_9  and  O_10
REMARK    7  A    between atoms: O_10  and  N_11
REMARK    8  A    between atoms: C_18  and  C_19
REMARK    9  A    between atoms: C_18  and  C_20
REMARK                            x       y       z     vdW  Elec       q    Type
REMARK                         _______ _______ _______ _____ _____    ______ ____
ROOT
ATOM      1  N   UNL     1       3.086   5.194  18.669  0.00  0.00    +0.000 N 
ATOM      2  C   UNL     1       4.511   5.048  18.597  0.00  0.00    +0.000 C 
ATOM      3  N   UNL     1       5.248   5.923  18.005  0.00  0.00    +0.000 NA
ATOM      4  N   UNL     1       5.140   3.909  19.147  0.00  0.00    +0.000 NA
ATOM      5  C   UNL     1       4.464   2.951  19.670  0.00  0.00    +0.000 C 
ATOM      6  N   UNL     1       5.144   1.822  20.193  0.00  0.00    +0.000 N 
ATOM      7  N   UNL     1       3.047   3.004  19.725  0.00  0.00    +0.000 N 
ATOM      8  C   UNL     1       2.251   4.131  19.254  0.00  0.00    +0.000 C 
ATOM      9  C   UNL     1       1.465   4.661  20.466  0.00  0.00    +0.000 C 
ATOM     10  C   UNL     1       1.275   3.613  18.184  0.00  0.00    +0.000 C 
ATOM     11  H   UNL     1       4.868   6.770  17.560  0.00  0.00    +0.000 HD
ATOM     12  H   UNL     1       6.172   1.768  20.165  0.00  0.00    +0.000 HD
ATOM     13  H   UNL     1       4.612   1.044  20.609  0.00  0.00    +0.000 HD
ATOM     14  H   UNL     1       2.551   2.199  20.138  0.00  0.00    +0.000 HD
ENDROOT
BRANCH   1  15
ATOM     15  O   UNL     1       2.490   6.203  17.993  0.00  0.00    +0.000 OA
BRANCH  15  16
ATOM     16  C   UNL     1       2.462   7.365  18.799  0.00  0.00    +0.000 C 
BRANCH  16  17
ATOM     17  C   UNL     1       1.852   8.502  17.975  0.00  0.00    +0.000 C 
BRANCH  17  18
ATOM     18  C   UNL     1       1.366   9.640  18.891  0.00  0.00    +0.000 C 
BRANCH  18  22
ATOM     19  C   UNL     1      -2.465  11.234  17.675  0.00  0.00    +0.000 A 
ATOM     20  C   UNL     1      -1.992  10.016  17.144  0.00  0.00    +0.000 A 
ATOM     21  C   UNL     1      -0.754   9.509  17.533  0.00  0.00    +0.000 A 
ATOM     22  C   UNL     1       0.043  10.208  18.451  0.00  0.00    +0.000 A 
ATOM     23  C   UNL     1      -0.421  11.427  18.974  0.00  0.00    +0.000 A 
ATOM     24  C   UNL     1      -1.667  11.934  18.589  0.00  0.00    +0.000 A 
BRANCH  19  26
ATOM     25  C   UNL     1      -4.888  11.139  17.601  0.00  0.00    +0.000 C 
ATOM     26  O   UNL     1      -3.677  11.746  17.336  0.00  0.00    +0.000 OA
ENDBRANCH  19  26
ENDBRANCH  18  22
ENDBRANCH  17  18
ENDBRANCH  16  17
ENDBRANCH  15  16
ENDBRANCH   1  15
TORSDOF 6
ENDMDL
MODEL 6
REMARK VINA RESULT:      -7.2      0.944      1.084
REMARK  Name = 
REMARK  9 active torsions:
REMARK  status: ('A' for Active; 'I' for Inactive)
REMARK    1  A    between atoms: C_1  and  O_2
REMARK    2  A    between atoms: O_2  and  C_3
REMARK    3  A    between atoms: C_6  and  C_7
REMARK    4  A    between atoms: C_7  and  C_8
REMARK    5  A    between atoms: C_8  and  C_9
REMARK    6  A    between atoms: C_9  and  O_10
REMARK    7  A    between atoms: O_10  and  N_11
REMARK    8  A    between atoms: C_18  and  C_19
REMARK    9  A    between atoms: C_18  and  C_20
REMARK                            x       y       z     vdW  Elec       q    Type
REMARK                         _______ _______ _______ _____ _____    ______ ____
ROOT
ATOM      1  N   UNL     1       6.822   6.080  17.555  0.00  0.00    +0.000 N 
ATOM      2  C   UNL     1       7.051   5.429  18.813  0.00  0.00    +0.000 C 
ATOM      3  N   UNL     1       8.040   5.758  19.570  0.00  0.00    +0.000 NA
ATOM      4  N   UNL     1       6.210   4.376  19.235  0.00  0.00    +0.000 NA
ATOM      5  C   UNL     1       5.261   3.931  18.493  0.00  0.00    +0.000 C 
ATOM      6  N   UNL     1       4.456   2.860  18.957  0.00  0.00    +0.000 N 
ATOM      7  N   UNL     1       5.013   4.491  17.213  0.00  0.00    +0.000 N 
ATOM      8  C   UNL     1       5.752   5.617  16.655  0.00  0.00    +0.000 C 
ATOM      9  C   UNL     1       4.732   6.739  16.399  0.00  0.00    +0.000 C 
ATOM     10  C   UNL     1       6.377   5.166  15.323  0.00  0.00    +0.000 C 
ATOM     11  H   UNL     1       8.712   6.499  19.328  0.00  0.00    +0.000 HD
ATOM     12  H   UNL     1       4.619   2.444  19.885  0.00  0.00    +0.000 HD
ATOM     13  H   UNL     1       3.696   2.490  18.368  0.00  0.00    +0.000 HD
ATOM     14  H   UNL     1       4.252   4.083  16.648  0.00  0.00    +0.000 HD
ENDROOT
BRANCH   1  15
ATOM     15  O   UNL     1       7.734   6.967  17.095  0.00  0.00    +0.000 OA
BRANCH  15  16
ATOM     16  C   UNL     1       7.472   8.245  17.641  0.00  0.00    +0.000 C 
BRANCH  16  17
ATOM     17  C   UNL     1       8.799   9.003  17.736  0.00  0.00    +0.000 C 
BRANCH  17  18
ATOM     18  C   UNL     1       8.748  10.053  18.861  0.00  0.00    +0.000 C 
BRANCH  18  22
ATOM     19  C   UNL     1      11.269  13.453  17.977  0.00  0.00    +0.000 A 
ATOM     20  C   UNL     1      11.750  12.387  18.765  0.00  0.00    +0.000 A 
ATOM     21  C   UNL     1      10.933  11.297  19.053  0.00  0.00    +0.000 A 
ATOM     22  C   UNL     1       9.617  11.249  18.572  0.00  0.00    +0.000 A 
ATOM     23  C   UNL     1       9.131  12.313  17.794  0.00  0.00    +0.000 A 
ATOM     24  C   UNL     1       9.954  13.406  17.499  0.00  0.00    +0.000 A 
BRANCH  19  26
ATOM     25  C   UNL     1      11.617  15.833  17.659  0.00  0.00    +0.000 C 
ATOM     26  O   UNL     1      12.046  14.520  17.657  0.00  0.00    +0.000 OA
ENDBRANCH  19  26
ENDBRANCH  18  22
ENDBRANCH  17  18
ENDBRANCH  16  17
ENDBRANCH  15  16
ENDBRANCH   1  15
TORSDOF 6
ENDMDL
MODEL 7
REMARK VINA RESULT:      -7.2      1.327      1.465
REMARK  Name = 
REMARK  9 active torsions:
REMARK  status: ('A' for Active; 'I' for Inactive)
REMARK    1  A    between atoms: C_1  and  O_2
REMARK    2  A    between atoms: O_2  and  C_3
REMARK    3  A    between atoms: C_6  and  C_7
REMARK    4  A    between atoms: C_7  and  C_8
REMARK    5  A    between atoms: C_8  and  C_9
REMARK    6  A    between atoms: C_9  and  O_10
REMARK    7  A    between atoms: O_10  and  N_11
REMARK    8  A    between atoms: C_18  and  C_19
REMARK    9  A    between atoms: C_18  and  C_20
REMARK                            x       y       z     vdW  Elec       q    Type
REMARK                         _______ _______ _______ _____ _____    ______ ____
ROOT
ATOM      1  N   UNL     1       6.639   6.418  17.603  0.00  0.00    +0.000 N 
ATOM      2  C   UNL     1       7.179   5.770  18.763  0.00  0.00    +0.000 C 
ATOM      3  N   UNL     1       8.286   6.158  19.295  0.00  0.00    +0.000 NA
ATOM      4  N   UNL     1       6.519   4.658  19.330  0.00  0.00    +0.000 NA
ATOM      5  C   UNL     1       5.462   4.158  18.801  0.00  0.00    +0.000 C 
ATOM      6  N   UNL     1       4.848   3.030  19.402  0.00  0.00    +0.000 N 
ATOM      7  N   UNL     1       4.905   4.714  17.621  0.00  0.00    +0.000 N 
ATOM      8  C   UNL     1       5.430   5.894  16.944  0.00  0.00    +0.000 C 
ATOM      9  C   UNL     1       4.309   6.947  16.946  0.00  0.00    +0.000 C 
ATOM     10  C   UNL     1       5.776   5.502  15.498  0.00  0.00    +0.000 C 
ATOM     11  H   UNL     1       8.840   6.945  18.932  0.00  0.00    +0.000 HD
ATOM     12  H   UNL     1       5.236   2.615  20.260  0.00  0.00    +0.000 HD
ATOM     13  H   UNL     1       4.003   2.615  18.982  0.00  0.00    +0.000 HD
ATOM     14  H   UNL     1       4.066   4.262  17.225  0.00  0.00    +0.000 HD
ENDROOT
BRANCH   1  15
ATOM     15  O   UNL     1       7.370   7.371  16.978  0.00  0.00    +0.000 OA
BRANCH  15  16
ATOM     16  C   UNL     1       7.333   8.568  17.729  0.00  0.00    +0.000 C 
BRANCH  16  17
ATOM     17  C   UNL     1       8.686   9.268  17.579  0.00  0.00    +0.000 C 
BRANCH  17  18
ATOM     18  C   UNL     1       8.919  10.260  18.731  0.00  0.00    +0.000 C 
BRANCH  18  22
ATOM     19  C   UNL     1      10.749  13.965  17.458  0.00  0.00    +0.000 A 
ATOM     20  C   UNL     1       9.407  13.938  17.891  0.00  0.00    +0.000 A 
ATOM     21  C   UNL     1       8.819  12.741  18.294  0.00  0.00    +0.000 A 
ATOM     22  C   UNL     1       9.551  11.546  18.266  0.00  0.00    +0.000 A 
ATOM     23  C   UNL     1      10.885  11.568  17.826  0.00  0.00    +0.000 A 
ATOM     24  C   UNL     1      11.479  12.770  17.427  0.00  0.00    +0.000 A 
BRANCH  19  26
ATOM     25  C   UNL     1      11.918  16.034  17.951  0.00  0.00    +0.000 C 
ATOM     26  O   UNL     1      11.361  15.117  17.081  0.00  0.00    +0.000 OA
ENDBRANCH  19  26
ENDBRANCH  18  22
ENDBRANCH  17  18
ENDBRANCH  16  17
ENDBRANCH  15  16
ENDBRANCH   1  15
TORSDOF 6
ENDMDL
MODEL 8
REMARK VINA RESULT:      -7.2      6.683      8.779
REMARK  Name = 
REMARK  9 active torsions:
REMARK  status: ('A' for Active; 'I' for Inactive)
REMARK    1  A    between atoms: C_1  and  O_2
REMARK    2  A    between atoms: O_2  and  C_3
REMARK    3  A    between atoms: C_6  and  C_7
REMARK    4  A    between atoms: C_7  and  C_8
REMARK    5  A    between atoms: C_8  and  C_9
REMARK    6  A    between atoms: C_9  and  O_10
REMARK    7  A    between atoms: O_10  and  N_11
REMARK    8  A    between atoms: C_18  and  C_19
REMARK    9  A    between atoms: C_18  and  C_20
REMARK                            x       y       z     vdW  Elec       q    Type
REMARK                         _______ _______ _______ _____ _____    ______ ____
ROOT
ATOM      1  N   UNL     1       3.043   5.110  18.772  0.00  0.00    +0.000 N 
ATOM      2  C   UNL     1       4.472   4.997  18.718  0.00  0.00    +0.000 C 
ATOM      3  N   UNL     1       5.195   5.889  18.134  0.00  0.00    +0.000 NA
ATOM      4  N   UNL     1       5.120   3.875  19.278  0.00  0.00    +0.000 NA
ATOM      5  C   UNL     1       4.461   2.901  19.794  0.00  0.00    +0.000 C 
ATOM      6  N   UNL     1       5.161   1.790  20.327  0.00  0.00    +0.000 N 
ATOM      7  N   UNL     1       3.042   2.921  19.831  0.00  0.00    +0.000 N 
ATOM      8  C   UNL     1       2.226   4.028  19.348  0.00  0.00    +0.000 C 
ATOM      9  C   UNL     1       1.412   4.540  20.548  0.00  0.00    +0.000 C 
ATOM     10  C   UNL     1       1.276   3.485  18.267  0.00  0.00    +0.000 C 
ATOM     11  H   UNL     1       4.801   6.726  17.683  0.00  0.00    +0.000 HD
ATOM     12  H   UNL     1       6.190   1.760  20.313  0.00  0.00    +0.000 HD
ATOM     13  H   UNL     1       4.642   1.000  20.738  0.00  0.00    +0.000 HD
ATOM     14  H   UNL     1       2.560   2.105  20.238  0.00  0.00    +0.000 HD
ENDROOT
BRANCH   1  15
ATOM     15  O   UNL     1       2.432   6.104  18.086  0.00  0.00    +0.000 OA
BRANCH  15  16
ATOM     16  C   UNL     1       2.399   7.276  18.875  0.00  0.00    +0.000 C 
BRANCH  16  17
ATOM     17  C   UNL     1       1.899   8.427  17.999  0.00  0.00    +0.000 C 
BRANCH  17  18
ATOM     18  C   UNL     1       1.530   9.649  18.859  0.00  0.00    +0.000 C 
BRANCH  18  22
ATOM     19  C   UNL     1      -2.421  11.170  17.981  0.00  0.00    +0.000 A 
ATOM     20  C   UNL     1      -1.657  11.720  19.030  0.00  0.00    +0.000 A 
ATOM     21  C   UNL     1      -0.387  11.222  19.314  0.00  0.00    +0.000 A 
ATOM     22  C   UNL     1       0.145  10.162  18.567  0.00  0.00    +0.000 A 
ATOM     23  C   UNL     1      -0.618   9.605  17.527  0.00  0.00    +0.000 A 
ATOM     24  C   UNL     1      -1.891  10.108  17.237  0.00  0.00    +0.000 A 
BRANCH  19  26
ATOM     25  C   UNL     1      -4.763  11.566  18.478  0.00  0.00    +0.000 C 
ATOM     26  O   UNL     1      -3.653  11.644  17.660  0.00  0.00    +0.000 OA
ENDBRANCH  19  26
ENDBRANCH  18  22
ENDBRANCH  17  18
ENDBRANCH  16  17
ENDBRANCH  15  16
ENDBRANCH   1  15
TORSDOF 6
ENDMDL
MODEL 9
REMARK VINA RESULT:      -7.2      5.986      7.973
REMARK  Name = 
REMARK  9 active torsions:
REMARK  status: ('A' for Active; 'I' for Inactive)
REMARK    1  A    between atoms: C_1  and  O_2
REMARK    2  A    between atoms: O_2  and  C_3
REMARK    3  A    between atoms: C_6  and  C_7
REMARK    4  A    between atoms: C_7  and  C_8
REMARK    5  A    between atoms: C_8  and  C_9
REMARK    6  A    between atoms: C_9  and  O_10
REMARK    7  A    between atoms: O_10  and  N_11
REMARK    8  A    between atoms: C_18  and  C_19
REMARK    9  A    between atoms: C_18  and  C_20
REMARK                            x       y       z     vdW  Elec       q    Type
REMARK                         _______ _______ _______ _____ _____    ______ ____
ROOT
ATOM      1  N   UNL     1       3.872   3.766  19.010  0.00  0.00    +0.000 N 
ATOM      2  C   UNL     1       4.071   2.679  19.925  0.00  0.00    +0.000 C 
ATOM      3  N   UNL     1       5.083   1.889  19.820  0.00  0.00    +0.000 NA
ATOM      4  N   UNL     1       3.131   2.428  20.948  0.00  0.00    +0.000 NA
ATOM      5  C   UNL     1       2.052   3.114  21.059  0.00  0.00    +0.000 C 
ATOM      6  N   UNL     1       1.134   2.808  22.094  0.00  0.00    +0.000 N 
ATOM      7  N   UNL     1       1.764   4.168  20.154  0.00  0.00    +0.000 N 
ATOM      8  C   UNL     1       2.654   4.592  19.079  0.00  0.00    +0.000 C 
ATOM      9  C   UNL     1       3.008   6.064  19.346  0.00  0.00    +0.000 C 
ATOM     10  C   UNL     1       1.889   4.471  17.750  0.00  0.00    +0.000 C 
ATOM     11  H   UNL     1       5.802   1.990  19.091  0.00  0.00    +0.000 HD
ATOM     12  H   UNL     1       1.328   2.049  22.763  0.00  0.00    +0.000 HD
ATOM     13  H   UNL     1       0.261   3.348  22.189  0.00  0.00    +0.000 HD
ATOM     14  H   UNL     1       0.873   4.676  20.274  0.00  0.00    +0.000 HD
ENDROOT
BRANCH   1  15
ATOM     15  O   UNL     1       4.691   3.888  17.940  0.00  0.00    +0.000 OA
BRANCH  15  16
ATOM     16  C   UNL     1       5.901   4.504  18.333  0.00  0.00    +0.000 C 
BRANCH  16  17
ATOM     17  C   UNL     1       6.194   5.646  17.357  0.00  0.00    +0.000 C 
BRANCH  17  18
ATOM     18  C   UNL     1       5.172   5.657  16.206  0.00  0.00    +0.000 C 
BRANCH  18  22
ATOM     19  C   UNL     1       6.781   3.869  12.613  0.00  0.00    +0.000 A 
ATOM     20  C   UNL     1       7.546   4.783  13.365  0.00  0.00    +0.000 A 
ATOM     21  C   UNL     1       7.022   5.363  14.518  0.00  0.00    +0.000 A 
ATOM     22  C   UNL     1       5.722   5.051  14.942  0.00  0.00    +0.000 A 
ATOM     23  C   UNL     1       4.953   4.147  14.190  0.00  0.00    +0.000 A 
ATOM     24  C   UNL     1       5.481   3.560  13.035  0.00  0.00    +0.000 A 
BRANCH  19  26
ATOM     25  C   UNL     1       7.148   1.921  11.214  0.00  0.00    +0.000 C 
ATOM     26  O   UNL     1       7.269   3.267  11.498  0.00  0.00    +0.000 OA
ENDBRANCH  19  26
ENDBRANCH  18  22
ENDBRANCH  17  18
ENDBRANCH  16  17
ENDBRANCH  15  16
ENDBRANCH   1  15
TORSDOF 6
ENDMDL
