MODEL 1
REMARK VINA RESULT:      -7.2      0.000      0.000
REMARK  Name = 
REMARK  5 active torsions:
REMARK  status: ('A' for Active; 'I' for Inactive)
REMARK    1  A    between atoms: C_1  and  O_2
REMARK    2  A    between atoms: O_2  and  C_3
REMARK    3  A    between atoms: C_9  and  C_10
REMARK    4  A    between atoms: C_11  and  N_12
REMARK    5  A    between atoms: C_13  and  C_14
REMARK                            x       y       z     vdW  Elec       q    Type
REMARK                         _______ _______ _______ _____ _____    ______ ____
ROOT
ATOM      1  C   UNL     1       2.078   4.094  17.857  0.00  0.00    +0.000 A 
ATOM      2  C   UNL     1       1.974   5.304  18.529  0.00  0.00    +0.000 A 
ATOM      3  C   UNL     1       2.971   6.280  18.394  0.00  0.00    +0.000 A 
ATOM      4  C   UNL     1       4.070   6.004  17.562  0.00  0.00    +0.000 A 
ATOM      5  N   UNL     1       5.187   6.759  17.286  0.00  0.00    +0.000 N 
ATOM      6  C   UNL     1       6.023   6.088  16.430  0.00  0.00    +0.000 A 
ATOM      7  C   UNL     1       5.439   4.876  16.122  0.00  0.00    +0.000 A 
ATOM      8  C   UNL     1       4.200   4.805  16.856  0.00  0.00    +0.000 A 
ATOM      9  C   UNL     1       3.177   3.841  17.031  0.00  0.00    +0.000 A 
ATOM     10  H   UNL     1       5.371   7.673  17.678  0.00  0.00    +0.000 HD
ENDROOT
BRANCH   1  12
ATOM     11  C   UNL     1       1.264   2.349  19.224  0.00  0.00    +0.000 C 
ATOM     12  O   UNL     1       1.217   3.037  17.984  0.00  0.00    +0.000 OA
ENDBRANCH   1  12
BRANCH   7  13
ATOM     13  C   UNL     1       6.036   3.909  15.240  0.00  0.00    +0.000 C 
ATOM     14  C   UNL     1       5.896   3.960  13.907  0.00  0.00    +0.000 C 
BRANCH  14  15
ATOM     15  N   UNL     1       6.387   3.072  12.989  0.00  0.00    +0.000 N 
ATOM     16  C   UNL     1       5.765   2.662  11.838  0.00  0.00    +0.000 C 
ATOM     17  C   UNL     1       4.394   3.178  11.448  0.00  0.00    +0.000 C 
ATOM     18  O   UNL     1       6.347   1.843  11.104  0.00  0.00    +0.000 OA
ATOM     19  H   UNL     1       7.291   2.635  13.146  0.00  0.00    +0.000 HD
ENDBRANCH  14  15
ENDBRANCH   7  13
TORSDOF 3
ENDMDL
MODEL 2
REMARK VINA RESULT:      -6.9      2.526      3.638
REMARK  Name = 
REMARK  5 active torsions:
REMARK  status: ('A' for Active; 'I' for Inactive)
REMARK    1  A    between atoms: C_1  and  O_2
REMARK    2  A    between atoms: O_2  and  C_3
REMARK    3  A    between atoms: C_9  and  C_10
REMARK    4  A    between atoms: C_11  and  N_12
REMARK    5  A    between atoms: C_13  and  C_14
REMARK                            x       y       z     vdW  Elec       q    Type
REMARK                         _______ _______ _______ _____ _____    ______ ____
ROOT
ATOM      1  C   UNL     1       1.690   5.276  20.377  0.00  0.00    +0.000 A 
ATOM      2  C   UNL     1       1.038   4.096  20.710  0.00  0.00    +0.000 A 
ATOM      3  C   UNL     1       1.299   2.916  19.999  0.00  0.00    +0.000 A 
ATOM      4  C   UNL     1       2.235   2.957  18.952  0.00  0.00    +0.000 A 
ATOM      5  N   UNL     1       2.643   1.969  18.085  0.00  0.00    +0.000 N 
ATOM      6  C   UNL     1       3.568   2.458  17.197  0.00  0.00    +0.000 A 
ATOM      7  C   UNL     1       3.784   3.789  17.493  0.00  0.00    +0.000 A 
ATOM      8  C   UNL     1       2.923   4.121  18.601  0.00  0.00    +0.000 A 
ATOM      9  C   UNL     1       2.621   5.295  19.335  0.00  0.00    +0.000 A 
ATOM     10  H   UNL     1       2.293   1.020  18.095  0.00  0.00    +0.000 HD
ENDROOT
BRANCH   1  12
ATOM     11  C   UNL     1       1.878   7.621  20.177  0.00  0.00    +0.000 C 
ATOM     12  O   UNL     1       1.450   6.502  20.937  0.00  0.00    +0.000 OA
ENDBRANCH   1  12
BRANCH   7  13
ATOM     13  C   UNL     1       4.703   4.623  16.765  0.00  0.00    +0.000 C 
ATOM     14  C   UNL     1       5.803   4.142  16.168  0.00  0.00    +0.000 C 
BRANCH  14  15
ATOM     15  N   UNL     1       6.755   4.853  15.490  0.00  0.00    +0.000 N 
ATOM     16  C   UNL     1       7.037   4.767  14.151  0.00  0.00    +0.000 C 
ATOM     17  C   UNL     1       6.283   3.819  13.239  0.00  0.00    +0.000 C 
ATOM     18  O   UNL     1       7.939   5.485  13.683  0.00  0.00    +0.000 OA
ATOM     19  H   UNL     1       7.347   5.509  15.993  0.00  0.00    +0.000 HD
ENDBRANCH  14  15
ENDBRANCH   7  13
TORSDOF 3
ENDMDL
MODEL 3
REMARK VINA RESULT:      -6.8      2.343      3.396
REMARK  Name = 
REMARK  5 active torsions:
REMARK  status: ('A' for Active; 'I' for Inactive)
REMARK    1  A    between atoms: C_1  and  O_2
REMARK    2  A    between atoms: O_2  and  C_3
REMARK    3  A    between atoms: C_9  and  C_10
REMARK    4  A    between atoms: C_11  and  N_12
REMARK    5  A    between atoms: C_13  and  C_14
REMARK                            x       y       z     vdW  Elec       q    Type
REMARK                         _______ _______ _______ _____ _____    ______ ____
ROOT
ATOM      1  C   UNL     1       2.176   2.964  19.256  0.00  0.00    +0.000 A 
ATOM      2  C   UNL     1       1.347   3.438  20.263  0.00  0.00    +0.000 A 
ATOM      3  C   UNL     1       1.241   4.815  20.505  0.00  0.00    +0.000 A 
ATOM      4  C   UNL     1       1.987   5.696  19.704  0.00  0.00    +0.000 A 
ATOM      5  N   UNL     1       2.093   7.068  19.752  0.00  0.00    +0.000 N 
ATOM      6  C   UNL     1       2.957   7.518  18.785  0.00  0.00    +0.000 A 
ATOM      7  C   UNL     1       3.417   6.426  18.078  0.00  0.00    +0.000 A 
ATOM      8  C   UNL     1       2.816   5.256  18.669  0.00  0.00    +0.000 A 
ATOM      9  C   UNL     1       2.906   3.856  18.467  0.00  0.00    +0.000 A 
ATOM     10  H   UNL     1       1.613   7.655  20.420  0.00  0.00    +0.000 HD
ENDROOT
BRANCH   1  12
ATOM     11  C   UNL     1       3.682   1.366  18.387  0.00  0.00    +0.000 C 
ATOM     12  O   UNL     1       2.428   1.644  18.990  0.00  0.00    +0.000 OA
ENDBRANCH   1  12
BRANCH   7  13
ATOM     13  C   UNL     1       4.340   6.525  16.979  0.00  0.00    +0.000 C 
ATOM     14  C   UNL     1       5.584   6.025  17.030  0.00  0.00    +0.000 C 
BRANCH  14  15
ATOM     15  N   UNL     1       6.546   6.101  16.061  0.00  0.00    +0.000 N 
ATOM     16  C   UNL     1       6.843   5.139  15.129  0.00  0.00    +0.000 C 
ATOM     17  C   UNL     1       6.094   3.822  15.080  0.00  0.00    +0.000 C 
ATOM     18  O   UNL     1       7.753   5.361  14.311  0.00  0.00    +0.000 OA
ATOM     19  H   UNL     1       7.136   6.926  16.001  0.00  0.00    +0.000 HD
ENDBRANCH  14  15
ENDBRANCH   7  13
TORSDOF 3
ENDMDL
MODEL 4
REMARK VINA RESULT:      -6.8      2.663      3.551
REMARK  Name = 
REMARK  5 active torsions:
REMARK  status: ('A' for Active; 'I' for Inactive)
REMARK    1  A    between atoms: C_1  and  O_2
REMARK    2  A    between atoms: O_2  and  C_3
REMARK    3  A    between atoms: C_9  and  C_10
REMARK    4  A    between atoms: C_11  and  N_12
REMARK    5  A    between atoms: C_13  and  C_14
REMARK                            x       y       z     vdW  Elec       q    Type
REMARK                         _______ _______ _______ _____ _____    ______ ____
ROOT
ATOM      1  C   UNL     1       2.176   6.695  19.922  0.00  0.00    +0.000 A 
ATOM      2  C   UNL     1       1.582   5.615  20.560  0.00  0.00    +0.000 A 
ATOM      3  C   UNL     1       1.872   4.304  20.156  0.00  0.00    +0.000 A 
ATOM      4  C   UNL     1       2.777   4.114  19.098  0.00  0.00    +0.000 A 
ATOM      5  N   UNL     1       3.203   2.955  18.490  0.00  0.00    +0.000 N 
ATOM      6  C   UNL     1       4.083   3.238  17.476  0.00  0.00    +0.000 A 
ATOM      7  C   UNL     1       4.253   4.607  17.424  0.00  0.00    +0.000 A 
ATOM      8  C   UNL     1       3.408   5.176  18.445  0.00  0.00    +0.000 A 
ATOM      9  C   UNL     1       3.077   6.485  18.876  0.00  0.00    +0.000 A 
ATOM     10  H   UNL     1       2.893   2.027  18.746  0.00  0.00    +0.000 HD
ENDROOT
BRANCH   1  12
ATOM     11  C   UNL     1       1.203   8.282  21.375  0.00  0.00    +0.000 C 
ATOM     12  O   UNL     1       1.901   8.013  20.169  0.00  0.00    +0.000 OA
ENDBRANCH   1  12
BRANCH   7  13
ATOM     13  C   UNL     1       5.117   5.263  16.480  0.00  0.00    +0.000 C 
ATOM     14  C   UNL     1       6.295   4.750  16.095  0.00  0.00    +0.000 C 
BRANCH  14  15
ATOM     15  N   UNL     1       7.202   5.311  15.239  0.00  0.00    +0.000 N 
ATOM     16  C   UNL     1       7.363   5.012  13.911  0.00  0.00    +0.000 C 
ATOM     17  C   UNL     1       6.506   3.969  13.222  0.00  0.00    +0.000 C 
ATOM     18  O   UNL     1       8.239   5.614  13.264  0.00  0.00    +0.000 OA
ATOM     19  H   UNL     1       7.854   6.011  15.585  0.00  0.00    +0.000 HD
ENDBRANCH  14  15
ENDBRANCH   7  13
TORSDOF 3
ENDMDL
MODEL 5
REMARK VINA RESULT:      -6.7      1.960      6.181
REMARK  Name = 
REMARK  5 active torsions:
REMARK  status: ('A' for Active; 'I' for Inactive)
REMARK    1  A    between atoms: C_1  and  O_2
REMARK    2  A    between atoms: O_2  and  C_3
REMARK    3  A    between atoms: C_9  and  C_10
REMARK    4  A    between atoms: C_11  and  N_12
REMARK    5  A    between atoms: C_13  and  C_14
REMARK                            x       y       z     vdW  Elec       q    Type
REMARK                         _______ _______ _______ _____ _____    ______ ____
ROOT
ATOM      1  C   UNL     1       5.847   3.397  12.329  0.00  0.00    +0.000 A 
ATOM      2  C   UNL     1       7.083   3.978  12.081  0.00  0.00    +0.000 A 
ATOM      3  C   UNL     1       7.694   4.788  13.049  0.00  0.00    +0.000 A 
ATOM      4  C   UNL     1       7.028   4.991  14.270  0.00  0.00    +0.000 A 
ATOM      5  N   UNL     1       7.381   5.756  15.358  0.00  0.00    +0.000 N 
ATOM      6  C   UNL     1       6.417   5.681  16.333  0.00  0.00    +0.000 A 
ATOM      7  C   UNL     1       5.420   4.839  15.886  0.00  0.00    +0.000 A 
ATOM      8  C   UNL     1       5.792   4.408  14.561  0.00  0.00    +0.000 A 
ATOM      9  C   UNL     1       5.203   3.607  13.551  0.00  0.00    +0.000 A 
ATOM     10  H   UNL     1       8.225   6.310  15.418  0.00  0.00    +0.000 HD
ENDROOT
BRANCH   1  12
ATOM     11  C   UNL     1       3.847   3.198  11.090  0.00  0.00    +0.000 C 
ATOM     12  O   UNL     1       5.118   2.667  11.429  0.00  0.00    +0.000 OA
ENDBRANCH   1  12
BRANCH   7  13
ATOM     13  C   UNL     1       4.247   4.521  16.656  0.00  0.00    +0.000 C 
ATOM     14  C   UNL     1       4.139   3.398  17.382  0.00  0.00    +0.000 C 
BRANCH  14  15
ATOM     15  N   UNL     1       3.058   2.987  18.112  0.00  0.00    +0.000 N 
ATOM     16  C   UNL     1       3.082   2.453  19.375  0.00  0.00    +0.000 C 
ATOM     17  C   UNL     1       4.382   2.253  20.128  0.00  0.00    +0.000 C 
ATOM     18  O   UNL     1       2.006   2.125  19.906  0.00  0.00    +0.000 OA
ATOM     19  H   UNL     1       2.126   3.046  17.709  0.00  0.00    +0.000 HD
ENDBRANCH  14  15
ENDBRANCH   7  13
TORSDOF 3
ENDMDL
MODEL 6
REMARK VINA RESULT:      -6.7      1.738      6.151
REMARK  Name = 
REMARK  5 active torsions:
REMARK  status: ('A' for Active; 'I' for Inactive)
REMARK    1  A    between atoms: C_1  and  O_2
REMARK    2  A    between atoms: O_2  and  C_3
REMARK    3  A    between atoms: C_9  and  C_10
REMARK    4  A    between atoms: C_11  and  N_12
REMARK    5  A    between atoms: C_13  and  C_14
REMARK                            x       y       z     vdW  Elec       q    Type
REMARK                         _______ _______ _______ _____ _____    ______ ____
ROOT
ATOM      1  C   UNL     1       6.080   3.427  12.298  0.00  0.00    +0.000 A 
ATOM      2  C   UNL     1       7.162   4.254  12.026  0.00  0.00    +0.000 A 
ATOM      3  C   UNL     1       7.721   5.047  13.037  0.00  0.00    +0.000 A 
ATOM      4  C   UNL     1       7.166   4.981  14.326  0.00  0.00    +0.000 A 
ATOM      5  N   UNL     1       7.494   5.669  15.472  0.00  0.00    +0.000 N 
ATOM      6  C   UNL     1       6.669   5.303  16.506  0.00  0.00    +0.000 A 
ATOM      7  C   UNL     1       5.793   4.346  16.038  0.00  0.00    +0.000 A 
ATOM      8  C   UNL     1       6.090   4.147  14.641  0.00  0.00    +0.000 A 
ATOM      9  C   UNL     1       5.545   3.372  13.588  0.00  0.00    +0.000 A 
ATOM     10  H   UNL     1       8.229   6.360  15.533  0.00  0.00    +0.000 HD
ENDROOT
BRANCH   1  12
ATOM     11  C   UNL     1       4.043   3.048  11.166  0.00  0.00    +0.000 C 
ATOM     12  O   UNL     1       5.398   2.681  11.375  0.00  0.00    +0.000 OA
ENDBRANCH   1  12
BRANCH   7  13
ATOM     13  C   UNL     1       4.784   3.727  16.856  0.00  0.00    +0.000 C 
ATOM     14  C   UNL     1       4.497   4.149  18.097  0.00  0.00    +0.000 C 
BRANCH  14  15
ATOM     15  N   UNL     1       3.589   3.607  18.965  0.00  0.00    +0.000 N 
ATOM     16  C   UNL     1       2.224   3.686  18.871  0.00  0.00    +0.000 C 
ATOM     17  C   UNL     1       1.547   4.423  17.733  0.00  0.00    +0.000 C 
ATOM     18  O   UNL     1       1.532   3.137  19.747  0.00  0.00    +0.000 OA
ATOM     19  H   UNL     1       3.916   3.105  19.787  0.00  0.00    +0.000 HD
ENDBRANCH  14  15
ENDBRANCH   7  13
TORSDOF 3
ENDMDL
MODEL 7
REMARK VINA RESULT:      -6.6      2.691      3.785
REMARK  Name = 
REMARK  5 active torsions:
REMARK  status: ('A' for Active; 'I' for Inactive)
REMARK    1  A    between atoms: C_1  and  O_2
REMARK    2  A    between atoms: O_2  and  C_3
REMARK    3  A    between atoms: C_9  and  C_10
REMARK    4  A    between atoms: C_11  and  N_12
REMARK    5  A    between atoms: C_13  and  C_14
REMARK                            x       y       z     vdW  Elec       q    Type
REMARK                         _______ _______ _______ _____ _____    ______ ____
ROOT
ATOM      1  C   UNL     1       1.977   7.617  19.587  0.00  0.00    +0.000 A 
ATOM      2  C   UNL     1       1.543   6.727  20.559  0.00  0.00    +0.000 A 
ATOM      3  C   UNL     1       2.042   5.417  20.597  0.00  0.00    +0.000 A 
ATOM      4  C   UNL     1       2.990   5.034  19.633  0.00  0.00    +0.000 A 
ATOM      5  N   UNL     1       3.604   3.819  19.425  0.00  0.00    +0.000 N 
ATOM      6  C   UNL     1       4.453   3.887  18.349  0.00  0.00    +0.000 A 
ATOM      7  C   UNL     1       4.410   5.172  17.848  0.00  0.00    +0.000 A 
ATOM      8  C   UNL     1       3.464   5.907  18.651  0.00  0.00    +0.000 A 
ATOM      9  C   UNL     1       2.924   7.217  18.640  0.00  0.00    +0.000 A 
ATOM     10  H   UNL     1       3.436   2.991  19.980  0.00  0.00    +0.000 HD
ENDROOT
BRANCH   1  12
ATOM     11  C   UNL     1       1.585   9.387  18.073  0.00  0.00    +0.000 C 
ATOM     12  O   UNL     1       1.495   8.884  19.397  0.00  0.00    +0.000 OA
ENDBRANCH   1  12
BRANCH   7  13
ATOM     13  C   UNL     1       5.183   5.609  16.716  0.00  0.00    +0.000 C 
ATOM     14  C   UNL     1       6.431   5.177  16.480  0.00  0.00    +0.000 C 
BRANCH  14  15
ATOM     15  N   UNL     1       7.259   5.559  15.461  0.00  0.00    +0.000 N 
ATOM     16  C   UNL     1       7.262   5.062  14.183  0.00  0.00    +0.000 C 
ATOM     17  C   UNL     1       6.294   3.979  13.749  0.00  0.00    +0.000 C 
ATOM     18  O   UNL     1       8.084   5.516  13.367  0.00  0.00    +0.000 OA
ATOM     19  H   UNL     1       7.972   6.264  15.629  0.00  0.00    +0.000 HD
ENDBRANCH  14  15
ENDBRANCH   7  13
TORSDOF 3
ENDMDL
MODEL 8
REMARK VINA RESULT:      -6.6      2.797      3.906
REMARK  Name = 
REMARK  5 active torsions:
REMARK  status: ('A' for Active; 'I' for Inactive)
REMARK    1  A    between atoms: C_1  and  O_2
REMARK    2  A    between atoms: O_2  and  C_3
REMARK    3  A    between atoms: C_9  and  C_10
REMARK    4  A    between atoms: C_11  and  N_12
REMARK    5  A    between atoms: C_13  and  C_14
REMARK                            x       y       z     vdW  Elec       q    Type
REMARK                         _______ _______ _______ _____ _____    ______ ____
ROOT
ATOM      1  C   UNL     1       2.241   6.731  19.878  0.00  0.00    +0.000 A 
ATOM      2  C   UNL     1       1.474   5.868  20.647  0.00  0.00    +0.000 A 
ATOM      3  C   UNL     1       1.840   4.521  20.781  0.00  0.00    +0.000 A 
ATOM      4  C   UNL     1       2.998   4.072  20.124  0.00  0.00    +0.000 A 
ATOM      5  N   UNL     1       3.553   2.814  20.061  0.00  0.00    +0.000 N 
ATOM      6  C   UNL     1       4.684   2.826  19.283  0.00  0.00    +0.000 A 
ATOM      7  C   UNL     1       4.887   4.116  18.840  0.00  0.00    +0.000 A 
ATOM      8  C   UNL     1       3.805   4.916  19.357  0.00  0.00    +0.000 A 
ATOM      9  C   UNL     1       3.393   6.267  19.236  0.00  0.00    +0.000 A 
ATOM     10  H   UNL     1       3.167   1.995  20.511  0.00  0.00    +0.000 HD
ENDROOT
BRANCH   1  12
ATOM     11  C   UNL     1       2.149   8.451  18.262  0.00  0.00    +0.000 C 
ATOM     12  O   UNL     1       1.934   8.036  19.602  0.00  0.00    +0.000 OA
ENDBRANCH   1  12
BRANCH   7  13
ATOM     13  C   UNL     1       5.991   4.502  18.001  0.00  0.00    +0.000 C 
ATOM     14  C   UNL     1       5.825   5.142  16.834  0.00  0.00    +0.000 C 
BRANCH  14  15
ATOM     15  N   UNL     1       6.800   5.514  15.950  0.00  0.00    +0.000 N 
ATOM     16  C   UNL     1       6.998   5.005  14.692  0.00  0.00    +0.000 C 
ATOM     17  C   UNL     1       6.108   3.916  14.127  0.00  0.00    +0.000 C 
ATOM     18  O   UNL     1       7.936   5.451  14.008  0.00  0.00    +0.000 OA
ATOM     19  H   UNL     1       7.479   6.222  16.218  0.00  0.00    +0.000 HD
ENDBRANCH  14  15
ENDBRANCH   7  13
TORSDOF 3
ENDMDL
MODEL 9
REMARK VINA RESULT:      -6.6      3.413      4.896
REMARK  Name = 
REMARK  5 active torsions:
REMARK  status: ('A' for Active; 'I' for Inactive)
REMARK    1  A    between atoms: C_1  and  O_2
REMARK    2  A    between atoms: O_2  and  C_3
REMARK    3  A    between atoms: C_9  and  C_10
REMARK    4  A    between atoms: C_11  and  N_12
REMARK    5  A    between atoms: C_13  and  C_14
REMARK                            x       y       z     vdW  Elec       q    Type
REMARK                         _______ _______ _______ _____ _____    ______ ____
ROOT
ATOM      1  C   UNL     1       1.547   5.079  20.395  0.00  0.00    +0.000 A 
ATOM      2  C   UNL     1       0.901   3.912  20.777  0.00  0.00    +0.000 A 
ATOM      3  C   UNL     1       1.190   2.698  20.138  0.00  0.00    +0.000 A 
ATOM      4  C   UNL     1       2.148   2.693  19.110  0.00  0.00    +0.000 A 
ATOM      5  N   UNL     1       2.586   1.664  18.308  0.00  0.00    +0.000 N 
ATOM      6  C   UNL     1       3.525   2.116  17.414  0.00  0.00    +0.000 A 
ATOM      7  C   UNL     1       3.721   3.463  17.642  0.00  0.00    +0.000 A 
ATOM      8  C   UNL     1       2.832   3.845  18.711  0.00  0.00    +0.000 A 
ATOM      9  C   UNL     1       2.501   5.053  19.374  0.00  0.00    +0.000 A 
ATOM     10  H   UNL     1       2.247   0.713  18.361  0.00  0.00    +0.000 HD
ENDROOT
BRANCH   1  12
ATOM     11  C   UNL     1       1.986   7.395  20.262  0.00  0.00    +0.000 C 
ATOM     12  O   UNL     1       1.282   6.330  20.882  0.00  0.00    +0.000 OA
ENDBRANCH   1  12
BRANCH   7  13
ATOM     13  C   UNL     1       4.646   4.267  16.889  0.00  0.00    +0.000 C 
ATOM     14  C   UNL     1       5.351   5.268  17.439  0.00  0.00    +0.000 C 
BRANCH  14  15
ATOM     15  N   UNL     1       6.220   6.112  16.805  0.00  0.00    +0.000 N 
ATOM     16  C   UNL     1       7.357   6.663  17.339  0.00  0.00    +0.000 C 
ATOM     17  C   UNL     1       7.785   6.377  18.765  0.00  0.00    +0.000 C 
ATOM     18  O   UNL     1       8.046   7.417  16.630  0.00  0.00    +0.000 OA
ATOM     19  H   UNL     1       6.034   6.402  15.849  0.00  0.00    +0.000 HD
ENDBRANCH  14  15
ENDBRANCH   7  13
TORSDOF 3
ENDMDL
