MODEL 1
REMARK VINA RESULT:      -8.2      0.000      0.000
REMARK  Name = 
REMARK  4 active torsions:
REMARK  status: ('A' for Active; 'I' for Inactive)
REMARK    1  A    between atoms: C_2  and  N_3
REMARK    2  A    between atoms: C_12  and  C_13
REMARK    3  A    between atoms: C_21  and  C_22
REMARK    4  A    between atoms: C_22  and  C_23
REMARK                            x       y       z     vdW  Elec       q    Type
REMARK                         _______ _______ _______ _____ _____    ______ ____
ROOT
ATOM      1  N   UNL     1       1.030   9.008  21.256  0.00  0.00    +0.000 N 
ATOM      2  C   UNL     1       1.051  10.073  20.379  0.00  0.00    +0.000 C 
ATOM      3  N   UNL     1       1.168  11.292  20.819  0.00  0.00    +0.000 NA
ATOM      4  C   UNL     1       0.959  12.412  20.001  0.00  0.00    +0.000 A 
ATOM      5  C   UNL     1       1.712  13.556  20.306  0.00  0.00    +0.000 A 
ATOM      6  C   UNL     1       1.466  14.766  19.657  0.00  0.00    +0.000 A 
ATOM      7  C   UNL     1       0.489  14.901  18.714  0.00  0.00    +0.000 A 
ATOM      8  C   UNL     1      -0.254  13.772  18.382  0.00  0.00    +0.000 A 
ATOM      9  C   UNL     1      -0.053  12.533  19.036  0.00  0.00    +0.000 A 
ATOM     10  C   UNL     1      -0.968  11.404  18.778  0.00  0.00    +0.000 C 
ATOM     11  N   UNL     1      -0.590  10.170  18.618  0.00  0.00    +0.000 NA
ATOM     12  C   UNL     1       0.850   9.790  18.870  0.00  0.00    +0.000 C 
ATOM     13  H   UNL     1       0.632   8.152  20.895  0.00  0.00    +0.000 HD
ENDROOT
BRANCH  10  14
ATOM     14  C   UNL     1      -2.448  11.714  18.673  0.00  0.00    +0.000 A 
ATOM     15  C   UNL     1      -3.188  12.209  19.755  0.00  0.00    +0.000 A 
ATOM     16  C   UNL     1      -4.576  12.442  19.656  0.00  0.00    +0.000 A 
ATOM     17  C   UNL     1      -5.238  12.199  18.453  0.00  0.00    +0.000 A 
ATOM     18  C   UNL     1      -4.533  11.715  17.347  0.00  0.00    +0.000 A 
ATOM     19  C   UNL     1      -3.147  11.513  17.465  0.00  0.00    +0.000 A 
ATOM     20  F   UNL     1      -2.521  11.094  16.360  0.00  0.00    +0.000 F 
ENDBRANCH  10  14
BRANCH   1  22
ATOM     21  N   UNL     1       0.228   9.574  23.659  0.00  0.00    +0.000 NA
ATOM     22  C   UNL     1       0.595   9.295  22.602  0.00  0.00    +0.000 C 
ENDBRANCH   1  22
BRANCH  12  23
ATOM     23  C   UNL     1       0.983   8.320  18.439  0.00  0.00    +0.000 C 
BRANCH  23  24
ATOM     24  C   UNL     1       2.238   7.494  18.212  0.00  0.00    +0.000 A 
ATOM     25  C   UNL     1       3.305   8.150  17.599  0.00  0.00    +0.000 A 
ATOM     26  N   UNL     1       4.401   7.334  17.697  0.00  0.00    +0.000 N 
ATOM     27  C   UNL     1       3.894   6.082  17.519  0.00  0.00    +0.000 A 
ATOM     28  C   UNL     1       4.472   4.972  16.897  0.00  0.00    +0.000 A 
ATOM     29  C   UNL     1       3.826   3.756  17.055  0.00  0.00    +0.000 A 
ATOM     30  C   UNL     1       2.731   3.662  17.920  0.00  0.00    +0.000 A 
ATOM     31  C   UNL     1       2.133   4.812  18.500  0.00  0.00    +0.000 A 
ATOM     32  C   UNL     1       2.658   6.087  18.189  0.00  0.00    +0.000 A 
ATOM     33  H   UNL     1       5.133   7.516  18.350  0.00  0.00    +0.000 HD
ENDBRANCH  23  24
ENDBRANCH  12  23
TORSDOF 4
ENDMDL
MODEL 2
REMARK VINA RESULT:      -8.1      2.353      4.492
REMARK  Name = 
REMARK  4 active torsions:
REMARK  status: ('A' for Active; 'I' for Inactive)
REMARK    1  A    between atoms: C_2  and  N_3
REMARK    2  A    between atoms: C_12  and  C_13
REMARK    3  A    between atoms: C_21  and  C_22
REMARK    4  A    between atoms: C_22  and  C_23
REMARK                            x       y       z     vdW  Elec       q    Type
REMARK                         _______ _______ _______ _____ _____    ______ ____
ROOT
ATOM      1  N   UNL     1      -0.993  10.010  17.420  0.00  0.00    +0.000 N 
ATOM      2  C   UNL     1      -0.578  10.535  18.626  0.00  0.00    +0.000 C 
ATOM      3  N   UNL     1      -1.408  11.194  19.382  0.00  0.00    +0.000 NA
ATOM      4  C   UNL     1      -0.985  11.944  20.490  0.00  0.00    +0.000 A 
ATOM      5  C   UNL     1      -1.886  12.034  21.562  0.00  0.00    +0.000 A 
ATOM      6  C   UNL     1      -1.630  12.881  22.640  0.00  0.00    +0.000 A 
ATOM      7  C   UNL     1      -0.513  13.662  22.703  0.00  0.00    +0.000 A 
ATOM      8  C   UNL     1       0.404  13.570  21.660  0.00  0.00    +0.000 A 
ATOM      9  C   UNL     1       0.168  12.742  20.536  0.00  0.00    +0.000 A 
ATOM     10  C   UNL     1       1.078  12.796  19.375  0.00  0.00    +0.000 C 
ATOM     11  N   UNL     1       1.497  11.755  18.719  0.00  0.00    +0.000 NA
ATOM     12  C   UNL     1       0.913  10.395  19.020  0.00  0.00    +0.000 C 
ATOM     13  H   UNL     1      -0.258   9.796  16.760  0.00  0.00    +0.000 HD
ENDROOT
BRANCH  10  14
ATOM     14  C   UNL     1       1.569  14.161  18.934  0.00  0.00    +0.000 A 
ATOM     15  C   UNL     1       2.928  14.437  18.728  0.00  0.00    +0.000 A 
ATOM     16  C   UNL     1       3.373  15.726  18.370  0.00  0.00    +0.000 A 
ATOM     17  C   UNL     1       2.450  16.757  18.191  0.00  0.00    +0.000 A 
ATOM     18  C   UNL     1       1.085  16.519  18.377  0.00  0.00    +0.000 A 
ATOM     19  C   UNL     1       0.666  15.220  18.712  0.00  0.00    +0.000 A 
ATOM     20  F   UNL     1      -0.655  15.044  18.829  0.00  0.00    +0.000 F 
ENDBRANCH  10  14
BRANCH   1  22
ATOM     21  N   UNL     1      -3.046  11.112  16.276  0.00  0.00    +0.000 NA
ATOM     22  C   UNL     1      -2.126  10.650  16.797  0.00  0.00    +0.000 C 
ENDBRANCH   1  22
BRANCH  12  23
ATOM     23  C   UNL     1       1.732   9.389  18.194  0.00  0.00    +0.000 C 
BRANCH  23  24
ATOM     24  C   UNL     1       2.265   8.023  18.595  0.00  0.00    +0.000 A 
ATOM     25  C   UNL     1       1.984   7.610  19.897  0.00  0.00    +0.000 A 
ATOM     26  N   UNL     1       2.327   6.287  19.993  0.00  0.00    +0.000 N 
ATOM     27  C   UNL     1       3.460   6.188  19.243  0.00  0.00    +0.000 A 
ATOM     28  C   UNL     1       4.580   5.375  19.434  0.00  0.00    +0.000 A 
ATOM     29  C   UNL     1       5.494   5.310  18.394  0.00  0.00    +0.000 A 
ATOM     30  C   UNL     1       5.200   5.931  17.175  0.00  0.00    +0.000 A 
ATOM     31  C   UNL     1       4.081   6.792  17.024  0.00  0.00    +0.000 A 
ATOM     32  C   UNL     1       3.245   7.030  18.137  0.00  0.00    +0.000 A 
ATOM     33  H   UNL     1       1.638   5.567  20.000  0.00  0.00    +0.000 HD
ENDBRANCH  23  24
ENDBRANCH  12  23
TORSDOF 4
ENDMDL
MODEL 3
REMARK VINA RESULT:      -8.0      0.876      1.230
REMARK  Name = 
REMARK  4 active torsions:
REMARK  status: ('A' for Active; 'I' for Inactive)
REMARK    1  A    between atoms: C_2  and  N_3
REMARK    2  A    between atoms: C_12  and  C_13
REMARK    3  A    between atoms: C_21  and  C_22
REMARK    4  A    between atoms: C_22  and  C_23
REMARK                            x       y       z     vdW  Elec       q    Type
REMARK                         _______ _______ _______ _____ _____    ______ ____
ROOT
ATOM      1  N   UNL     1       1.071   9.043  21.153  0.00  0.00    +0.000 N 
ATOM      2  C   UNL     1       1.043  10.115  20.285  0.00  0.00    +0.000 C 
ATOM      3  N   UNL     1       1.153  11.333  20.732  0.00  0.00    +0.000 NA
ATOM      4  C   UNL     1       0.896  12.455  19.932  0.00  0.00    +0.000 A 
ATOM      5  C   UNL     1       1.639  13.611  20.221  0.00  0.00    +0.000 A 
ATOM      6  C   UNL     1       1.349  14.821  19.592  0.00  0.00    +0.000 A 
ATOM      7  C   UNL     1       0.337  14.946  18.686  0.00  0.00    +0.000 A 
ATOM      8  C   UNL     1      -0.397  13.807  18.369  0.00  0.00    +0.000 A 
ATOM      9  C   UNL     1      -0.151  12.567  19.004  0.00  0.00    +0.000 A 
ATOM     10  C   UNL     1      -1.055  11.423  18.768  0.00  0.00    +0.000 C 
ATOM     11  N   UNL     1      -0.660  10.198  18.584  0.00  0.00    +0.000 NA
ATOM     12  C   UNL     1       0.794   9.842  18.781  0.00  0.00    +0.000 C 
ATOM     13  H   UNL     1       0.676   8.183  20.798  0.00  0.00    +0.000 HD
ENDROOT
BRANCH  10  14
ATOM     14  C   UNL     1      -2.543  11.707  18.717  0.00  0.00    +0.000 A 
ATOM     15  C   UNL     1      -3.321  11.425  17.587  0.00  0.00    +0.000 A 
ATOM     16  C   UNL     1      -4.694  11.744  17.538  0.00  0.00    +0.000 A 
ATOM     17  C   UNL     1      -5.312  12.336  18.639  0.00  0.00    +0.000 A 
ATOM     18  C   UNL     1      -4.571  12.624  19.790  0.00  0.00    +0.000 A 
ATOM     19  C   UNL     1      -3.210  12.275  19.822  0.00  0.00    +0.000 A 
ATOM     20  F   UNL     1      -2.568  12.532  20.966  0.00  0.00    +0.000 F 
ENDBRANCH  10  14
BRANCH   1  22
ATOM     21  N   UNL     1       0.320   9.552  23.585  0.00  0.00    +0.000 NA
ATOM     22  C   UNL     1       0.678   9.310  22.516  0.00  0.00    +0.000 C 
ENDBRANCH   1  22
BRANCH  12  23
ATOM     23  C   UNL     1       0.938   8.378  18.333  0.00  0.00    +0.000 C 
BRANCH  23  24
ATOM     24  C   UNL     1       2.197   7.546  18.153  0.00  0.00    +0.000 A 
ATOM     25  C   UNL     1       3.286   8.195  17.573  0.00  0.00    +0.000 A 
ATOM     26  N   UNL     1       4.376   7.377  17.712  0.00  0.00    +0.000 N 
ATOM     27  C   UNL     1       3.870   6.125  17.525  0.00  0.00    +0.000 A 
ATOM     28  C   UNL     1       4.465   5.010  16.929  0.00  0.00    +0.000 A 
ATOM     29  C   UNL     1       3.810   3.797  17.073  0.00  0.00    +0.000 A 
ATOM     30  C   UNL     1       2.687   3.712  17.902  0.00  0.00    +0.000 A 
ATOM     31  C   UNL     1       2.073   4.867  18.454  0.00  0.00    +0.000 A 
ATOM     32  C   UNL     1       2.612   6.138  18.153  0.00  0.00    +0.000 A 
ATOM     33  H   UNL     1       5.086   7.560  18.388  0.00  0.00    +0.000 HD
ENDBRANCH  23  24
ENDBRANCH  12  23
TORSDOF 4
ENDMDL
MODEL 4
REMARK VINA RESULT:      -8.0      2.518      4.561
REMARK  Name = 
REMARK  4 active torsions:
REMARK  status: ('A' for Active; 'I' for Inactive)
REMARK    1  A    between atoms: C_2  and  N_3
REMARK    2  A    between atoms: C_12  and  C_13
REMARK    3  A    between atoms: C_21  and  C_22
REMARK    4  A    between atoms: C_22  and  C_23
REMARK                            x       y       z     vdW  Elec       q    Type
REMARK                         _______ _______ _______ _____ _____    ______ ____
ROOT
ATOM      1  N   UNL     1      -1.035  10.042  17.475  0.00  0.00    +0.000 N 
ATOM      2  C   UNL     1      -0.651  10.568  18.691  0.00  0.00    +0.000 C 
ATOM      3  N   UNL     1      -1.519  11.161  19.460  0.00  0.00    +0.000 NA
ATOM      4  C   UNL     1      -1.141  11.913  20.582  0.00  0.00    +0.000 A 
ATOM      5  C   UNL     1      -2.045  11.927  21.656  0.00  0.00    +0.000 A 
ATOM      6  C   UNL     1      -1.839  12.766  22.750  0.00  0.00    +0.000 A 
ATOM      7  C   UNL     1      -0.772  13.613  22.828  0.00  0.00    +0.000 A 
ATOM      8  C   UNL     1       0.148  13.597  21.783  0.00  0.00    +0.000 A 
ATOM      9  C   UNL     1      -0.039  12.779  20.644  0.00  0.00    +0.000 A 
ATOM     10  C   UNL     1       0.865  12.910  19.484  0.00  0.00    +0.000 C 
ATOM     11  N   UNL     1       1.346  11.909  18.807  0.00  0.00    +0.000 NA
ATOM     12  C   UNL     1       0.846  10.511  19.081  0.00  0.00    +0.000 C 
ATOM     13  H   UNL     1      -0.289   9.886  16.811  0.00  0.00    +0.000 HD
ENDROOT
BRANCH  10  14
ATOM     14  C   UNL     1       1.272  14.311  19.070  0.00  0.00    +0.000 A 
ATOM     15  C   UNL     1       0.333  15.294  18.732  0.00  0.00    +0.000 A 
ATOM     16  C   UNL     1       0.730  16.576  18.299  0.00  0.00    +0.000 A 
ATOM     17  C   UNL     1       2.086  16.895  18.219  0.00  0.00    +0.000 A 
ATOM     18  C   UNL     1       3.053  15.944  18.557  0.00  0.00    +0.000 A 
ATOM     19  C   UNL     1       2.630  14.682  19.008  0.00  0.00    +0.000 A 
ATOM     20  F   UNL     1       3.601  13.833  19.362  0.00  0.00    +0.000 F 
ENDBRANCH  10  14
BRANCH   1  22
ATOM     21  N   UNL     1      -3.108  11.123  16.346  0.00  0.00    +0.000 NA
ATOM     22  C   UNL     1      -2.206  10.624  16.864  0.00  0.00    +0.000 C 
ENDBRANCH   1  22
BRANCH  12  23
ATOM     23  C   UNL     1       1.724   9.573  18.236  0.00  0.00    +0.000 C 
BRANCH  23  24
ATOM     24  C   UNL     1       2.224   8.174  18.558  0.00  0.00    +0.000 A 
ATOM     25  C   UNL     1       1.890   7.674  19.816  0.00  0.00    +0.000 A 
ATOM     26  N   UNL     1       2.211   6.343  19.830  0.00  0.00    +0.000 N 
ATOM     27  C   UNL     1       3.370   6.280  19.116  0.00  0.00    +0.000 A 
ATOM     28  C   UNL     1       4.472   5.438  19.288  0.00  0.00    +0.000 A 
ATOM     29  C   UNL     1       5.423   5.432  18.280  0.00  0.00    +0.000 A 
ATOM     30  C   UNL     1       5.182   6.143  17.099  0.00  0.00    +0.000 A 
ATOM     31  C   UNL     1       4.081   7.030  16.969  0.00  0.00    +0.000 A 
ATOM     32  C   UNL     1       3.207   7.201  18.066  0.00  0.00    +0.000 A 
ATOM     33  H   UNL     1       1.513   5.634  19.760  0.00  0.00    +0.000 HD
ENDBRANCH  23  24
ENDBRANCH  12  23
TORSDOF 4
ENDMDL
MODEL 5
REMARK VINA RESULT:      -7.9      2.280      4.435
REMARK  Name = 
REMARK  4 active torsions:
REMARK  status: ('A' for Active; 'I' for Inactive)
REMARK    1  A    between atoms: C_2  and  N_3
REMARK    2  A    between atoms: C_12  and  C_13
REMARK    3  A    between atoms: C_21  and  C_22
REMARK    4  A    between atoms: C_22  and  C_23
REMARK                            x       y       z     vdW  Elec       q    Type
REMARK                         _______ _______ _______ _____ _____    ______ ____
ROOT
ATOM      1  N   UNL     1      -1.135  10.001  17.288  0.00  0.00    +0.000 N 
ATOM      2  C   UNL     1      -0.678  10.481  18.498  0.00  0.00    +0.000 C 
ATOM      3  N   UNL     1      -1.481  11.108  19.307  0.00  0.00    +0.000 NA
ATOM      4  C   UNL     1      -1.020  11.815  20.428  0.00  0.00    +0.000 A 
ATOM      5  C   UNL     1      -1.883  11.862  21.534  0.00  0.00    +0.000 A 
ATOM      6  C   UNL     1      -1.589  12.667  22.634  0.00  0.00    +0.000 A 
ATOM      7  C   UNL     1      -0.471  13.447  22.687  0.00  0.00    +0.000 A 
ATOM      8  C   UNL     1       0.408  13.398  21.610  0.00  0.00    +0.000 A 
ATOM      9  C   UNL     1       0.133  12.614  20.464  0.00  0.00    +0.000 A 
ATOM     10  C   UNL     1       1.001  12.714  19.274  0.00  0.00    +0.000 C 
ATOM     11  N   UNL     1       1.398  11.700  18.564  0.00  0.00    +0.000 NA
ATOM     12  C   UNL     1       0.826  10.329  18.832  0.00  0.00    +0.000 C 
ATOM     13  H   UNL     1      -0.424   9.815  16.594  0.00  0.00    +0.000 HD
ENDROOT
BRANCH  10  14
ATOM     14  C   UNL     1       1.476  14.096  18.870  0.00  0.00    +0.000 A 
ATOM     15  C   UNL     1       2.822  14.376  18.600  0.00  0.00    +0.000 A 
ATOM     16  C   UNL     1       3.254  15.679  18.276  0.00  0.00    +0.000 A 
ATOM     17  C   UNL     1       2.330  16.720  18.198  0.00  0.00    +0.000 A 
ATOM     18  C   UNL     1       0.976  16.479  18.451  0.00  0.00    +0.000 A 
ATOM     19  C   UNL     1       0.568  15.168  18.748  0.00  0.00    +0.000 A 
ATOM     20  F   UNL     1      -0.745  14.992  18.932  0.00  0.00    +0.000 F 
ENDBRANCH  10  14
BRANCH   1  22
ATOM     21  N   UNL     1      -3.226  11.143  16.258  0.00  0.00    +0.000 NA
ATOM     22  C   UNL     1      -2.291  10.663  16.730  0.00  0.00    +0.000 C 
ENDBRANCH   1  22
BRANCH  12  23
ATOM     23  C   UNL     1       1.616   9.357  17.939  0.00  0.00    +0.000 C 
BRANCH  23  24
ATOM     24  C   UNL     1       2.414   8.124  18.331  0.00  0.00    +0.000 A 
ATOM     25  C   UNL     1       3.331   7.659  17.389  0.00  0.00    +0.000 A 
ATOM     26  N   UNL     1       4.107   6.711  18.003  0.00  0.00    +0.000 N 
ATOM     27  C   UNL     1       3.234   6.048  18.811  0.00  0.00    +0.000 A 
ATOM     28  C   UNL     1       3.207   4.696  19.166  0.00  0.00    +0.000 A 
ATOM     29  C   UNL     1       2.341   4.331  20.185  0.00  0.00    +0.000 A 
ATOM     30  C   UNL     1       1.651   5.320  20.893  0.00  0.00    +0.000 A 
ATOM     31  C   UNL     1       1.655   6.679  20.480  0.00  0.00    +0.000 A 
ATOM     32  C   UNL     1       2.376   7.039  19.319  0.00  0.00    +0.000 A 
ATOM     33  H   UNL     1       5.043   6.904  18.288  0.00  0.00    +0.000 HD
ENDBRANCH  23  24
ENDBRANCH  12  23
TORSDOF 4
ENDMDL
MODEL 6
REMARK VINA RESULT:      -7.9      2.438      4.485
REMARK  Name = 
REMARK  4 active torsions:
REMARK  status: ('A' for Active; 'I' for Inactive)
REMARK    1  A    between atoms: C_2  and  N_3
REMARK    2  A    between atoms: C_12  and  C_13
REMARK    3  A    between atoms: C_21  and  C_22
REMARK    4  A    between atoms: C_22  and  C_23
REMARK                            x       y       z     vdW  Elec       q    Type
REMARK                         _______ _______ _______ _____ _____    ______ ____
ROOT
ATOM      1  N   UNL     1      -1.153   9.966  17.261  0.00  0.00    +0.000 N 
ATOM      2  C   UNL     1      -0.687  10.458  18.462  0.00  0.00    +0.000 C 
ATOM      3  N   UNL     1      -1.481  11.106  19.265  0.00  0.00    +0.000 NA
ATOM      4  C   UNL     1      -1.009  11.824  20.374  0.00  0.00    +0.000 A 
ATOM      5  C   UNL     1      -1.868  11.896  21.482  0.00  0.00    +0.000 A 
ATOM      6  C   UNL     1      -1.563  12.714  22.569  0.00  0.00    +0.000 A 
ATOM      7  C   UNL     1      -0.437  13.484  22.607  0.00  0.00    +0.000 A 
ATOM      8  C   UNL     1       0.439  13.409  21.528  0.00  0.00    +0.000 A 
ATOM      9  C   UNL     1       0.152  12.612  20.395  0.00  0.00    +0.000 A 
ATOM     10  C   UNL     1       1.017  12.686  19.200  0.00  0.00    +0.000 C 
ATOM     11  N   UNL     1       1.401  11.658  18.504  0.00  0.00    +0.000 NA
ATOM     12  C   UNL     1       0.816  10.296  18.794  0.00  0.00    +0.000 C 
ATOM     13  H   UNL     1      -0.446   9.762  16.568  0.00  0.00    +0.000 HD
ENDROOT
BRANCH  10  14
ATOM     14  C   UNL     1       1.504  14.057  18.774  0.00  0.00    +0.000 A 
ATOM     15  C   UNL     1       0.707  15.204  18.889  0.00  0.00    +0.000 A 
ATOM     16  C   UNL     1       1.156  16.463  18.439  0.00  0.00    +0.000 A 
ATOM     17  C   UNL     1       2.428  16.590  17.883  0.00  0.00    +0.000 A 
ATOM     18  C   UNL     1       3.258  15.472  17.761  0.00  0.00    +0.000 A 
ATOM     19  C   UNL     1       2.795  14.233  18.238  0.00  0.00    +0.000 A 
ATOM     20  F   UNL     1       3.652  13.211  18.137  0.00  0.00    +0.000 F 
ENDBRANCH  10  14
BRANCH   1  22
ATOM     21  N   UNL     1      -3.201  11.152  16.196  0.00  0.00    +0.000 NA
ATOM     22  C   UNL     1      -2.304  10.630  16.697  0.00  0.00    +0.000 C 
ENDBRANCH   1  22
BRANCH  12  23
ATOM     23  C   UNL     1       1.594   9.303  17.913  0.00  0.00    +0.000 C 
BRANCH  23  24
ATOM     24  C   UNL     1       2.422   8.097  18.324  0.00  0.00    +0.000 A 
ATOM     25  C   UNL     1       3.369   7.656  17.401  0.00  0.00    +0.000 A 
ATOM     26  N   UNL     1       4.163   6.735  18.032  0.00  0.00    +0.000 N 
ATOM     27  C   UNL     1       3.296   6.049  18.829  0.00  0.00    +0.000 A 
ATOM     28  C   UNL     1       3.305   4.699  19.190  0.00  0.00    +0.000 A 
ATOM     29  C   UNL     1       2.433   4.312  20.195  0.00  0.00    +0.000 A 
ATOM     30  C   UNL     1       1.700   5.282  20.886  0.00  0.00    +0.000 A 
ATOM     31  C   UNL     1       1.670   6.639  20.467  0.00  0.00    +0.000 A 
ATOM     32  C   UNL     1       2.400   7.016  19.318  0.00  0.00    +0.000 A 
ATOM     33  H   UNL     1       5.087   6.958  18.333  0.00  0.00    +0.000 HD
ENDBRANCH  23  24
ENDBRANCH  12  23
TORSDOF 4
ENDMDL
MODEL 7
REMARK VINA RESULT:      -7.9      1.638      2.235
REMARK  Name = 
REMARK  4 active torsions:
REMARK  status: ('A' for Active; 'I' for Inactive)
REMARK    1  A    between atoms: C_2  and  N_3
REMARK    2  A    between atoms: C_12  and  C_13
REMARK    3  A    between atoms: C_21  and  C_22
REMARK    4  A    between atoms: C_22  and  C_23
REMARK                            x       y       z     vdW  Elec       q    Type
REMARK                         _______ _______ _______ _____ _____    ______ ____
ROOT
ATOM      1  N   UNL     1       0.017   9.664  22.714  0.00  0.00    +0.000 N 
ATOM      2  C   UNL     1       0.596  10.242  21.604  0.00  0.00    +0.000 C 
ATOM      3  N   UNL     1       0.631  11.537  21.473  0.00  0.00    +0.000 NA
ATOM      4  C   UNL     1       0.989  12.163  20.270  0.00  0.00    +0.000 A 
ATOM      5  C   UNL     1       1.631  13.406  20.381  0.00  0.00    +0.000 A 
ATOM      6  C   UNL     1       1.885  14.181  19.249  0.00  0.00    +0.000 A 
ATOM      7  C   UNL     1       1.519  13.782  17.997  0.00  0.00    +0.000 A 
ATOM      8  C   UNL     1       0.902  12.542  17.863  0.00  0.00    +0.000 A 
ATOM      9  C   UNL     1       0.603  11.738  18.989  0.00  0.00    +0.000 A 
ATOM     10  C   UNL     1      -0.199  10.509  18.828  0.00  0.00    +0.000 C 
ATOM     11  N   UNL     1       0.054   9.380  19.421  0.00  0.00    +0.000 NA
ATOM     12  C   UNL     1       1.127   9.316  20.482  0.00  0.00    +0.000 C 
ATOM     13  H   UNL     1      -0.254   8.696  22.613  0.00  0.00    +0.000 HD
ENDROOT
BRANCH  10  14
ATOM     14  C   UNL     1      -1.387  10.569  17.888  0.00  0.00    +0.000 A 
ATOM     15  C   UNL     1      -1.474   9.771  16.739  0.00  0.00    +0.000 A 
ATOM     16  C   UNL     1      -2.562   9.876  15.848  0.00  0.00    +0.000 A 
ATOM     17  C   UNL     1      -3.594  10.777  16.112  0.00  0.00    +0.000 A 
ATOM     18  C   UNL     1      -3.549  11.583  17.253  0.00  0.00    +0.000 A 
ATOM     19  C   UNL     1      -2.465  11.442  18.137  0.00  0.00    +0.000 A 
ATOM     20  F   UNL     1      -2.503  12.206  19.234  0.00  0.00    +0.000 F 
ENDBRANCH  10  14
BRANCH   1  22
ATOM     21  N   UNL     1      -1.818  11.060  23.907  0.00  0.00    +0.000 NA
ATOM     22  C   UNL     1      -0.982  10.449  23.399  0.00  0.00    +0.000 C 
ENDBRANCH   1  22
BRANCH  12  23
ATOM     23  C   UNL     1       1.271   7.830  20.851  0.00  0.00    +0.000 C 
BRANCH  23  24
ATOM     24  C   UNL     1       1.887   6.696  20.049  0.00  0.00    +0.000 A 
ATOM     25  C   UNL     1       2.632   7.065  18.930  0.00  0.00    +0.000 A 
ATOM     26  N   UNL     1       3.293   5.950  18.487  0.00  0.00    +0.000 N 
ATOM     27  C   UNL     1       2.395   4.942  18.677  0.00  0.00    +0.000 A 
ATOM     28  C   UNL     1       2.178   3.793  17.912  0.00  0.00    +0.000 A 
ATOM     29  C   UNL     1       1.355   2.821  18.458  0.00  0.00    +0.000 A 
ATOM     30  C   UNL     1       0.899   2.960  19.773  0.00  0.00    +0.000 A 
ATOM     31  C   UNL     1       1.090   4.159  20.510  0.00  0.00    +0.000 A 
ATOM     32  C   UNL     1       1.757   5.241  19.895  0.00  0.00    +0.000 A 
ATOM     33  H   UNL     1       4.268   5.820  18.647  0.00  0.00    +0.000 HD
ENDBRANCH  23  24
ENDBRANCH  12  23
TORSDOF 4
ENDMDL
MODEL 8
REMARK VINA RESULT:      -7.9      2.936      6.753
REMARK  Name = 
REMARK  4 active torsions:
REMARK  status: ('A' for Active; 'I' for Inactive)
REMARK    1  A    between atoms: C_2  and  N_3
REMARK    2  A    between atoms: C_12  and  C_13
REMARK    3  A    between atoms: C_21  and  C_22
REMARK    4  A    between atoms: C_22  and  C_23
REMARK                            x       y       z     vdW  Elec       q    Type
REMARK                         _______ _______ _______ _____ _____    ______ ____
ROOT
ATOM      1  N   UNL     1      -0.345  13.576  21.919  0.00  0.00    +0.000 N 
ATOM      2  C   UNL     1      -0.519  13.050  20.656  0.00  0.00    +0.000 C 
ATOM      3  N   UNL     1      -1.621  12.432  20.342  0.00  0.00    +0.000 NA
ATOM      4  C   UNL     1      -1.754  11.682  19.164  0.00  0.00    +0.000 A 
ATOM      5  C   UNL     1      -3.036  11.639  18.594  0.00  0.00    +0.000 A 
ATOM      6  C   UNL     1      -3.310  10.797  17.517  0.00  0.00    +0.000 A 
ATOM      7  C   UNL     1      -2.364   9.976  16.976  0.00  0.00    +0.000 A 
ATOM      8  C   UNL     1      -1.080  10.020  17.514  0.00  0.00    +0.000 A 
ATOM      9  C   UNL     1      -0.769  10.841  18.623  0.00  0.00    +0.000 A 
ATOM     10  C   UNL     1       0.553  10.739  19.271  0.00  0.00    +0.000 C 
ATOM     11  N   UNL     1       1.258  11.755  19.673  0.00  0.00    +0.000 NA
ATOM     12  C   UNL     1       0.655  13.140  19.650  0.00  0.00    +0.000 C 
ATOM     13  H   UNL     1       0.612  13.753  22.191  0.00  0.00    +0.000 HD
ENDROOT
BRANCH  10  14
ATOM     14  C   UNL     1       1.134   9.351  19.459  0.00  0.00    +0.000 A 
ATOM     15  C   UNL     1       0.939   8.611  20.633  0.00  0.00    +0.000 A 
ATOM     16  C   UNL     1       1.530   7.343  20.813  0.00  0.00    +0.000 A 
ATOM     17  C   UNL     1       2.312   6.790  19.799  0.00  0.00    +0.000 A 
ATOM     18  C   UNL     1       2.522   7.492  18.609  0.00  0.00    +0.000 A 
ATOM     19  C   UNL     1       1.903   8.743  18.446  0.00  0.00    +0.000 A 
ATOM     20  F   UNL     1       2.101   9.344  17.268  0.00  0.00    +0.000 F 
ENDBRANCH  10  14
BRANCH   1  22
ATOM     21  N   UNL     1      -1.758  12.454  23.786  0.00  0.00    +0.000 NA
ATOM     22  C   UNL     1      -1.117  12.971  22.978  0.00  0.00    +0.000 C 
ENDBRANCH   1  22
BRANCH  12  23
ATOM     23  C   UNL     1       1.791  14.104  20.030  0.00  0.00    +0.000 C 
BRANCH  23  24
ATOM     24  C   UNL     1       2.980  14.563  19.202  0.00  0.00    +0.000 A 
ATOM     25  C   UNL     1       2.867  14.407  17.822  0.00  0.00    +0.000 A 
ATOM     26  N   UNL     1       3.908  15.083  17.243  0.00  0.00    +0.000 N 
ATOM     27  C   UNL     1       4.952  14.862  18.090  0.00  0.00    +0.000 A 
ATOM     28  C   UNL     1       6.310  14.709  17.801  0.00  0.00    +0.000 A 
ATOM     29  C   UNL     1       7.187  14.721  18.875  0.00  0.00    +0.000 A 
ATOM     30  C   UNL     1       6.707  15.017  20.155  0.00  0.00    +0.000 A 
ATOM     31  C   UNL     1       5.318  15.118  20.430  0.00  0.00    +0.000 A 
ATOM     32  C   UNL     1       4.395  14.910  19.381  0.00  0.00    +0.000 A 
ATOM     33  H   UNL     1       3.775  15.963  16.792  0.00  0.00    +0.000 HD
ENDBRANCH  23  24
ENDBRANCH  12  23
TORSDOF 4
ENDMDL
MODEL 9
REMARK VINA RESULT:      -7.9      1.907      2.783
REMARK  Name = 
REMARK  4 active torsions:
REMARK  status: ('A' for Active; 'I' for Inactive)
REMARK    1  A    between atoms: C_2  and  N_3
REMARK    2  A    between atoms: C_12  and  C_13
REMARK    3  A    between atoms: C_21  and  C_22
REMARK    4  A    between atoms: C_22  and  C_23
REMARK                            x       y       z     vdW  Elec       q    Type
REMARK                         _______ _______ _______ _____ _____    ______ ____
ROOT
ATOM      1  N   UNL     1      -1.077  10.770  23.003  0.00  0.00    +0.000 N 
ATOM      2  C   UNL     1      -0.508  11.408  21.921  0.00  0.00    +0.000 C 
ATOM      3  N   UNL     1      -0.748  12.667  21.694  0.00  0.00    +0.000 NA
ATOM      4  C   UNL     1      -0.392  13.297  20.492  0.00  0.00    +0.000 A 
ATOM      5  C   UNL     1      -0.064  14.659  20.575  0.00  0.00    +0.000 A 
ATOM      6  C   UNL     1       0.149  15.413  19.422  0.00  0.00    +0.000 A 
ATOM      7  C   UNL     1       0.042  14.877  18.172  0.00  0.00    +0.000 A 
ATOM      8  C   UNL     1      -0.261  13.523  18.069  0.00  0.00    +0.000 A 
ATOM      9  C   UNL     1      -0.510  12.730  19.214  0.00  0.00    +0.000 A 
ATOM     10  C   UNL     1      -0.990  11.342  19.062  0.00  0.00    +0.000 C 
ATOM     11  N   UNL     1      -0.567  10.334  19.766  0.00  0.00    +0.000 NA
ATOM     12  C   UNL     1       0.352  10.575  20.940  0.00  0.00    +0.000 C 
ATOM     13  H   UNL     1      -1.110   9.761  22.948  0.00  0.00    +0.000 HD
ENDROOT
BRANCH  10  14
ATOM     14  C   UNL     1      -2.035  11.077  17.996  0.00  0.00    +0.000 A 
ATOM     15  C   UNL     1      -1.771  10.287  16.869  0.00  0.00    +0.000 A 
ATOM     16  C   UNL     1      -2.737  10.093  15.860  0.00  0.00    +0.000 A 
ATOM     17  C   UNL     1      -3.998  10.678  15.982  0.00  0.00    +0.000 A 
ATOM     18  C   UNL     1      -4.303  11.465  17.097  0.00  0.00    +0.000 A 
ATOM     19  C   UNL     1      -3.330  11.623  18.099  0.00  0.00    +0.000 A 
ATOM     20  F   UNL     1      -3.698  12.346  19.161  0.00  0.00    +0.000 F 
ENDBRANCH  10  14
BRANCH   1  22
ATOM     21  N   UNL     1      -3.263  11.785  23.968  0.00  0.00    +0.000 NA
ATOM     22  C   UNL     1      -2.304  11.336  23.511  0.00  0.00    +0.000 C 
ENDBRANCH   1  22
BRANCH  12  23
ATOM     23  C   UNL     1       0.778   9.183  21.438  0.00  0.00    +0.000 C 
BRANCH  23  24
ATOM     24  C   UNL     1       1.312   8.001  20.647  0.00  0.00    +0.000 A 
ATOM     25  C   UNL     1       1.469   6.808  21.351  0.00  0.00    +0.000 A 
ATOM     26  N   UNL     1       1.723   5.819  20.438  0.00  0.00    +0.000 N 
ATOM     27  C   UNL     1       2.516   6.427  19.511  0.00  0.00    +0.000 A 
ATOM     28  C   UNL     1       3.569   5.896  18.761  0.00  0.00    +0.000 A 
ATOM     29  C   UNL     1       4.058   6.677  17.725  0.00  0.00    +0.000 A 
ATOM     30  C   UNL     1       3.408   7.870  17.391  0.00  0.00    +0.000 A 
ATOM     31  C   UNL     1       2.375   8.411  18.200  0.00  0.00    +0.000 A 
ATOM     32  C   UNL     1       1.996   7.727  19.376  0.00  0.00    +0.000 A 
ATOM     33  H   UNL     1       1.027   5.155  20.177  0.00  0.00    +0.000 HD
ENDBRANCH  23  24
ENDBRANCH  12  23
TORSDOF 4
ENDMDL
