MODEL 1
REMARK VINA RESULT:      -6.5      0.000      0.000
REMARK  Name = 
REMARK  9 active torsions:
REMARK  status: ('A' for Active; 'I' for Inactive)
REMARK    1  A    between atoms: C_1  and  C_2
REMARK    2  A    between atoms: C_2  and  C_3
REMARK    3  A    between atoms: C_2  and  O_13
REMARK    4  A    between atoms: C_3  and  N_4
REMARK    5  A    between atoms: N_4  and  C_5
REMARK    6  A    between atoms: N_4  and  C_6
REMARK    7  A    between atoms: C_6  and  C_7
REMARK    8  A    between atoms: O_13  and  C_14
REMARK    9  A    between atoms: C_14  and  C_16
REMARK                            x       y       z     vdW  Elec       q    Type
REMARK                         _______ _______ _______ _____ _____    ______ ____
ROOT
ATOM      1  C   UNL     1       1.857   8.889  18.233  0.00  0.00    +0.000 C 
ATOM      2  C   UNL     1       2.506   7.504  18.313  0.00  0.00    +0.000 C 
ENDROOT
BRANCH   2   3
ATOM      3  C   UNL     1       3.822   7.524  17.523  0.00  0.00    +0.000 C 
BRANCH   3   4
ATOM      4  N   UNL     1       4.277   6.177  17.082  0.00  0.00    +0.000 NA
ATOM      5  C   UNL     1       5.164   6.264  15.906  0.00  0.00    +0.000 C 
BRANCH   4   6
ATOM      6  C   UNL     1       4.953   5.476  18.198  0.00  0.00    +0.000 C 
BRANCH   6   7
ATOM      7  C   UNL     1       4.432   4.064  18.294  0.00  0.00    +0.000 A 
ATOM      8  C   UNL     1       4.845   3.242  19.356  0.00  0.00    +0.000 A 
ATOM      9  C   UNL     1       4.445   1.904  19.403  0.00  0.00    +0.000 A 
ATOM     10  C   UNL     1       3.633   1.380  18.391  0.00  0.00    +0.000 A 
ATOM     11  C   UNL     1       3.211   2.198  17.338  0.00  0.00    +0.000 A 
ATOM     12  C   UNL     1       3.604   3.537  17.290  0.00  0.00    +0.000 A 
ENDBRANCH   6   7
ENDBRANCH   4   6
ENDBRANCH   3   4
ENDBRANCH   2   3
BRANCH   2  13
ATOM     13  O   UNL     1       2.762   7.195  19.645  0.00  0.00    +0.000 OA
BRANCH  13  14
ATOM     14  C   UNL     1       1.853   6.667  20.513  0.00  0.00    +0.000 C 
ATOM     15  O   UNL     1       1.166   7.399  21.207  0.00  0.00    +0.000 OA
BRANCH  14  16
ATOM     16  C   UNL     1       1.696   5.191  20.625  0.00  0.00    +0.000 A 
ATOM     17  C   UNL     1       2.261   4.479  21.695  0.00  0.00    +0.000 A 
ATOM     18  C   UNL     1       2.103   3.087  21.783  0.00  0.00    +0.000 A 
ATOM     19  C   UNL     1       1.384   2.398  20.804  0.00  0.00    +0.000 A 
ATOM     20  C   UNL     1       0.818   3.097  19.736  0.00  0.00    +0.000 A 
ATOM     21  F   UNL     1       0.123   2.427  18.782  0.00  0.00    +0.000 F 
ATOM     22  C   UNL     1       0.970   4.482  19.643  0.00  0.00    +0.000 A 
ENDBRANCH  14  16
ENDBRANCH  13  14
ENDBRANCH   2  13
TORSDOF 7
ENDMDL
MODEL 2
REMARK VINA RESULT:      -6.2      2.962      6.304
REMARK  Name = 
REMARK  9 active torsions:
REMARK  status: ('A' for Active; 'I' for Inactive)
REMARK    1  A    between atoms: C_1  and  C_2
REMARK    2  A    between atoms: C_2  and  C_3
REMARK    3  A    between atoms: C_2  and  O_13
REMARK    4  A    between atoms: C_3  and  N_4
REMARK    5  A    between atoms: N_4  and  C_5
REMARK    6  A    between atoms: N_4  and  C_6
REMARK    7  A    between atoms: C_6  and  C_7
REMARK    8  A    between atoms: O_13  and  C_14
REMARK    9  A    between atoms: C_14  and  C_16
REMARK                            x       y       z     vdW  Elec       q    Type
REMARK                         _______ _______ _______ _____ _____    ______ ____
ROOT
ATOM      1  C   UNL     1       3.586   1.437  18.538  0.00  0.00    +0.000 C 
ATOM      2  C   UNL     1       3.540   2.927  18.188  0.00  0.00    +0.000 C 
ENDROOT
BRANCH   2   3
ATOM      3  C   UNL     1       3.334   3.735  19.476  0.00  0.00    +0.000 C 
BRANCH   3   4
ATOM      4  N   UNL     1       2.077   4.533  19.490  0.00  0.00    +0.000 NA
ATOM      5  C   UNL     1       0.912   3.699  19.842  0.00  0.00    +0.000 C 
BRANCH   4   6
ATOM      6  C   UNL     1       2.207   5.675  20.425  0.00  0.00    +0.000 C 
BRANCH   6   7
ATOM      7  C   UNL     1       2.167   6.967  19.650  0.00  0.00    +0.000 A 
ATOM      8  C   UNL     1       1.515   8.085  20.195  0.00  0.00    +0.000 A 
ATOM      9  C   UNL     1       1.388   9.257  19.446  0.00  0.00    +0.000 A 
ATOM     10  C   UNL     1       1.910   9.319  18.149  0.00  0.00    +0.000 A 
ATOM     11  C   UNL     1       2.570   8.212  17.606  0.00  0.00    +0.000 A 
ATOM     12  C   UNL     1       2.704   7.040  18.354  0.00  0.00    +0.000 A 
ENDBRANCH   6   7
ENDBRANCH   4   6
ENDBRANCH   3   4
ENDBRANCH   2   3
BRANCH   2  13
ATOM     13  O   UNL     1       4.739   3.295  17.588  0.00  0.00    +0.000 OA
BRANCH  13  14
ATOM     14  C   UNL     1       4.981   4.499  16.997  0.00  0.00    +0.000 C 
ATOM     15  O   UNL     1       4.326   4.854  16.030  0.00  0.00    +0.000 OA
BRANCH  14  16
ATOM     16  C   UNL     1       6.051   5.388  17.524  0.00  0.00    +0.000 A 
ATOM     17  C   UNL     1       6.261   6.670  16.990  0.00  0.00    +0.000 A 
ATOM     18  C   UNL     1       7.276   7.493  17.500  0.00  0.00    +0.000 A 
ATOM     19  C   UNL     1       8.088   7.043  18.543  0.00  0.00    +0.000 A 
ATOM     20  C   UNL     1       7.888   5.771  19.082  0.00  0.00    +0.000 A 
ATOM     21  F   UNL     1       8.679   5.332  20.093  0.00  0.00    +0.000 F 
ATOM     22  C   UNL     1       6.878   4.946  18.580  0.00  0.00    +0.000 A 
ENDBRANCH  14  16
ENDBRANCH  13  14
ENDBRANCH   2  13
TORSDOF 7
ENDMDL
MODEL 3
REMARK VINA RESULT:      -6.2      3.238      6.040
REMARK  Name = 
REMARK  9 active torsions:
REMARK  status: ('A' for Active; 'I' for Inactive)
REMARK    1  A    between atoms: C_1  and  C_2
REMARK    2  A    between atoms: C_2  and  C_3
REMARK    3  A    between atoms: C_2  and  O_13
REMARK    4  A    between atoms: C_3  and  N_4
REMARK    5  A    between atoms: N_4  and  C_5
REMARK    6  A    between atoms: N_4  and  C_6
REMARK    7  A    between atoms: C_6  and  C_7
REMARK    8  A    between atoms: O_13  and  C_14
REMARK    9  A    between atoms: C_14  and  C_16
REMARK                            x       y       z     vdW  Elec       q    Type
REMARK                         _______ _______ _______ _____ _____    ______ ____
ROOT
ATOM      1  C   UNL     1       6.744   7.293  17.314  0.00  0.00    +0.000 C 
ATOM      2  C   UNL     1       5.718   6.227  17.708  0.00  0.00    +0.000 C 
ENDROOT
BRANCH   2   3
ATOM      3  C   UNL     1       4.378   6.551  17.033  0.00  0.00    +0.000 C 
BRANCH   3   4
ATOM      4  N   UNL     1       3.247   6.708  17.988  0.00  0.00    +0.000 NA
ATOM      5  C   UNL     1       2.725   8.088  17.983  0.00  0.00    +0.000 C 
BRANCH   4   6
ATOM      6  C   UNL     1       2.172   5.739  17.671  0.00  0.00    +0.000 C 
BRANCH   6   7
ATOM      7  C   UNL     1       2.018   4.768  18.814  0.00  0.00    +0.000 A 
ATOM      8  C   UNL     1       1.338   3.556  18.609  0.00  0.00    +0.000 A 
ATOM      9  C   UNL     1       1.105   2.693  19.683  0.00  0.00    +0.000 A 
ATOM     10  C   UNL     1       1.549   3.036  20.965  0.00  0.00    +0.000 A 
ATOM     11  C   UNL     1       2.236   4.236  21.171  0.00  0.00    +0.000 A 
ATOM     12  C   UNL     1       2.476   5.099  20.100  0.00  0.00    +0.000 A 
ENDBRANCH   6   7
ENDBRANCH   4   6
ENDBRANCH   3   4
ENDBRANCH   2   3
BRANCH   2  13
ATOM     13  O   UNL     1       6.168   4.980  17.287  0.00  0.00    +0.000 OA
BRANCH  13  14
ATOM     14  C   UNL     1       5.579   4.222  16.320  0.00  0.00    +0.000 C 
ATOM     15  O   UNL     1       4.627   3.508  16.591  0.00  0.00    +0.000 OA
BRANCH  14  16
ATOM     16  C   UNL     1       6.098   4.254  14.926  0.00  0.00    +0.000 A 
ATOM     17  C   UNL     1       7.230   5.015  14.588  0.00  0.00    +0.000 A 
ATOM     18  C   UNL     1       7.704   5.033  13.268  0.00  0.00    +0.000 A 
ATOM     19  C   UNL     1       7.052   4.296  12.277  0.00  0.00    +0.000 A 
ATOM     20  C   UNL     1       5.927   3.536  12.601  0.00  0.00    +0.000 A 
ATOM     21  F   UNL     1       5.290   2.823  11.638  0.00  0.00    +0.000 F 
ATOM     22  C   UNL     1       5.450   3.512  13.915  0.00  0.00    +0.000 A 
ENDBRANCH  14  16
ENDBRANCH  13  14
ENDBRANCH   2  13
TORSDOF 7
ENDMDL
MODEL 4
REMARK VINA RESULT:      -6.1      2.333      4.763
REMARK  Name = 
REMARK  9 active torsions:
REMARK  status: ('A' for Active; 'I' for Inactive)
REMARK    1  A    between atoms: C_1  and  C_2
REMARK    2  A    between atoms: C_2  and  C_3
REMARK    3  A    between atoms: C_2  and  O_13
REMARK    4  A    between atoms: C_3  and  N_4
REMARK    5  A    between atoms: N_4  and  C_5
REMARK    6  A    between atoms: N_4  and  C_6
REMARK    7  A    between atoms: C_6  and  C_7
REMARK    8  A    between atoms: O_13  and  C_14
REMARK    9  A    between atoms: C_14  and  C_16
REMARK                            x       y       z     vdW  Elec       q    Type
REMARK                         _______ _______ _______ _____ _____    ______ ____
ROOT
ATOM      1  C   UNL     1       0.788   3.119  20.181  0.00  0.00    +0.000 C 
ATOM      2  C   UNL     1       2.184   3.695  19.931  0.00  0.00    +0.000 C 
ENDROOT
BRANCH   2   3
ATOM      3  C   UNL     1       2.448   3.726  18.419  0.00  0.00    +0.000 C 
BRANCH   3   4
ATOM      4  N   UNL     1       3.733   3.090  18.021  0.00  0.00    +0.000 NA
ATOM      5  C   UNL     1       3.617   1.620  17.973  0.00  0.00    +0.000 C 
BRANCH   4   6
ATOM      6  C   UNL     1       4.184   3.623  16.714  0.00  0.00    +0.000 C 
BRANCH   6   7
ATOM      7  C   UNL     1       5.261   4.654  16.936  0.00  0.00    +0.000 A 
ATOM      8  C   UNL     1       6.411   4.311  17.666  0.00  0.00    +0.000 A 
ATOM      9  C   UNL     1       7.371   5.282  17.960  0.00  0.00    +0.000 A 
ATOM     10  C   UNL     1       7.187   6.601  17.528  0.00  0.00    +0.000 A 
ATOM     11  C   UNL     1       6.050   6.944  16.791  0.00  0.00    +0.000 A 
ATOM     12  C   UNL     1       5.091   5.975  16.490  0.00  0.00    +0.000 A 
ENDBRANCH   6   7
ENDBRANCH   4   6
ENDBRANCH   3   4
ENDBRANCH   2   3
BRANCH   2  13
ATOM     13  O   UNL     1       2.247   4.985  20.446  0.00  0.00    +0.000 OA
BRANCH  13  14
ATOM     14  C   UNL     1       2.991   6.001  19.925  0.00  0.00    +0.000 C 
ATOM     15  O   UNL     1       4.201   5.885  19.816  0.00  0.00    +0.000 OA
BRANCH  14  16
ATOM     16  C   UNL     1       2.333   7.263  19.490  0.00  0.00    +0.000 A 
ATOM     17  C   UNL     1       2.435   7.717  18.165  0.00  0.00    +0.000 A 
ATOM     18  C   UNL     1       1.808   8.910  17.774  0.00  0.00    +0.000 A 
ATOM     19  C   UNL     1       1.078   9.656  18.701  0.00  0.00    +0.000 A 
ATOM     20  C   UNL     1       0.969   9.213  20.020  0.00  0.00    +0.000 A 
ATOM     21  F   UNL     1       0.263   9.940  20.922  0.00  0.00    +0.000 F 
ATOM     22  C   UNL     1       1.590   8.026  20.416  0.00  0.00    +0.000 A 
ENDBRANCH  14  16
ENDBRANCH  13  14
ENDBRANCH   2  13
TORSDOF 7
ENDMDL
MODEL 5
REMARK VINA RESULT:      -6.0      2.061      4.444
REMARK  Name = 
REMARK  9 active torsions:
REMARK  status: ('A' for Active; 'I' for Inactive)
REMARK    1  A    between atoms: C_1  and  C_2
REMARK    2  A    between atoms: C_2  and  C_3
REMARK    3  A    between atoms: C_2  and  O_13
REMARK    4  A    between atoms: C_3  and  N_4
REMARK    5  A    between atoms: N_4  and  C_5
REMARK    6  A    between atoms: N_4  and  C_6
REMARK    7  A    between atoms: C_6  and  C_7
REMARK    8  A    between atoms: O_13  and  C_14
REMARK    9  A    between atoms: C_14  and  C_16
REMARK                            x       y       z     vdW  Elec       q    Type
REMARK                         _______ _______ _______ _____ _____    ______ ____
ROOT
ATOM      1  C   UNL     1       6.937   5.171  19.707  0.00  0.00    +0.000 C 
ATOM      2  C   UNL     1       5.625   4.776  19.023  0.00  0.00    +0.000 C 
ENDROOT
BRANCH   2   3
ATOM      3  C   UNL     1       5.638   5.298  17.580  0.00  0.00    +0.000 C 
BRANCH   3   4
ATOM      4  N   UNL     1       4.679   6.409  17.335  0.00  0.00    +0.000 NA
ATOM      5  C   UNL     1       4.777   6.912  15.951  0.00  0.00    +0.000 C 
BRANCH   4   6
ATOM      6  C   UNL     1       3.297   5.967  17.635  0.00  0.00    +0.000 C 
BRANCH   6   7
ATOM      7  C   UNL     1       2.555   7.078  18.335  0.00  0.00    +0.000 A 
ATOM      8  C   UNL     1       2.230   8.248  17.630  0.00  0.00    +0.000 A 
ATOM      9  C   UNL     1       1.629   9.321  18.292  0.00  0.00    +0.000 A 
ATOM     10  C   UNL     1       1.351   9.232  19.660  0.00  0.00    +0.000 A 
ATOM     11  C   UNL     1       1.662   8.065  20.364  0.00  0.00    +0.000 A 
ATOM     12  C   UNL     1       2.258   6.988  19.705  0.00  0.00    +0.000 A 
ENDBRANCH   6   7
ENDBRANCH   4   6
ENDBRANCH   3   4
ENDBRANCH   2   3
BRANCH   2  13
ATOM     13  O   UNL     1       5.507   3.391  19.022  0.00  0.00    +0.000 OA
BRANCH  13  14
ATOM     14  C   UNL     1       4.745   2.670  19.893  0.00  0.00    +0.000 C 
ATOM     15  O   UNL     1       5.255   1.810  20.592  0.00  0.00    +0.000 OA
BRANCH  14  16
ATOM     16  C   UNL     1       3.282   2.924  19.992  0.00  0.00    +0.000 A 
ATOM     17  C   UNL     1       2.754   3.748  20.999  0.00  0.00    +0.000 A 
ATOM     18  C   UNL     1       1.371   3.975  21.076  0.00  0.00    +0.000 A 
ATOM     19  C   UNL     1       0.509   3.380  20.153  0.00  0.00    +0.000 A 
ATOM     20  C   UNL     1       1.024   2.560  19.147  0.00  0.00    +0.000 A 
ATOM     21  F   UNL     1       0.186   1.979  18.252  0.00  0.00    +0.000 F 
ATOM     22  C   UNL     1       2.399   2.331  19.063  0.00  0.00    +0.000 A 
ENDBRANCH  14  16
ENDBRANCH  13  14
ENDBRANCH   2  13
TORSDOF 7
ENDMDL
MODEL 6
REMARK VINA RESULT:      -6.0      3.310      6.840
REMARK  Name = 
REMARK  9 active torsions:
REMARK  status: ('A' for Active; 'I' for Inactive)
REMARK    1  A    between atoms: C_1  and  C_2
REMARK    2  A    between atoms: C_2  and  C_3
REMARK    3  A    between atoms: C_2  and  O_13
REMARK    4  A    between atoms: C_3  and  N_4
REMARK    5  A    between atoms: N_4  and  C_5
REMARK    6  A    between atoms: N_4  and  C_6
REMARK    7  A    between atoms: C_6  and  C_7
REMARK    8  A    between atoms: O_13  and  C_14
REMARK    9  A    between atoms: C_14  and  C_16
REMARK                            x       y       z     vdW  Elec       q    Type
REMARK                         _______ _______ _______ _____ _____    ______ ____
ROOT
ATOM      1  C   UNL     1       6.906   4.828  17.563  0.00  0.00    +0.000 C 
ATOM      2  C   UNL     1       5.597   4.060  17.357  0.00  0.00    +0.000 C 
ENDROOT
BRANCH   2   3
ATOM      3  C   UNL     1       4.839   4.001  18.690  0.00  0.00    +0.000 C 
BRANCH   3   4
ATOM      4  N   UNL     1       3.469   4.579  18.627  0.00  0.00    +0.000 NA
ATOM      5  C   UNL     1       2.442   3.525  18.518  0.00  0.00    +0.000 C 
BRANCH   4   6
ATOM      6  C   UNL     1       3.220   5.433  19.812  0.00  0.00    +0.000 C 
BRANCH   6   7
ATOM      7  C   UNL     1       2.704   6.777  19.363  0.00  0.00    +0.000 A 
ATOM      8  C   UNL     1       1.898   7.536  20.227  0.00  0.00    +0.000 A 
ATOM      9  C   UNL     1       1.335   8.736  19.788  0.00  0.00    +0.000 A 
ATOM     10  C   UNL     1       1.573   9.185  18.484  0.00  0.00    +0.000 A 
ATOM     11  C   UNL     1       2.384   8.439  17.624  0.00  0.00    +0.000 A 
ATOM     12  C   UNL     1       2.953   7.241  18.060  0.00  0.00    +0.000 A 
ENDBRANCH   6   7
ENDBRANCH   4   6
ENDBRANCH   3   4
ENDBRANCH   2   3
BRANCH   2  13
ATOM     13  O   UNL     1       4.826   4.717  16.405  0.00  0.00    +0.000 OA
BRANCH  13  14
ATOM     14  C   UNL     1       5.317   5.509  15.411  0.00  0.00    +0.000 C 
ATOM     15  O   UNL     1       5.249   6.725  15.501  0.00  0.00    +0.000 OA
BRANCH  14  16
ATOM     16  C   UNL     1       5.937   4.897  14.204  0.00  0.00    +0.000 A 
ATOM     17  C   UNL     1       7.220   5.275  13.774  0.00  0.00    +0.000 A 
ATOM     18  C   UNL     1       7.787   4.687  12.634  0.00  0.00    +0.000 A 
ATOM     19  C   UNL     1       7.079   3.721  11.915  0.00  0.00    +0.000 A 
ATOM     20  C   UNL     1       5.805   3.337  12.335  0.00  0.00    +0.000 A 
ATOM     21  F   UNL     1       5.115   2.401  11.635  0.00  0.00    +0.000 F 
ATOM     22  C   UNL     1       5.234   3.918  13.470  0.00  0.00    +0.000 A 
ENDBRANCH  14  16
ENDBRANCH  13  14
ENDBRANCH   2  13
TORSDOF 7
ENDMDL
MODEL 7
REMARK VINA RESULT:      -5.9      4.101      6.635
REMARK  Name = 
REMARK  9 active torsions:
REMARK  status: ('A' for Active; 'I' for Inactive)
REMARK    1  A    between atoms: C_1  and  C_2
REMARK    2  A    between atoms: C_2  and  C_3
REMARK    3  A    between atoms: C_2  and  O_13
REMARK    4  A    between atoms: C_3  and  N_4
REMARK    5  A    between atoms: N_4  and  C_5
REMARK    6  A    between atoms: N_4  and  C_6
REMARK    7  A    between atoms: C_6  and  C_7
REMARK    8  A    between atoms: O_13  and  C_14
REMARK    9  A    between atoms: C_14  and  C_16
REMARK                            x       y       z     vdW  Elec       q    Type
REMARK                         _______ _______ _______ _____ _____    ______ ____
ROOT
ATOM      1  C   UNL     1       5.638   3.700  16.153  0.00  0.00    +0.000 C 
ATOM      2  C   UNL     1       5.216   5.160  15.969  0.00  0.00    +0.000 C 
ENDROOT
BRANCH   2   3
ATOM      3  C   UNL     1       5.756   5.986  17.145  0.00  0.00    +0.000 C 
BRANCH   3   4
ATOM      4  N   UNL     1       5.748   5.258  18.443  0.00  0.00    +0.000 NA
ATOM      5  C   UNL     1       6.969   5.535  19.224  0.00  0.00    +0.000 C 
BRANCH   4   6
ATOM      6  C   UNL     1       4.537   5.611  19.220  0.00  0.00    +0.000 C 
BRANCH   6   7
ATOM      7  C   UNL     1       3.483   4.553  19.016  0.00  0.00    +0.000 A 
ATOM      8  C   UNL     1       3.727   3.238  19.443  0.00  0.00    +0.000 A 
ATOM      9  C   UNL     1       2.798   2.229  19.173  0.00  0.00    +0.000 A 
ATOM     10  C   UNL     1       1.623   2.529  18.475  0.00  0.00    +0.000 A 
ATOM     11  C   UNL     1       1.370   3.839  18.058  0.00  0.00    +0.000 A 
ATOM     12  C   UNL     1       2.293   4.851  18.331  0.00  0.00    +0.000 A 
ENDBRANCH   6   7
ENDBRANCH   4   6
ENDBRANCH   3   4
ENDBRANCH   2   3
BRANCH   2  13
ATOM     13  O   UNL     1       5.741   5.642  14.775  0.00  0.00    +0.000 OA
BRANCH  13  14
ATOM     14  C   UNL     1       6.707   5.023  14.040  0.00  0.00    +0.000 C 
ATOM     15  O   UNL     1       7.885   5.279  14.230  0.00  0.00    +0.000 OA
BRANCH  14  16
ATOM     16  C   UNL     1       6.332   4.034  12.993  0.00  0.00    +0.000 A 
ATOM     17  C   UNL     1       7.300   3.224  12.377  0.00  0.00    +0.000 A 
ATOM     18  C   UNL     1       6.926   2.298  11.392  0.00  0.00    +0.000 A 
ATOM     19  C   UNL     1       5.587   2.175  11.014  0.00  0.00    +0.000 A 
ATOM     20  C   UNL     1       4.617   2.974  11.621  0.00  0.00    +0.000 A 
ATOM     21  F   UNL     1       3.316   2.858  11.252  0.00  0.00    +0.000 F 
ATOM     22  C   UNL     1       4.982   3.898  12.604  0.00  0.00    +0.000 A 
ENDBRANCH  14  16
ENDBRANCH  13  14
ENDBRANCH   2  13
TORSDOF 7
ENDMDL
MODEL 8
REMARK VINA RESULT:      -5.9      4.234      6.876
REMARK  Name = 
REMARK  9 active torsions:
REMARK  status: ('A' for Active; 'I' for Inactive)
REMARK    1  A    between atoms: C_1  and  C_2
REMARK    2  A    between atoms: C_2  and  C_3
REMARK    3  A    between atoms: C_2  and  O_13
REMARK    4  A    between atoms: C_3  and  N_4
REMARK    5  A    between atoms: N_4  and  C_5
REMARK    6  A    between atoms: N_4  and  C_6
REMARK    7  A    between atoms: C_6  and  C_7
REMARK    8  A    between atoms: O_13  and  C_14
REMARK    9  A    between atoms: C_14  and  C_16
REMARK                            x       y       z     vdW  Elec       q    Type
REMARK                         _______ _______ _______ _____ _____    ______ ____
ROOT
ATOM      1  C   UNL     1       6.852   5.159  17.137  0.00  0.00    +0.000 C 
ATOM      2  C   UNL     1       5.666   5.363  16.190  0.00  0.00    +0.000 C 
ENDROOT
BRANCH   2   3
ATOM      3  C   UNL     1       4.685   6.357  16.827  0.00  0.00    +0.000 C 
BRANCH   3   4
ATOM      4  N   UNL     1       3.904   5.787  17.958  0.00  0.00    +0.000 NA
ATOM      5  C   UNL     1       2.897   6.744  18.455  0.00  0.00    +0.000 C 
BRANCH   4   6
ATOM      6  C   UNL     1       3.262   4.516  17.547  0.00  0.00    +0.000 C 
BRANCH   6   7
ATOM      7  C   UNL     1       2.666   3.840  18.756  0.00  0.00    +0.000 A 
ATOM      8  C   UNL     1       1.271   3.745  18.883  0.00  0.00    +0.000 A 
ATOM      9  C   UNL     1       0.707   3.208  20.042  0.00  0.00    +0.000 A 
ATOM     10  C   UNL     1       1.532   2.764  21.081  0.00  0.00    +0.000 A 
ATOM     11  C   UNL     1       2.922   2.845  20.955  0.00  0.00    +0.000 A 
ATOM     12  C   UNL     1       3.491   3.377  19.795  0.00  0.00    +0.000 A 
ENDBRANCH   6   7
ENDBRANCH   4   6
ENDBRANCH   3   4
ENDBRANCH   2   3
BRANCH   2  13
ATOM     13  O   UNL     1       6.128   5.867  14.979  0.00  0.00    +0.000 OA
BRANCH  13  14
ATOM     14  C   UNL     1       6.969   5.213  14.130  0.00  0.00    +0.000 C 
ATOM     15  O   UNL     1       8.168   5.445  14.149  0.00  0.00    +0.000 OA
BRANCH  14  16
ATOM     16  C   UNL     1       6.431   4.213  13.167  0.00  0.00    +0.000 A 
ATOM     17  C   UNL     1       5.048   4.044  12.992  0.00  0.00    +0.000 A 
ATOM     18  C   UNL     1       4.560   3.096  12.080  0.00  0.00    +0.000 A 
ATOM     19  C   UNL     1       5.447   2.311  11.340  0.00  0.00    +0.000 A 
ATOM     20  C   UNL     1       6.823   2.473  11.505  0.00  0.00    +0.000 A 
ATOM     21  F   UNL     1       7.685   1.708  10.789  0.00  0.00    +0.000 F 
ATOM     22  C   UNL     1       7.316   3.415  12.411  0.00  0.00    +0.000 A 
ENDBRANCH  14  16
ENDBRANCH  13  14
ENDBRANCH   2  13
TORSDOF 7
ENDMDL
MODEL 9
REMARK VINA RESULT:      -5.9      3.243      6.360
REMARK  Name = 
REMARK  9 active torsions:
REMARK  status: ('A' for Active; 'I' for Inactive)
REMARK    1  A    between atoms: C_1  and  C_2
REMARK    2  A    between atoms: C_2  and  C_3
REMARK    3  A    between atoms: C_2  and  O_13
REMARK    4  A    between atoms: C_3  and  N_4
REMARK    5  A    between atoms: N_4  and  C_5
REMARK    6  A    between atoms: N_4  and  C_6
REMARK    7  A    between atoms: C_6  and  C_7
REMARK    8  A    between atoms: O_13  and  C_14
REMARK    9  A    between atoms: C_14  and  C_16
REMARK                            x       y       z     vdW  Elec       q    Type
REMARK                         _______ _______ _______ _____ _____    ______ ____
ROOT
ATOM      1  C   UNL     1       3.323   3.544  16.733  0.00  0.00    +0.000 C 
ATOM      2  C   UNL     1       4.245   4.722  17.061  0.00  0.00    +0.000 C 
ENDROOT
BRANCH   2   3
ATOM      3  C   UNL     1       4.158   5.018  18.565  0.00  0.00    +0.000 C 
BRANCH   3   4
ATOM      4  N   UNL     1       3.741   6.413  18.878  0.00  0.00    +0.000 NA
ATOM      5  C   UNL     1       3.776   7.270  17.677  0.00  0.00    +0.000 C 
BRANCH   4   6
ATOM      6  C   UNL     1       2.391   6.418  19.486  0.00  0.00    +0.000 C 
BRANCH   6   7
ATOM      7  C   UNL     1       2.062   5.035  19.991  0.00  0.00    +0.000 A 
ATOM      8  C   UNL     1       1.236   4.195  19.227  0.00  0.00    +0.000 A 
ATOM      9  C   UNL     1       0.846   2.950  19.728  0.00  0.00    +0.000 A 
ATOM     10  C   UNL     1       1.278   2.539  20.994  0.00  0.00    +0.000 A 
ATOM     11  C   UNL     1       2.110   3.368  21.753  0.00  0.00    +0.000 A 
ATOM     12  C   UNL     1       2.506   4.610  21.254  0.00  0.00    +0.000 A 
ENDBRANCH   6   7
ENDBRANCH   4   6
ENDBRANCH   3   4
ENDBRANCH   2   3
BRANCH   2  13
ATOM     13  O   UNL     1       5.551   4.390  16.721  0.00  0.00    +0.000 OA
BRANCH  13  14
ATOM     14  C   UNL     1       6.376   5.153  15.950  0.00  0.00    +0.000 C 
ATOM     15  O   UNL     1       6.918   6.142  16.418  0.00  0.00    +0.000 OA
BRANCH  14  16
ATOM     16  C   UNL     1       6.618   4.789  14.527  0.00  0.00    +0.000 A 
ATOM     17  C   UNL     1       7.626   5.417  13.777  0.00  0.00    +0.000 A 
ATOM     18  C   UNL     1       7.839   5.061  12.437  0.00  0.00    +0.000 A 
ATOM     19  C   UNL     1       7.047   4.079  11.837  0.00  0.00    +0.000 A 
ATOM     20  C   UNL     1       6.044   3.448  12.574  0.00  0.00    +0.000 A 
ATOM     21  F   UNL     1       5.272   2.497  11.990  0.00  0.00    +0.000 F 
ATOM     22  C   UNL     1       5.827   3.797  13.909  0.00  0.00    +0.000 A 
ENDBRANCH  14  16
ENDBRANCH  13  14
ENDBRANCH   2  13
TORSDOF 7
ENDMDL
