MODEL 1
REMARK VINA RESULT:      -9.4      0.000      0.000
REMARK  Name = 
REMARK  8 active torsions:
REMARK  status: ('A' for Active; 'I' for Inactive)
REMARK    1  A    between atoms: C_5  and  C_6
REMARK    2  A    between atoms: C_6  and  C_7
REMARK    3  A    between atoms: C_6  and  C_14
REMARK    4  A    between atoms: N_17  and  C_18
REMARK    5  A    between atoms: C_18  and  C_19
REMARK    6  A    between atoms: C_19  and  C_20
REMARK    7  A    between atoms: C_20  and  O_21
REMARK    8  A    between atoms: O_21  and  C_22
REMARK                            x       y       z     vdW  Elec       q    Type
REMARK                         _______ _______ _______ _____ _____    ______ ____
ROOT
ATOM      1  C   UNL     1       2.324   6.862  18.389  0.00  0.00    +0.000 C 
ATOM      2  C   UNL     1       2.235   7.329  19.843  0.00  0.00    +0.000 C 
ATOM      3  C   UNL     1       1.283   8.514  19.911  0.00  0.00    +0.000 C 
ATOM      4  N   UNL     1       1.647   9.617  19.005  0.00  0.00    +0.000 NA
ATOM      5  C   UNL     1       2.027   9.188  17.642  0.00  0.00    +0.000 C 
ATOM      6  C   UNL     1       3.005   7.987  17.610  0.00  0.00    +0.000 C 
ENDROOT
BRANCH   1   7
ATOM      7  C   UNL     1       2.776   5.390  18.187  0.00  0.00    +0.000 C 
BRANCH   7  12
ATOM      8  F   UNL     1       8.237   4.328  17.072  0.00  0.00    +0.000 F 
ATOM      9  C   UNL     1       6.955   4.628  17.315  0.00  0.00    +0.000 A 
ATOM     10  C   UNL     1       5.978   4.266  16.398  0.00  0.00    +0.000 A 
ATOM     11  C   UNL     1       4.636   4.558  16.666  0.00  0.00    +0.000 A 
ATOM     12  C   UNL     1       4.260   5.204  17.860  0.00  0.00    +0.000 A 
ATOM     13  C   UNL     1       5.274   5.560  18.767  0.00  0.00    +0.000 A 
ATOM     14  C   UNL     1       6.615   5.281  18.493  0.00  0.00    +0.000 A 
ENDBRANCH   7  12
BRANCH   7  15
ATOM     15  C   UNL     1       2.251   4.470  19.332  0.00  0.00    +0.000 A 
ATOM     16  C   UNL     1       2.815   4.486  20.632  0.00  0.00    +0.000 A 
ATOM     17  C   UNL     1       2.325   3.689  21.666  0.00  0.00    +0.000 A 
ATOM     18  C   UNL     1       1.241   2.868  21.424  0.00  0.00    +0.000 A 
ATOM     19  F   UNL     1       0.765   2.102  22.412  0.00  0.00    +0.000 F 
ATOM     20  C   UNL     1       0.644   2.836  20.172  0.00  0.00    +0.000 A 
ATOM     21  C   UNL     1       1.136   3.635  19.136  0.00  0.00    +0.000 A 
ENDBRANCH   7  15
ENDBRANCH   1   7
BRANCH   4  22
ATOM     22  C   UNL     1       0.541  10.597  18.939  0.00  0.00    +0.000 C 
BRANCH  22  23
ATOM     23  C   UNL     1       1.015  12.053  18.895  0.00  0.00    +0.000 C 
BRANCH  23  24
ATOM     24  C   UNL     1       0.201  12.925  19.841  0.00  0.00    +0.000 C 
BRANCH  24  25
ATOM     25  O   UNL     1      -1.167  12.532  19.754  0.00  0.00    +0.000 OA
BRANCH  25  26
ATOM     26  C   UNL     1      -1.834  12.442  20.947  0.00  0.00    +0.000 A 
ATOM     27  C   UNL     1      -1.270  12.078  22.170  0.00  0.00    +0.000 A 
ATOM     28  C   UNL     1      -2.054  12.053  23.325  0.00  0.00    +0.000 A 
ATOM     29  C   UNL     1      -3.412  12.389  23.276  0.00  0.00    +0.000 A 
ATOM     30  C   UNL     1      -4.204  12.387  24.435  0.00  0.00    +0.000 A 
ATOM     31  C   UNL     1      -5.555  12.727  24.372  0.00  0.00    +0.000 A 
ATOM     32  C   UNL     1      -6.129  13.070  23.152  0.00  0.00    +0.000 A 
ATOM     33  C   UNL     1      -5.355  13.077  21.990  0.00  0.00    +0.000 A 
ATOM     34  C   UNL     1      -3.993  12.743  22.038  0.00  0.00    +0.000 A 
ATOM     35  C   UNL     1      -3.192  12.760  20.885  0.00  0.00    +0.000 A 
ENDBRANCH  25  26
ENDBRANCH  24  25
ENDBRANCH  23  24
ENDBRANCH  22  23
ENDBRANCH   4  22
TORSDOF 8
ENDMDL
MODEL 2
REMARK VINA RESULT:      -9.3      4.221      7.190
REMARK  Name = 
REMARK  8 active torsions:
REMARK  status: ('A' for Active; 'I' for Inactive)
REMARK    1  A    between atoms: C_5  and  C_6
REMARK    2  A    between atoms: C_6  and  C_7
REMARK    3  A    between atoms: C_6  and  C_14
REMARK    4  A    between atoms: N_17  and  C_18
REMARK    5  A    between atoms: C_18  and  C_19
REMARK    6  A    between atoms: C_19  and  C_20
REMARK    7  A    between atoms: C_20  and  O_21
REMARK    8  A    between atoms: O_21  and  C_22
REMARK                            x       y       z     vdW  Elec       q    Type
REMARK                         _______ _______ _______ _____ _____    ______ ____
ROOT
ATOM      1  C   UNL     1       4.191   4.282  17.036  0.00  0.00    +0.000 C 
ATOM      2  C   UNL     1       2.773   4.064  16.505  0.00  0.00    +0.000 C 
ATOM      3  C   UNL     1       1.918   3.502  17.631  0.00  0.00    +0.000 C 
ATOM      4  N   UNL     1       2.468   2.277  18.236  0.00  0.00    +0.000 NA
ATOM      5  C   UNL     1       3.920   2.329  18.510  0.00  0.00    +0.000 C 
ATOM      6  C   UNL     1       4.761   2.897  17.339  0.00  0.00    +0.000 C 
ENDROOT
BRANCH   1   7
ATOM      7  C   UNL     1       5.042   5.322  16.260  0.00  0.00    +0.000 C 
BRANCH   7  12
ATOM      8  F   UNL     1       9.042   8.166  19.107  0.00  0.00    +0.000 F 
ATOM      9  C   UNL     1       8.064   7.506  18.475  0.00  0.00    +0.000 A 
ATOM     10  C   UNL     1       7.329   8.147  17.487  0.00  0.00    +0.000 A 
ATOM     11  C   UNL     1       6.324   7.449  16.809  0.00  0.00    +0.000 A 
ATOM     12  C   UNL     1       6.055   6.098  17.107  0.00  0.00    +0.000 A 
ATOM     13  C   UNL     1       6.814   5.479  18.115  0.00  0.00    +0.000 A 
ATOM     14  C   UNL     1       7.809   6.181  18.801  0.00  0.00    +0.000 A 
ENDBRANCH   7  12
BRANCH   7  15
ATOM     15  C   UNL     1       5.635   4.712  14.951  0.00  0.00    +0.000 A 
ATOM     16  C   UNL     1       4.841   3.980  14.034  0.00  0.00    +0.000 A 
ATOM     17  C   UNL     1       5.360   3.463  12.848  0.00  0.00    +0.000 A 
ATOM     18  C   UNL     1       6.689   3.687  12.543  0.00  0.00    +0.000 A 
ATOM     19  F   UNL     1       7.193   3.195  11.406  0.00  0.00    +0.000 F 
ATOM     20  C   UNL     1       7.498   4.416  13.404  0.00  0.00    +0.000 A 
ATOM     21  C   UNL     1       6.976   4.933  14.592  0.00  0.00    +0.000 A 
ENDBRANCH   7  15
ENDBRANCH   1   7
BRANCH   4  22
ATOM     22  C   UNL     1       1.728   1.954  19.475  0.00  0.00    +0.000 C 
BRANCH  22  23
ATOM     23  C   UNL     1       2.187   2.764  20.691  0.00  0.00    +0.000 C 
BRANCH  23  24
ATOM     24  C   UNL     1       1.319   4.000  20.888  0.00  0.00    +0.000 C 
BRANCH  24  25
ATOM     25  O   UNL     1       2.158   5.081  21.289  0.00  0.00    +0.000 OA
BRANCH  25  26
ATOM     26  C   UNL     1       2.160   6.169  20.456  0.00  0.00    +0.000 A 
ATOM     27  C   UNL     1       2.832   6.258  19.237  0.00  0.00    +0.000 A 
ATOM     28  C   UNL     1       2.731   7.416  18.463  0.00  0.00    +0.000 A 
ATOM     29  C   UNL     1       1.960   8.501  18.896  0.00  0.00    +0.000 A 
ATOM     30  C   UNL     1       1.835   9.662  18.117  0.00  0.00    +0.000 A 
ATOM     31  C   UNL     1       1.060  10.734  18.558  0.00  0.00    +0.000 A 
ATOM     32  C   UNL     1       0.405  10.660  19.784  0.00  0.00    +0.000 A 
ATOM     33  C   UNL     1       0.520   9.513  20.571  0.00  0.00    +0.000 A 
ATOM     34  C   UNL     1       1.290   8.423  20.137  0.00  0.00    +0.000 A 
ATOM     35  C   UNL     1       1.404   7.253  20.905  0.00  0.00    +0.000 A 
ENDBRANCH  25  26
ENDBRANCH  24  25
ENDBRANCH  23  24
ENDBRANCH  22  23
ENDBRANCH   4  22
TORSDOF 8
ENDMDL
MODEL 3
REMARK VINA RESULT:      -9.3      1.199      1.663
REMARK  Name = 
REMARK  8 active torsions:
REMARK  status: ('A' for Active; 'I' for Inactive)
REMARK    1  A    between atoms: C_5  and  C_6
REMARK    2  A    between atoms: C_6  and  C_7
REMARK    3  A    between atoms: C_6  and  C_14
REMARK    4  A    between atoms: N_17  and  C_18
REMARK    5  A    between atoms: C_18  and  C_19
REMARK    6  A    between atoms: C_19  and  C_20
REMARK    7  A    between atoms: C_20  and  O_21
REMARK    8  A    between atoms: O_21  and  C_22
REMARK                            x       y       z     vdW  Elec       q    Type
REMARK                         _______ _______ _______ _____ _____    ______ ____
ROOT
ATOM      1  C   UNL     1       2.160   6.909  18.432  0.00  0.00    +0.000 C 
ATOM      2  C   UNL     1       2.229   7.362  19.892  0.00  0.00    +0.000 C 
ATOM      3  C   UNL     1       1.272   8.530  20.079  0.00  0.00    +0.000 C 
ATOM      4  N   UNL     1       1.513   9.647  19.149  0.00  0.00    +0.000 NA
ATOM      5  C   UNL     1       1.743   9.236  17.748  0.00  0.00    +0.000 C 
ATOM      6  C   UNL     1       2.730   8.051  17.593  0.00  0.00    +0.000 C 
ENDROOT
BRANCH   1   7
ATOM      7  C   UNL     1       2.609   5.447  18.166  0.00  0.00    +0.000 C 
BRANCH   7  12
ATOM      8  F   UNL     1       8.018   4.489  16.744  0.00  0.00    +0.000 F 
ATOM      9  C   UNL     1       6.743   4.761  17.051  0.00  0.00    +0.000 A 
ATOM     10  C   UNL     1       5.720   4.180  16.314  0.00  0.00    +0.000 A 
ATOM     11  C   UNL     1       4.389   4.444  16.651  0.00  0.00    +0.000 A 
ATOM     12  C   UNL     1       4.070   5.282  17.738  0.00  0.00    +0.000 A 
ATOM     13  C   UNL     1       5.129   5.858  18.462  0.00  0.00    +0.000 A 
ATOM     14  C   UNL     1       6.459   5.604  18.116  0.00  0.00    +0.000 A 
ENDBRANCH   7  12
BRANCH   7  15
ATOM     15  C   UNL     1       2.168   4.495  19.320  0.00  0.00    +0.000 A 
ATOM     16  C   UNL     1       2.908   4.374  20.523  0.00  0.00    +0.000 A 
ATOM     17  C   UNL     1       2.497   3.550  21.570  0.00  0.00    +0.000 A 
ATOM     18  C   UNL     1       1.320   2.839  21.442  0.00  0.00    +0.000 A 
ATOM     19  F   UNL     1       0.920   2.047  22.443  0.00  0.00    +0.000 F 
ATOM     20  C   UNL     1       0.554   2.942  20.290  0.00  0.00    +0.000 A 
ATOM     21  C   UNL     1       0.966   3.768  19.241  0.00  0.00    +0.000 A 
ENDBRANCH   7  15
ENDBRANCH   1   7
BRANCH   4  22
ATOM     22  C   UNL     1       0.392  10.608  19.219  0.00  0.00    +0.000 C 
BRANCH  22  23
ATOM     23  C   UNL     1      -0.818  10.203  18.370  0.00  0.00    +0.000 C 
BRANCH  23  24
ATOM     24  C   UNL     1      -1.631  11.421  17.953  0.00  0.00    +0.000 C 
BRANCH  24  25
ATOM     25  O   UNL     1      -1.583  12.379  19.009  0.00  0.00    +0.000 OA
BRANCH  25  26
ATOM     26  C   UNL     1      -2.696  12.439  19.805  0.00  0.00    +0.000 A 
ATOM     27  C   UNL     1      -2.708  12.734  21.168  0.00  0.00    +0.000 A 
ATOM     28  C   UNL     1      -3.917  12.794  21.864  0.00  0.00    +0.000 A 
ATOM     29  C   UNL     1      -5.132  12.557  21.209  0.00  0.00    +0.000 A 
ATOM     30  C   UNL     1      -6.354  12.634  21.894  0.00  0.00    +0.000 A 
ATOM     31  C   UNL     1      -7.557  12.400  21.228  0.00  0.00    +0.000 A 
ATOM     32  C   UNL     1      -7.551  12.082  19.873  0.00  0.00    +0.000 A 
ATOM     33  C   UNL     1      -6.344  12.001  19.178  0.00  0.00    +0.000 A 
ATOM     34  C   UNL     1      -5.125  12.241  19.832  0.00  0.00    +0.000 A 
ATOM     35  C   UNL     1      -3.901  12.183  19.147  0.00  0.00    +0.000 A 
ENDBRANCH  25  26
ENDBRANCH  24  25
ENDBRANCH  23  24
ENDBRANCH  22  23
ENDBRANCH   4  22
TORSDOF 8
ENDMDL
MODEL 4
REMARK VINA RESULT:      -9.3      4.220     10.645
REMARK  Name = 
REMARK  8 active torsions:
REMARK  status: ('A' for Active; 'I' for Inactive)
REMARK    1  A    between atoms: C_5  and  C_6
REMARK    2  A    between atoms: C_6  and  C_7
REMARK    3  A    between atoms: C_6  and  C_14
REMARK    4  A    between atoms: N_17  and  C_18
REMARK    5  A    between atoms: C_18  and  C_19
REMARK    6  A    between atoms: C_19  and  C_20
REMARK    7  A    between atoms: C_20  and  O_21
REMARK    8  A    between atoms: O_21  and  C_22
REMARK                            x       y       z     vdW  Elec       q    Type
REMARK                         _______ _______ _______ _____ _____    ______ ____
ROOT
ATOM      1  C   UNL     1      -0.486  10.143  19.585  0.00  0.00    +0.000 C 
ATOM      2  C   UNL     1       0.827  10.373  18.834  0.00  0.00    +0.000 C 
ATOM      3  C   UNL     1       1.572   9.049  18.749  0.00  0.00    +0.000 C 
ATOM      4  N   UNL     1       1.796   8.412  20.059  0.00  0.00    +0.000 NA
ATOM      5  C   UNL     1       0.618   8.419  20.951  0.00  0.00    +0.000 C 
ATOM      6  C   UNL     1      -0.110   9.785  21.022  0.00  0.00    +0.000 C 
ENDROOT
BRANCH   1   7
ATOM      7  C   UNL     1      -1.604  11.183  19.308  0.00  0.00    +0.000 C 
BRANCH   7  12
ATOM      8  F   UNL     1      -0.455  16.702  19.959  0.00  0.00    +0.000 F 
ATOM      9  C   UNL     1      -0.679  15.388  19.826  0.00  0.00    +0.000 A 
ATOM     10  C   UNL     1      -1.412  14.714  20.794  0.00  0.00    +0.000 A 
ATOM     11  C   UNL     1      -1.666  13.347  20.642  0.00  0.00    +0.000 A 
ATOM     12  C   UNL     1      -1.199  12.645  19.513  0.00  0.00    +0.000 A 
ATOM     13  C   UNL     1      -0.456  13.356  18.553  0.00  0.00    +0.000 A 
ATOM     14  C   UNL     1      -0.191  14.718  18.713  0.00  0.00    +0.000 A 
ENDBRANCH   7  12
BRANCH   7  15
ATOM     15  C   UNL     1      -2.322  10.902  17.951  0.00  0.00    +0.000 A 
ATOM     16  C   UNL     1      -1.843   9.938  17.029  0.00  0.00    +0.000 A 
ATOM     17  C   UNL     1      -2.502   9.661  15.833  0.00  0.00    +0.000 A 
ATOM     18  C   UNL     1      -3.673  10.332  15.540  0.00  0.00    +0.000 A 
ATOM     19  F   UNL     1      -4.311  10.069  14.394  0.00  0.00    +0.000 F 
ATOM     20  C   UNL     1      -4.190  11.270  16.424  0.00  0.00    +0.000 A 
ATOM     21  C   UNL     1      -3.528  11.547  17.623  0.00  0.00    +0.000 A 
ENDBRANCH   7  15
ENDBRANCH   1   7
BRANCH   4  22
ATOM     22  C   UNL     1       2.280   7.028  19.867  0.00  0.00    +0.000 C 
BRANCH  22  23
ATOM     23  C   UNL     1       1.461   5.981  20.629  0.00  0.00    +0.000 C 
BRANCH  23  24
ATOM     24  C   UNL     1       2.330   4.805  21.052  0.00  0.00    +0.000 C 
BRANCH  24  25
ATOM     25  O   UNL     1       2.126   3.736  20.130  0.00  0.00    +0.000 OA
BRANCH  25  26
ATOM     26  C   UNL     1       2.915   3.762  19.011  0.00  0.00    +0.000 A 
ATOM     27  C   UNL     1       2.495   3.473  17.712  0.00  0.00    +0.000 A 
ATOM     28  C   UNL     1       3.393   3.564  16.647  0.00  0.00    +0.000 A 
ATOM     29  C   UNL     1       4.724   3.943  16.863  0.00  0.00    +0.000 A 
ATOM     30  C   UNL     1       5.629   4.057  15.797  0.00  0.00    +0.000 A 
ATOM     31  C   UNL     1       6.951   4.440  16.026  0.00  0.00    +0.000 A 
ATOM     32  C   UNL     1       7.382   4.708  17.322  0.00  0.00    +0.000 A 
ATOM     33  C   UNL     1       6.493   4.599  18.393  0.00  0.00    +0.000 A 
ATOM     34  C   UNL     1       5.159   4.221  18.178  0.00  0.00    +0.000 A 
ATOM     35  C   UNL     1       4.244   4.123  19.238  0.00  0.00    +0.000 A 
ENDBRANCH  25  26
ENDBRANCH  24  25
ENDBRANCH  23  24
ENDBRANCH  22  23
ENDBRANCH   4  22
TORSDOF 8
ENDMDL
MODEL 5
REMARK VINA RESULT:      -9.3      5.857      9.411
REMARK  Name = 
REMARK  8 active torsions:
REMARK  status: ('A' for Active; 'I' for Inactive)
REMARK    1  A    between atoms: C_5  and  C_6
REMARK    2  A    between atoms: C_6  and  C_7
REMARK    3  A    between atoms: C_6  and  C_14
REMARK    4  A    between atoms: N_17  and  C_18
REMARK    5  A    between atoms: C_18  and  C_19
REMARK    6  A    between atoms: C_19  and  C_20
REMARK    7  A    between atoms: C_20  and  O_21
REMARK    8  A    between atoms: O_21  and  C_22
REMARK                            x       y       z     vdW  Elec       q    Type
REMARK                         _______ _______ _______ _____ _____    ______ ____
ROOT
ATOM      1  C   UNL     1       4.170   6.330  18.281  0.00  0.00    +0.000 C 
ATOM      2  C   UNL     1       5.053   5.227  18.866  0.00  0.00    +0.000 C 
ATOM      3  C   UNL     1       6.452   5.789  19.075  0.00  0.00    +0.000 C 
ATOM      4  N   UNL     1       7.042   6.373  17.858  0.00  0.00    +0.000 NA
ATOM      5  C   UNL     1       6.122   7.235  17.086  0.00  0.00    +0.000 C 
ATOM      6  C   UNL     1       4.711   6.627  16.883  0.00  0.00    +0.000 C 
ENDROOT
BRANCH   1   7
ATOM      7  C   UNL     1       2.644   6.152  18.504  0.00  0.00    +0.000 C 
BRANCH   7  12
ATOM      8  F   UNL     1       0.849   2.049  21.988  0.00  0.00    +0.000 F 
ATOM      9  C   UNL     1       1.317   2.989  21.156  0.00  0.00    +0.000 A 
ATOM     10  C   UNL     1       0.896   3.007  19.833  0.00  0.00    +0.000 A 
ATOM     11  C   UNL     1       1.366   4.004  18.972  0.00  0.00    +0.000 A 
ATOM     12  C   UNL     1       2.252   4.999  19.432  0.00  0.00    +0.000 A 
ATOM     13  C   UNL     1       2.662   4.950  20.776  0.00  0.00    +0.000 A 
ATOM     14  C   UNL     1       2.202   3.946  21.632  0.00  0.00    +0.000 A 
ENDBRANCH   7  12
BRANCH   7  15
ATOM     15  C   UNL     1       1.955   7.510  18.843  0.00  0.00    +0.000 A 
ATOM     16  C   UNL     1       1.621   7.877  20.171  0.00  0.00    +0.000 A 
ATOM     17  C   UNL     1       1.036   9.104  20.479  0.00  0.00    +0.000 A 
ATOM     18  C   UNL     1       0.788  10.004  19.462  0.00  0.00    +0.000 A 
ATOM     19  F   UNL     1       0.229  11.184  19.751  0.00  0.00    +0.000 F 
ATOM     20  C   UNL     1       1.117   9.695  18.149  0.00  0.00    +0.000 A 
ATOM     21  C   UNL     1       1.704   8.465  17.841  0.00  0.00    +0.000 A 
ENDBRANCH   7  15
ENDBRANCH   1   7
BRANCH   4  22
ATOM     22  C   UNL     1       8.269   7.121  18.205  0.00  0.00    +0.000 C 
BRANCH  22  23
ATOM     23  C   UNL     1       8.157   8.630  17.960  0.00  0.00    +0.000 C 
BRANCH  23  24
ATOM     24  C   UNL     1       8.966   9.415  18.983  0.00  0.00    +0.000 C 
BRANCH  24  25
ATOM     25  O   UNL     1       9.381  10.642  18.387  0.00  0.00    +0.000 OA
BRANCH  25  26
ATOM     26  C   UNL     1       9.607  11.676  19.256  0.00  0.00    +0.000 A 
ATOM     27  C   UNL     1       9.367  11.651  20.630  0.00  0.00    +0.000 A 
ATOM     28  C   UNL     1       9.669  12.766  21.416  0.00  0.00    +0.000 A 
ATOM     29  C   UNL     1      10.213  13.921  20.841  0.00  0.00    +0.000 A 
ATOM     30  C   UNL     1      10.539  15.039  21.624  0.00  0.00    +0.000 A 
ATOM     31  C   UNL     1      11.084  16.181  21.038  0.00  0.00    +0.000 A 
ATOM     32  C   UNL     1      11.305  16.221  19.665  0.00  0.00    +0.000 A 
ATOM     33  C   UNL     1      10.985  15.117  18.872  0.00  0.00    +0.000 A 
ATOM     34  C   UNL     1      10.443  13.957  19.447  0.00  0.00    +0.000 A 
ATOM     35  C   UNL     1      10.131  12.830  18.671  0.00  0.00    +0.000 A 
ENDBRANCH  25  26
ENDBRANCH  24  25
ENDBRANCH  23  24
ENDBRANCH  22  23
ENDBRANCH   4  22
TORSDOF 8
ENDMDL
MODEL 6
REMARK VINA RESULT:      -9.3      5.626      9.435
REMARK  Name = 
REMARK  8 active torsions:
REMARK  status: ('A' for Active; 'I' for Inactive)
REMARK    1  A    between atoms: C_5  and  C_6
REMARK    2  A    between atoms: C_6  and  C_7
REMARK    3  A    between atoms: C_6  and  C_14
REMARK    4  A    between atoms: N_17  and  C_18
REMARK    5  A    between atoms: C_18  and  C_19
REMARK    6  A    between atoms: C_19  and  C_20
REMARK    7  A    between atoms: C_20  and  O_21
REMARK    8  A    between atoms: O_21  and  C_22
REMARK                            x       y       z     vdW  Elec       q    Type
REMARK                         _______ _______ _______ _____ _____    ______ ____
ROOT
ATOM      1  C   UNL     1       4.251   6.413  19.007  0.00  0.00    +0.000 C 
ATOM      2  C   UNL     1       5.324   5.359  19.284  0.00  0.00    +0.000 C 
ATOM      3  C   UNL     1       6.672   5.919  18.854  0.00  0.00    +0.000 C 
ATOM      4  N   UNL     1       6.704   6.376  17.454  0.00  0.00    +0.000 NA
ATOM      5  C   UNL     1       5.527   7.172  17.044  0.00  0.00    +0.000 C 
ATOM      6  C   UNL     1       4.172   6.567  17.489  0.00  0.00    +0.000 C 
ENDROOT
BRANCH   1   7
ATOM      7  C   UNL     1       2.952   6.278  19.845  0.00  0.00    +0.000 C 
BRANCH   7  12
ATOM      8  F   UNL     1      -0.629  10.679  19.924  0.00  0.00    +0.000 F 
ATOM      9  C   UNL     1       0.256   9.673  19.919  0.00  0.00    +0.000 A 
ATOM     10  C   UNL     1       0.379   8.861  21.038  0.00  0.00    +0.000 A 
ATOM     11  C   UNL     1       1.286   7.796  21.023  0.00  0.00    +0.000 A 
ATOM     12  C   UNL     1       2.067   7.527  19.882  0.00  0.00    +0.000 A 
ATOM     13  C   UNL     1       1.921   8.371  18.766  0.00  0.00    +0.000 A 
ATOM     14  C   UNL     1       1.025   9.443  18.787  0.00  0.00    +0.000 A 
ENDBRANCH   7  12
BRANCH   7  15
ATOM     15  C   UNL     1       2.187   4.961  19.505  0.00  0.00    +0.000 A 
ATOM     16  C   UNL     1       1.679   4.102  20.511  0.00  0.00    +0.000 A 
ATOM     17  C   UNL     1       0.966   2.943  20.210  0.00  0.00    +0.000 A 
ATOM     18  C   UNL     1       0.729   2.626  18.887  0.00  0.00    +0.000 A 
ATOM     19  F   UNL     1       0.044   1.516  18.590  0.00  0.00    +0.000 F 
ATOM     20  C   UNL     1       1.190   3.449  17.869  0.00  0.00    +0.000 A 
ATOM     21  C   UNL     1       1.905   4.611  18.172  0.00  0.00    +0.000 A 
ENDBRANCH   7  15
ENDBRANCH   1   7
BRANCH   4  22
ATOM     22  C   UNL     1       7.946   7.137  17.202  0.00  0.00    +0.000 C 
BRANCH  22  23
ATOM     23  C   UNL     1       8.291   8.132  18.315  0.00  0.00    +0.000 C 
BRANCH  23  24
ATOM     24  C   UNL     1       8.358   9.555  17.780  0.00  0.00    +0.000 C 
BRANCH  24  25
ATOM     25  O   UNL     1       8.919  10.392  18.790  0.00  0.00    +0.000 OA
BRANCH  25  26
ATOM     26  C   UNL     1       9.586  11.500  18.336  0.00  0.00    +0.000 A 
ATOM     27  C   UNL     1      10.854  11.507  17.757  0.00  0.00    +0.000 A 
ATOM     28  C   UNL     1      11.415  12.704  17.307  0.00  0.00    +0.000 A 
ATOM     29  C   UNL     1      10.717  13.912  17.431  0.00  0.00    +0.000 A 
ATOM     30  C   UNL     1      11.263  15.117  16.964  0.00  0.00    +0.000 A 
ATOM     31  C   UNL     1      10.555  16.313  17.090  0.00  0.00    +0.000 A 
ATOM     32  C   UNL     1       9.298  16.316  17.688  0.00  0.00    +0.000 A 
ATOM     33  C   UNL     1       8.742  15.126  18.158  0.00  0.00    +0.000 A 
ATOM     34  C   UNL     1       9.439  13.913  18.032  0.00  0.00    +0.000 A 
ATOM     35  C   UNL     1       8.891  12.702  18.482  0.00  0.00    +0.000 A 
ENDBRANCH  25  26
ENDBRANCH  24  25
ENDBRANCH  23  24
ENDBRANCH  22  23
ENDBRANCH   4  22
TORSDOF 8
ENDMDL
MODEL 7
REMARK VINA RESULT:      -9.2      1.459      2.248
REMARK  Name = 
REMARK  8 active torsions:
REMARK  status: ('A' for Active; 'I' for Inactive)
REMARK    1  A    between atoms: C_5  and  C_6
REMARK    2  A    between atoms: C_6  and  C_7
REMARK    3  A    between atoms: C_6  and  C_14
REMARK    4  A    between atoms: N_17  and  C_18
REMARK    5  A    between atoms: C_18  and  C_19
REMARK    6  A    between atoms: C_19  and  C_20
REMARK    7  A    between atoms: C_20  and  O_21
REMARK    8  A    between atoms: O_21  and  C_22
REMARK                            x       y       z     vdW  Elec       q    Type
REMARK                         _______ _______ _______ _____ _____    ______ ____
ROOT
ATOM      1  C   UNL     1       2.210   6.861  18.362  0.00  0.00    +0.000 C 
ATOM      2  C   UNL     1       2.302   7.283  19.829  0.00  0.00    +0.000 C 
ATOM      3  C   UNL     1       1.373   8.468  20.048  0.00  0.00    +0.000 C 
ATOM      4  N   UNL     1       1.630   9.598  19.138  0.00  0.00    +0.000 NA
ATOM      5  C   UNL     1       1.838   9.209  17.727  0.00  0.00    +0.000 C 
ATOM      6  C   UNL     1       2.798   8.007  17.540  0.00  0.00    +0.000 C 
ENDROOT
BRANCH   1   7
ATOM      7  C   UNL     1       2.624   5.395  18.062  0.00  0.00    +0.000 C 
BRANCH   7  12
ATOM      8  F   UNL     1       7.915   4.418  16.260  0.00  0.00    +0.000 F 
ATOM      9  C   UNL     1       6.663   4.689  16.651  0.00  0.00    +0.000 A 
ATOM     10  C   UNL     1       5.604   3.975  16.108  0.00  0.00    +0.000 A 
ATOM     11  C   UNL     1       4.299   4.242  16.535  0.00  0.00    +0.000 A 
ATOM     12  C   UNL     1       4.044   5.218  17.519  0.00  0.00    +0.000 A 
ATOM     13  C   UNL     1       5.139   5.926  18.046  0.00  0.00    +0.000 A 
ATOM     14  C   UNL     1       6.441   5.668  17.609  0.00  0.00    +0.000 A 
ENDBRANCH   7  12
BRANCH   7  15
ATOM     15  C   UNL     1       2.269   4.447  19.250  0.00  0.00    +0.000 A 
ATOM     16  C   UNL     1       0.970   3.908  19.422  0.00  0.00    +0.000 A 
ATOM     17  C   UNL     1       0.659   3.034  20.462  0.00  0.00    +0.000 A 
ATOM     18  C   UNL     1       1.652   2.664  21.348  0.00  0.00    +0.000 A 
ATOM     19  F   UNL     1       1.361   1.824  22.347  0.00  0.00    +0.000 F 
ATOM     20  C   UNL     1       2.943   3.153  21.205  0.00  0.00    +0.000 A 
ATOM     21  C   UNL     1       3.254   4.029  20.162  0.00  0.00    +0.000 A 
ENDBRANCH   7  15
ENDBRANCH   1   7
BRANCH   4  22
ATOM     22  C   UNL     1       0.531  10.582  19.238  0.00  0.00    +0.000 C 
BRANCH  22  23
ATOM     23  C   UNL     1      -0.378  10.365  20.452  0.00  0.00    +0.000 C 
BRANCH  23  24
ATOM     24  C   UNL     1      -0.518  11.642  21.269  0.00  0.00    +0.000 C 
BRANCH  24  25
ATOM     25  O   UNL     1      -1.226  12.603  20.489  0.00  0.00    +0.000 OA
BRANCH  25  26
ATOM     26  C   UNL     1      -2.592  12.537  20.565  0.00  0.00    +0.000 A 
ATOM     27  C   UNL     1      -3.355  12.751  21.713  0.00  0.00    +0.000 A 
ATOM     28  C   UNL     1      -4.748  12.683  21.654  0.00  0.00    +0.000 A 
ATOM     29  C   UNL     1      -5.400  12.398  20.448  0.00  0.00    +0.000 A 
ATOM     30  C   UNL     1      -6.800  12.346  20.372  0.00  0.00    +0.000 A 
ATOM     31  C   UNL     1      -7.436  12.065  19.164  0.00  0.00    +0.000 A 
ATOM     32  C   UNL     1      -6.681  11.828  18.019  0.00  0.00    +0.000 A 
ATOM     33  C   UNL     1      -5.287  11.874  18.078  0.00  0.00    +0.000 A 
ATOM     34  C   UNL     1      -4.632  12.163  19.285  0.00  0.00    +0.000 A 
ATOM     35  C   UNL     1      -3.232  12.233  19.362  0.00  0.00    +0.000 A 
ENDBRANCH  25  26
ENDBRANCH  24  25
ENDBRANCH  23  24
ENDBRANCH  22  23
ENDBRANCH   4  22
TORSDOF 8
ENDMDL
MODEL 8
REMARK VINA RESULT:      -9.2      5.954      9.834
REMARK  Name = 
REMARK  8 active torsions:
REMARK  status: ('A' for Active; 'I' for Inactive)
REMARK    1  A    between atoms: C_5  and  C_6
REMARK    2  A    between atoms: C_6  and  C_7
REMARK    3  A    between atoms: C_6  and  C_14
REMARK    4  A    between atoms: N_17  and  C_18
REMARK    5  A    between atoms: C_18  and  C_19
REMARK    6  A    between atoms: C_19  and  C_20
REMARK    7  A    between atoms: C_20  and  O_21
REMARK    8  A    between atoms: O_21  and  C_22
REMARK                            x       y       z     vdW  Elec       q    Type
REMARK                         _______ _______ _______ _____ _____    ______ ____
ROOT
ATOM      1  C   UNL     1       4.121   6.414  18.276  0.00  0.00    +0.000 C 
ATOM      2  C   UNL     1       4.969   5.309  18.909  0.00  0.00    +0.000 C 
ATOM      3  C   UNL     1       6.365   5.858  19.162  0.00  0.00    +0.000 C 
ATOM      4  N   UNL     1       7.008   6.418  17.961  0.00  0.00    +0.000 NA
ATOM      5  C   UNL     1       6.128   7.279  17.143  0.00  0.00    +0.000 C 
ATOM      6  C   UNL     1       4.718   6.685  16.895  0.00  0.00    +0.000 C 
ENDROOT
BRANCH   1   7
ATOM      7  C   UNL     1       2.586   6.256  18.444  0.00  0.00    +0.000 C 
BRANCH   7  12
ATOM      8  F   UNL     1       1.313   1.807  21.727  0.00  0.00    +0.000 F 
ATOM      9  C   UNL     1       1.563   2.875  20.958  0.00  0.00    +0.000 A 
ATOM     10  C   UNL     1       2.155   4.000  21.515  0.00  0.00    +0.000 A 
ATOM     11  C   UNL     1       2.439   5.105  20.706  0.00  0.00    +0.000 A 
ATOM     12  C   UNL     1       2.144   5.088  19.328  0.00  0.00    +0.000 A 
ATOM     13  C   UNL     1       1.542   3.934  18.795  0.00  0.00    +0.000 A 
ATOM     14  C   UNL     1       1.246   2.836  19.607  0.00  0.00    +0.000 A 
ENDBRANCH   7  12
BRANCH   7  15
ATOM     15  C   UNL     1       1.908   7.617  18.793  0.00  0.00    +0.000 A 
ATOM     16  C   UNL     1       1.585   7.980  20.124  0.00  0.00    +0.000 A 
ATOM     17  C   UNL     1       1.010   9.209  20.442  0.00  0.00    +0.000 A 
ATOM     18  C   UNL     1       0.762  10.116  19.430  0.00  0.00    +0.000 A 
ATOM     19  F   UNL     1       0.211  11.298  19.728  0.00  0.00    +0.000 F 
ATOM     20  C   UNL     1       1.080   9.810  18.114  0.00  0.00    +0.000 A 
ATOM     21  C   UNL     1       1.656   8.578  17.796  0.00  0.00    +0.000 A 
ENDBRANCH   7  15
ENDBRANCH   1   7
BRANCH   4  22
ATOM     22  C   UNL     1       8.229   7.157  18.344  0.00  0.00    +0.000 C 
BRANCH  22  23
ATOM     23  C   UNL     1       8.244   8.610  17.860  0.00  0.00    +0.000 C 
BRANCH  23  24
ATOM     24  C   UNL     1       8.689   9.555  18.967  0.00  0.00    +0.000 C 
BRANCH  24  25
ATOM     25  O   UNL     1      10.018   9.988  18.685  0.00  0.00    +0.000 OA
BRANCH  25  26
ATOM     26  C   UNL     1      10.296  11.291  19.004  0.00  0.00    +0.000 A 
ATOM     27  C   UNL     1      10.345  11.821  20.293  0.00  0.00    +0.000 A 
ATOM     28  C   UNL     1      10.670  13.165  20.489  0.00  0.00    +0.000 A 
ATOM     29  C   UNL     1      10.949  13.999  19.400  0.00  0.00    +0.000 A 
ATOM     30  C   UNL     1      11.296  15.346  19.586  0.00  0.00    +0.000 A 
ATOM     31  C   UNL     1      11.576  16.165  18.492  0.00  0.00    +0.000 A 
ATOM     32  C   UNL     1      11.507  15.649  17.201  0.00  0.00    +0.000 A 
ATOM     33  C   UNL     1      11.162  14.311  16.999  0.00  0.00    +0.000 A 
ATOM     34  C   UNL     1      10.885  13.473  18.091  0.00  0.00    +0.000 A 
ATOM     35  C   UNL     1      10.554  12.120  17.911  0.00  0.00    +0.000 A 
ENDBRANCH  25  26
ENDBRANCH  24  25
ENDBRANCH  23  24
ENDBRANCH  22  23
ENDBRANCH   4  22
TORSDOF 8
ENDMDL
MODEL 9
REMARK VINA RESULT:      -9.2      5.989      9.774
REMARK  Name = 
REMARK  8 active torsions:
REMARK  status: ('A' for Active; 'I' for Inactive)
REMARK    1  A    between atoms: C_5  and  C_6
REMARK    2  A    between atoms: C_6  and  C_7
REMARK    3  A    between atoms: C_6  and  C_14
REMARK    4  A    between atoms: N_17  and  C_18
REMARK    5  A    between atoms: C_18  and  C_19
REMARK    6  A    between atoms: C_19  and  C_20
REMARK    7  A    between atoms: C_20  and  O_21
REMARK    8  A    between atoms: O_21  and  C_22
REMARK                            x       y       z     vdW  Elec       q    Type
REMARK                         _______ _______ _______ _____ _____    ______ ____
ROOT
ATOM      1  C   UNL     1       4.194   6.404  18.258  0.00  0.00    +0.000 C 
ATOM      2  C   UNL     1       5.084   5.312  18.856  0.00  0.00    +0.000 C 
ATOM      3  C   UNL     1       6.472   5.892  19.082  0.00  0.00    +0.000 C 
ATOM      4  N   UNL     1       7.071   6.482  17.872  0.00  0.00    +0.000 NA
ATOM      5  C   UNL     1       6.150   7.331  17.087  0.00  0.00    +0.000 C 
ATOM      6  C   UNL     1       4.750   6.706  16.866  0.00  0.00    +0.000 C 
ENDROOT
BRANCH   1   7
ATOM      7  C   UNL     1       2.668   6.207  18.461  0.00  0.00    +0.000 C 
BRANCH   7  12
ATOM      8  F   UNL     1       0.881   2.068  21.906  0.00  0.00    +0.000 F 
ATOM      9  C   UNL     1       1.347   3.016  21.083  0.00  0.00    +0.000 A 
ATOM     10  C   UNL     1       0.924   3.048  19.762  0.00  0.00    +0.000 A 
ATOM     11  C   UNL     1       1.392   4.054  18.910  0.00  0.00    +0.000 A 
ATOM     12  C   UNL     1       2.278   5.044  19.377  0.00  0.00    +0.000 A 
ATOM     13  C   UNL     1       2.691   4.981  20.720  0.00  0.00    +0.000 A 
ATOM     14  C   UNL     1       2.233   3.968  21.567  0.00  0.00    +0.000 A 
ENDBRANCH   7  12
BRANCH   7  15
ATOM     15  C   UNL     1       1.959   7.555  18.798  0.00  0.00    +0.000 A 
ATOM     16  C   UNL     1       1.546   8.463  17.791  0.00  0.00    +0.000 A 
ATOM     17  C   UNL     1       0.882   9.652  18.087  0.00  0.00    +0.000 A 
ATOM     18  C   UNL     1       0.596   9.950  19.405  0.00  0.00    +0.000 A 
ATOM     19  F   UNL     1      -0.043  11.088  19.697  0.00  0.00    +0.000 F 
ATOM     20  C   UNL     1       0.964   9.080  20.422  0.00  0.00    +0.000 A 
ATOM     21  C   UNL     1       1.630   7.888  20.124  0.00  0.00    +0.000 A 
ENDBRANCH   7  15
ENDBRANCH   1   7
BRANCH   4  22
ATOM     22  C   UNL     1       8.284   7.247  18.234  0.00  0.00    +0.000 C 
BRANCH  22  23
ATOM     23  C   UNL     1       8.192   8.738  17.895  0.00  0.00    +0.000 C 
BRANCH  23  24
ATOM     24  C   UNL     1       8.874   9.587  18.959  0.00  0.00    +0.000 C 
BRANCH  24  25
ATOM     25  O   UNL     1       9.992  10.245  18.365  0.00  0.00    +0.000 OA
BRANCH  25  26
ATOM     26  C   UNL     1      10.277  11.490  18.860  0.00  0.00    +0.000 A 
ATOM     27  C   UNL     1      10.406  11.820  20.209  0.00  0.00    +0.000 A 
ATOM     28  C   UNL     1      10.730  13.125  20.585  0.00  0.00    +0.000 A 
ATOM     29  C   UNL     1      10.926  14.120  19.620  0.00  0.00    +0.000 A 
ATOM     30  C   UNL     1      11.271  15.430  19.986  0.00  0.00    +0.000 A 
ATOM     31  C   UNL     1      11.468  16.410  19.014  0.00  0.00    +0.000 A 
ATOM     32  C   UNL     1      11.318  16.093  17.667  0.00  0.00    +0.000 A 
ATOM     33  C   UNL     1      10.975  14.795  17.286  0.00  0.00    +0.000 A 
ATOM     34  C   UNL     1      10.780  13.796  18.253  0.00  0.00    +0.000 A 
ATOM     35  C   UNL     1      10.452  12.480  17.891  0.00  0.00    +0.000 A 
ENDBRANCH  25  26
ENDBRANCH  24  25
ENDBRANCH  23  24
ENDBRANCH  22  23
ENDBRANCH   4  22
TORSDOF 8
ENDMDL
