MODEL 1
REMARK VINA RESULT:      -5.8      0.000      0.000
REMARK  Name = 
REMARK  2 active torsions:
REMARK  status: ('A' for Active; 'I' for Inactive)
REMARK    1  A    between atoms: N_4  and  N_5
REMARK    2  A    between atoms: C_6  and  C_7
REMARK                            x       y       z     vdW  Elec       q    Type
REMARK                         _______ _______ _______ _____ _____    ______ ____
ROOT
ATOM      1  N   UNL     1       7.389   4.357  17.187  0.00  0.00    +0.000 NA
ATOM      2  C   UNL     1       6.759   4.609  16.093  0.00  0.00    +0.000 C 
ATOM      3  N   UNL     1       7.447   5.170  14.986  0.00  0.00    +0.000 N 
ATOM      4  N   UNL     1       5.369   4.329  15.995  0.00  0.00    +0.000 N 
ATOM      5  H   UNL     1       8.396   4.550  17.286  0.00  0.00    +0.000 HD
ATOM      6  H   UNL     1       8.454   5.381  15.043  0.00  0.00    +0.000 HD
ATOM      7  H   UNL     1       6.944   5.382  14.112  0.00  0.00    +0.000 HD
ATOM      8  H   UNL     1       4.876   4.522  15.110  0.00  0.00    +0.000 HD
ENDROOT
BRANCH   4   9
ATOM      9  N   UNL     1       4.688   3.826  17.081  0.00  0.00    +0.000 NA
ATOM     10  C   UNL     1       3.572   4.327  17.479  0.00  0.00    +0.000 C 
BRANCH  10  11
ATOM     11  C   UNL     1       2.881   3.776  18.667  0.00  0.00    +0.000 A 
ATOM     12  C   UNL     1       1.479   3.777  18.767  0.00  0.00    +0.000 A 
ATOM     13  C   UNL     1       0.859   3.242  19.895  0.00  0.00    +0.000 A 
ATOM     14  C   UNL     1       1.643   2.709  20.919  0.00  0.00    +0.000 A 
ATOM     15  N   UNL     1       2.998   2.715  20.811  0.00  0.00    +0.000 NA
ATOM     16  C   UNL     1       3.628   3.231  19.722  0.00  0.00    +0.000 A 
ENDBRANCH  10  11
ENDBRANCH   4   9
TORSDOF 2
ENDMDL
MODEL 2
REMARK VINA RESULT:      -5.7      1.212      1.234
REMARK  Name = 
REMARK  2 active torsions:
REMARK  status: ('A' for Active; 'I' for Inactive)
REMARK    1  A    between atoms: N_4  and  N_5
REMARK    2  A    between atoms: C_6  and  C_7
REMARK                            x       y       z     vdW  Elec       q    Type
REMARK                         _______ _______ _______ _____ _____    ______ ____
ROOT
ATOM      1  N   UNL     1       7.119   4.221  17.077  0.00  0.00    +0.000 NA
ATOM      2  C   UNL     1       6.687   4.795  16.009  0.00  0.00    +0.000 C 
ATOM      3  N   UNL     1       7.603   5.271  15.035  0.00  0.00    +0.000 N 
ATOM      4  N   UNL     1       5.290   4.955  15.806  0.00  0.00    +0.000 N 
ATOM      5  H   UNL     1       8.126   4.091  17.251  0.00  0.00    +0.000 HD
ATOM      6  H   UNL     1       8.619   5.163  15.169  0.00  0.00    +0.000 HD
ATOM      7  H   UNL     1       7.261   5.738  14.183  0.00  0.00    +0.000 HD
ATOM      8  H   UNL     1       4.953   5.405  14.940  0.00  0.00    +0.000 HD
ENDROOT
BRANCH   4   9
ATOM      9  N   UNL     1       4.399   4.535  16.768  0.00  0.00    +0.000 NA
ATOM     10  C   UNL     1       3.713   5.364  17.474  0.00  0.00    +0.000 C 
BRANCH  10  11
ATOM     11  C   UNL     1       2.785   4.874  18.517  0.00  0.00    +0.000 A 
ATOM     12  C   UNL     1       1.858   3.850  18.253  0.00  0.00    +0.000 A 
ATOM     13  C   UNL     1       1.003   3.406  19.262  0.00  0.00    +0.000 A 
ATOM     14  C   UNL     1       1.077   3.987  20.528  0.00  0.00    +0.000 A 
ATOM     15  N   UNL     1       1.976   4.978  20.770  0.00  0.00    +0.000 NA
ATOM     16  C   UNL     1       2.821   5.430  19.804  0.00  0.00    +0.000 A 
ENDBRANCH  10  11
ENDBRANCH   4   9
TORSDOF 2
ENDMDL
MODEL 3
REMARK VINA RESULT:      -5.6      1.641      1.920
REMARK  Name = 
REMARK  2 active torsions:
REMARK  status: ('A' for Active; 'I' for Inactive)
REMARK    1  A    between atoms: N_4  and  N_5
REMARK    2  A    between atoms: C_6  and  C_7
REMARK                            x       y       z     vdW  Elec       q    Type
REMARK                         _______ _______ _______ _____ _____    ______ ____
ROOT
ATOM      1  N   UNL     1       6.393   3.702  14.015  0.00  0.00    +0.000 NA
ATOM      2  C   UNL     1       6.772   4.869  14.404  0.00  0.00    +0.000 C 
ATOM      3  N   UNL     1       7.943   5.459  13.857  0.00  0.00    +0.000 N 
ATOM      4  N   UNL     1       6.020   5.569  15.385  0.00  0.00    +0.000 N 
ATOM      5  H   UNL     1       6.919   3.173  13.306  0.00  0.00    +0.000 HD
ATOM      6  H   UNL     1       8.499   4.963  13.147  0.00  0.00    +0.000 HD
ATOM      7  H   UNL     1       8.254   6.388  14.172  0.00  0.00    +0.000 HD
ATOM      8  H   UNL     1       6.325   6.510  15.680  0.00  0.00    +0.000 HD
ENDROOT
BRANCH   4   9
ATOM      9  N   UNL     1       4.909   4.984  15.950  0.00  0.00    +0.000 NA
ATOM     10  C   UNL     1       4.960   4.369  17.079  0.00  0.00    +0.000 C 
BRANCH  10  11
ATOM     11  C   UNL     1       3.750   3.730  17.643  0.00  0.00    +0.000 A 
ATOM     12  C   UNL     1       2.499   4.370  17.610  0.00  0.00    +0.000 A 
ATOM     13  C   UNL     1       1.376   3.736  18.141  0.00  0.00    +0.000 A 
ATOM     14  C   UNL     1       1.509   2.466  18.705  0.00  0.00    +0.000 A 
ATOM     15  N   UNL     1       2.725   1.859  18.732  0.00  0.00    +0.000 NA
ATOM     16  C   UNL     1       3.835   2.455  18.221  0.00  0.00    +0.000 A 
ENDBRANCH  10  11
ENDBRANCH   4   9
TORSDOF 2
ENDMDL
MODEL 4
REMARK VINA RESULT:      -5.5      1.155      1.283
REMARK  Name = 
REMARK  2 active torsions:
REMARK  status: ('A' for Active; 'I' for Inactive)
REMARK    1  A    between atoms: N_4  and  N_5
REMARK    2  A    between atoms: C_6  and  C_7
REMARK                            x       y       z     vdW  Elec       q    Type
REMARK                         _______ _______ _______ _____ _____    ______ ____
ROOT
ATOM      1  N   UNL     1       6.148   6.405  16.335  0.00  0.00    +0.000 NA
ATOM      2  C   UNL     1       6.595   5.272  15.919  0.00  0.00    +0.000 C 
ATOM      3  N   UNL     1       7.560   5.224  14.879  0.00  0.00    +0.000 N 
ATOM      4  N   UNL     1       6.119   4.066  16.500  0.00  0.00    +0.000 N 
ATOM      5  H   UNL     1       6.474   7.295  15.932  0.00  0.00    +0.000 HD
ATOM      6  H   UNL     1       7.912   6.090  14.447  0.00  0.00    +0.000 HD
ATOM      7  H   UNL     1       7.913   4.319  14.538  0.00  0.00    +0.000 HD
ATOM      8  H   UNL     1       6.494   3.163  16.169  0.00  0.00    +0.000 HD
ENDROOT
BRANCH   4   9
ATOM      9  N   UNL     1       5.151   4.105  17.479  0.00  0.00    +0.000 NA
ATOM     10  C   UNL     1       3.970   3.632  17.291  0.00  0.00    +0.000 C 
BRANCH  10  11
ATOM     11  C   UNL     1       2.948   3.716  18.358  0.00  0.00    +0.000 A 
ATOM     12  C   UNL     1       1.813   2.885  18.355  0.00  0.00    +0.000 A 
ATOM     13  C   UNL     1       0.873   2.983  19.380  0.00  0.00    +0.000 A 
ATOM     14  C   UNL     1       1.070   3.912  20.403  0.00  0.00    +0.000 A 
ATOM     15  N   UNL     1       2.170   4.711  20.393  0.00  0.00    +0.000 NA
ATOM     16  C   UNL     1       3.102   4.635  19.405  0.00  0.00    +0.000 A 
ENDBRANCH  10  11
ENDBRANCH   4   9
TORSDOF 2
ENDMDL
MODEL 5
REMARK VINA RESULT:      -5.5      1.881      5.852
REMARK  Name = 
REMARK  2 active torsions:
REMARK  status: ('A' for Active; 'I' for Inactive)
REMARK    1  A    between atoms: N_4  and  N_5
REMARK    2  A    between atoms: C_6  and  C_7
REMARK                            x       y       z     vdW  Elec       q    Type
REMARK                         _______ _______ _______ _____ _____    ______ ____
ROOT
ATOM      1  N   UNL     1       4.989   2.056  20.105  0.00  0.00    +0.000 NA
ATOM      2  C   UNL     1       3.878   2.705  20.080  0.00  0.00    +0.000 C 
ATOM      3  N   UNL     1       2.964   2.597  21.161  0.00  0.00    +0.000 N 
ATOM      4  N   UNL     1       3.563   3.530  18.967  0.00  0.00    +0.000 N 
ATOM      5  H   UNL     1       5.243   1.451  20.899  0.00  0.00    +0.000 HD
ATOM      6  H   UNL     1       3.178   2.002  21.974  0.00  0.00    +0.000 HD
ATOM      7  H   UNL     1       2.070   3.108  21.141  0.00  0.00    +0.000 HD
ATOM      8  H   UNL     1       2.676   4.057  18.963  0.00  0.00    +0.000 HD
ENDROOT
BRANCH   4   9
ATOM      9  N   UNL     1       4.426   3.604  17.896  0.00  0.00    +0.000 NA
ATOM     10  C   UNL     1       4.664   4.712  17.286  0.00  0.00    +0.000 C 
BRANCH  10  11
ATOM     11  C   UNL     1       5.577   4.748  16.122  0.00  0.00    +0.000 A 
ATOM     12  C   UNL     1       5.289   4.040  14.941  0.00  0.00    +0.000 A 
ATOM     13  C   UNL     1       6.167   4.102  13.859  0.00  0.00    +0.000 A 
ATOM     14  C   UNL     1       7.328   4.869  13.962  0.00  0.00    +0.000 A 
ATOM     15  N   UNL     1       7.596   5.547  15.110  0.00  0.00    +0.000 NA
ATOM     16  C   UNL     1       6.757   5.503  16.180  0.00  0.00    +0.000 A 
ENDBRANCH  10  11
ENDBRANCH   4   9
TORSDOF 2
ENDMDL
MODEL 6
REMARK VINA RESULT:      -5.5      1.667      5.826
REMARK  Name = 
REMARK  2 active torsions:
REMARK  status: ('A' for Active; 'I' for Inactive)
REMARK    1  A    between atoms: N_4  and  N_5
REMARK    2  A    between atoms: C_6  and  C_7
REMARK                            x       y       z     vdW  Elec       q    Type
REMARK                         _______ _______ _______ _____ _____    ______ ____
ROOT
ATOM      1  N   UNL     1       1.846   2.103  19.542  0.00  0.00    +0.000 NA
ATOM      2  C   UNL     1       2.257   2.836  20.517  0.00  0.00    +0.000 C 
ATOM      3  N   UNL     1       1.627   2.755  21.786  0.00  0.00    +0.000 N 
ATOM      4  N   UNL     1       3.342   3.733  20.322  0.00  0.00    +0.000 N 
ATOM      5  H   UNL     1       1.061   1.445  19.655  0.00  0.00    +0.000 HD
ATOM      6  H   UNL     1       0.838   2.111  21.942  0.00  0.00    +0.000 HD
ATOM      7  H   UNL     1       1.947   3.346  22.566  0.00  0.00    +0.000 HD
ATOM      8  H   UNL     1       3.673   4.306  21.113  0.00  0.00    +0.000 HD
ENDROOT
BRANCH   4   9
ATOM      9  N   UNL     1       3.928   3.848  19.081  0.00  0.00    +0.000 NA
ATOM     10  C   UNL     1       5.151   4.222  18.935  0.00  0.00    +0.000 C 
BRANCH  10  11
ATOM     11  C   UNL     1       5.738   4.359  17.584  0.00  0.00    +0.000 A 
ATOM     12  C   UNL     1       4.939   4.311  16.427  0.00  0.00    +0.000 A 
ATOM     13  C   UNL     1       5.523   4.453  15.169  0.00  0.00    +0.000 A 
ATOM     14  C   UNL     1       6.903   4.641  15.072  0.00  0.00    +0.000 A 
ATOM     15  N   UNL     1       7.664   4.684  16.197  0.00  0.00    +0.000 NA
ATOM     16  C   UNL     1       7.120   4.548  17.436  0.00  0.00    +0.000 A 
ENDBRANCH  10  11
ENDBRANCH   4   9
TORSDOF 2
ENDMDL
MODEL 7
REMARK VINA RESULT:      -5.5      1.804      5.911
REMARK  Name = 
REMARK  2 active torsions:
REMARK  status: ('A' for Active; 'I' for Inactive)
REMARK    1  A    between atoms: N_4  and  N_5
REMARK    2  A    between atoms: C_6  and  C_7
REMARK                            x       y       z     vdW  Elec       q    Type
REMARK                         _______ _______ _______ _____ _____    ______ ____
ROOT
ATOM      1  N   UNL     1       1.085   2.829  18.192  0.00  0.00    +0.000 NA
ATOM      2  C   UNL     1       1.461   3.419  19.273  0.00  0.00    +0.000 C 
ATOM      3  N   UNL     1       0.629   3.399  20.423  0.00  0.00    +0.000 N 
ATOM      4  N   UNL     1       2.710   4.095  19.314  0.00  0.00    +0.000 N 
ATOM      5  H   UNL     1       0.185   2.331  18.134  0.00  0.00    +0.000 HD
ATOM      6  H   UNL     1      -0.280   2.914  20.408  0.00  0.00    +0.000 HD
ATOM      7  H   UNL     1       0.923   3.877  21.287  0.00  0.00    +0.000 HD
ATOM      8  H   UNL     1       3.008   4.553  20.189  0.00  0.00    +0.000 HD
ENDROOT
BRANCH   4   9
ATOM      9  N   UNL     1       3.500   4.155  18.188  0.00  0.00    +0.000 NA
ATOM     10  C   UNL     1       4.683   4.663  18.210  0.00  0.00    +0.000 C 
BRANCH  10  11
ATOM     11  C   UNL     1       5.493   4.733  16.973  0.00  0.00    +0.000 A 
ATOM     12  C   UNL     1       5.146   3.998  15.826  0.00  0.00    +0.000 A 
ATOM     13  C   UNL     1       5.926   4.094  14.673  0.00  0.00    +0.000 A 
ATOM     14  C   UNL     1       7.049   4.923  14.674  0.00  0.00    +0.000 A 
ATOM     15  N   UNL     1       7.374   5.627  15.790  0.00  0.00    +0.000 NA
ATOM     16  C   UNL     1       6.631   5.551  16.926  0.00  0.00    +0.000 A 
ENDBRANCH  10  11
ENDBRANCH   4   9
TORSDOF 2
ENDMDL
MODEL 8
REMARK VINA RESULT:      -5.5      1.464      1.597
REMARK  Name = 
REMARK  2 active torsions:
REMARK  status: ('A' for Active; 'I' for Inactive)
REMARK    1  A    between atoms: N_4  and  N_5
REMARK    2  A    between atoms: C_6  and  C_7
REMARK                            x       y       z     vdW  Elec       q    Type
REMARK                         _______ _______ _______ _____ _____    ______ ____
ROOT
ATOM      1  N   UNL     1       6.326   3.366  15.464  0.00  0.00    +0.000 NA
ATOM      2  C   UNL     1       6.383   4.652  15.496  0.00  0.00    +0.000 C 
ATOM      3  N   UNL     1       7.391   5.340  14.771  0.00  0.00    +0.000 N 
ATOM      4  N   UNL     1       5.436   5.385  16.261  0.00  0.00    +0.000 N 
ATOM      5  H   UNL     1       6.999   2.809  14.918  0.00  0.00    +0.000 HD
ATOM      6  H   UNL     1       8.085   4.822  14.213  0.00  0.00    +0.000 HD
ATOM      7  H   UNL     1       7.445   6.368  14.801  0.00  0.00    +0.000 HD
ATOM      8  H   UNL     1       5.482   6.416  16.269  0.00  0.00    +0.000 HD
ENDROOT
BRANCH   4   9
ATOM      9  N   UNL     1       4.483   4.721  17.000  0.00  0.00    +0.000 NA
ATOM     10  C   UNL     1       3.562   5.346  17.646  0.00  0.00    +0.000 C 
BRANCH  10  11
ATOM     11  C   UNL     1       2.571   4.599  18.452  0.00  0.00    +0.000 A 
ATOM     12  C   UNL     1       2.193   5.031  19.736  0.00  0.00    +0.000 A 
ATOM     13  C   UNL     1       1.249   4.309  20.466  0.00  0.00    +0.000 A 
ATOM     14  C   UNL     1       0.688   3.158  19.911  0.00  0.00    +0.000 A 
ATOM     15  N   UNL     1       1.063   2.749  18.670  0.00  0.00    +0.000 NA
ATOM     16  C   UNL     1       1.982   3.435  17.937  0.00  0.00    +0.000 A 
ENDBRANCH  10  11
ENDBRANCH   4   9
TORSDOF 2
ENDMDL
MODEL 9
REMARK VINA RESULT:      -5.4      1.718      2.171
REMARK  Name = 
REMARK  2 active torsions:
REMARK  status: ('A' for Active; 'I' for Inactive)
REMARK    1  A    between atoms: N_4  and  N_5
REMARK    2  A    between atoms: C_6  and  C_7
REMARK                            x       y       z     vdW  Elec       q    Type
REMARK                         _______ _______ _______ _____ _____    ______ ____
ROOT
ATOM      1  N   UNL     1       6.281   3.673  14.046  0.00  0.00    +0.000 NA
ATOM      2  C   UNL     1       6.677   4.772  14.586  0.00  0.00    +0.000 C 
ATOM      3  N   UNL     1       7.854   5.414  14.119  0.00  0.00    +0.000 N 
ATOM      4  N   UNL     1       5.935   5.343  15.655  0.00  0.00    +0.000 N 
ATOM      5  H   UNL     1       6.799   3.236  13.270  0.00  0.00    +0.000 HD
ATOM      6  H   UNL     1       8.403   5.010  13.346  0.00  0.00    +0.000 HD
ATOM      7  H   UNL     1       8.178   6.289  14.555  0.00  0.00    +0.000 HD
ATOM      8  H   UNL     1       6.253   6.232  16.072  0.00  0.00    +0.000 HD
ENDROOT
BRANCH   4   9
ATOM      9  N   UNL     1       4.818   4.703  16.140  0.00  0.00    +0.000 NA
ATOM     10  C   UNL     1       4.710   4.358  17.375  0.00  0.00    +0.000 C 
BRANCH  10  11
ATOM     11  C   UNL     1       3.504   3.647  17.855  0.00  0.00    +0.000 A 
ATOM     12  C   UNL     1       3.601   2.501  18.665  0.00  0.00    +0.000 A 
ATOM     13  C   UNL     1       2.444   1.859  19.108  0.00  0.00    +0.000 A 
ATOM     14  C   UNL     1       1.197   2.364  18.737  0.00  0.00    +0.000 A 
ATOM     15  N   UNL     1       1.117   3.470  17.952  0.00  0.00    +0.000 NA
ATOM     16  C   UNL     1       2.229   4.115  17.507  0.00  0.00    +0.000 A 
ENDBRANCH  10  11
ENDBRANCH   4   9
TORSDOF 2
ENDMDL
