MODEL 1
REMARK VINA RESULT:      -7.9      0.000      0.000
REMARK  Name = 
REMARK  3 active torsions:
REMARK  status: ('A' for Active; 'I' for Inactive)
REMARK    1  A    between atoms: C_1  and  C_2
REMARK    2  A    between atoms: C_2  and  C_3
REMARK    3  A    between atoms: N_13  and  C_14
REMARK                            x       y       z     vdW  Elec       q    Type
REMARK                         _______ _______ _______ _____ _____    ______ ____
ROOT
ATOM      1  C   UNL     1       1.778   4.370  17.191  0.00  0.00    +0.000 C 
ATOM      2  C   UNL     1       2.369   4.475  18.618  0.00  0.00    +0.000 C 
ATOM      3  S   UNL     1       1.462   3.180  19.584  0.00  0.00    +0.000 S 
ATOM      4  C   UNL     1       2.912   2.744  20.536  0.00  0.00    +0.000 C 
ATOM      5  C   UNL     1       4.111   3.151  19.715  0.00  0.00    +0.000 C 
ATOM      6  O   UNL     1       5.238   2.777  20.026  0.00  0.00    +0.000 OA
ATOM      7  N   UNL     1       3.782   4.033  18.669  0.00  0.00    +0.000 N 
ENDROOT
BRANCH   7   8
ATOM      8  C   UNL     1       4.776   4.496  17.737  0.00  0.00    +0.000 A 
ATOM      9  C   UNL     1       5.646   5.545  18.080  0.00  0.00    +0.000 A 
ATOM     10  C   UNL     1       6.645   5.977  17.203  0.00  0.00    +0.000 A 
ATOM     11 CL   UNL     1       7.694   7.260  17.669  0.00  0.00    +0.000 Cl
ATOM     12  C   UNL     1       6.813   5.369  15.967  0.00  0.00    +0.000 A 
ATOM     13  C   UNL     1       5.953   4.339  15.608  0.00  0.00    +0.000 A 
ATOM     14 CL   UNL     1       6.141   3.573  14.078  0.00  0.00    +0.000 Cl
ATOM     15  C   UNL     1       4.940   3.909  16.474  0.00  0.00    +0.000 A 
ENDBRANCH   7   8
BRANCH   2  16
ATOM     16  C   UNL     1       2.096   5.825  19.312  0.00  0.00    +0.000 A 
ATOM     17  C   UNL     1       2.293   7.047  18.633  0.00  0.00    +0.000 A 
ATOM     18  C   UNL     1       2.005   8.275  19.238  0.00  0.00    +0.000 A 
ATOM     19  C   UNL     1       1.498   8.311  20.531  0.00  0.00    +0.000 A 
ATOM     20  C   UNL     1       1.281   7.123  21.220  0.00  0.00    +0.000 A 
ATOM     21  C   UNL     1       1.577   5.895  20.619  0.00  0.00    +0.000 A 
ENDBRANCH   2  16
TORSDOF 2
ENDMDL
MODEL 2
REMARK VINA RESULT:      -7.9      0.158      1.966
REMARK  Name = 
REMARK  3 active torsions:
REMARK  status: ('A' for Active; 'I' for Inactive)
REMARK    1  A    between atoms: C_1  and  C_2
REMARK    2  A    between atoms: C_2  and  C_3
REMARK    3  A    between atoms: N_13  and  C_14
REMARK                            x       y       z     vdW  Elec       q    Type
REMARK                         _______ _______ _______ _____ _____    ______ ____
ROOT
ATOM      1  C   UNL     1       1.913   4.310  17.154  0.00  0.00    +0.000 C 
ATOM      2  C   UNL     1       2.429   4.378  18.612  0.00  0.00    +0.000 C 
ATOM      3  S   UNL     1       1.450   3.082  19.503  0.00  0.00    +0.000 S 
ATOM      4  C   UNL     1       2.839   2.602  20.522  0.00  0.00    +0.000 C 
ATOM      5  C   UNL     1       4.087   3.004  19.775  0.00  0.00    +0.000 C 
ATOM      6  O   UNL     1       5.189   2.604  20.137  0.00  0.00    +0.000 OA
ATOM      7  N   UNL     1       3.829   3.911  18.730  0.00  0.00    +0.000 N 
ENDROOT
BRANCH   7   8
ATOM      8  C   UNL     1       4.879   4.373  17.861  0.00  0.00    +0.000 A 
ATOM      9  C   UNL     1       5.032   3.831  16.573  0.00  0.00    +0.000 A 
ATOM     10  C   UNL     1       6.018   4.299  15.700  0.00  0.00    +0.000 A 
ATOM     11 CL   UNL     1       6.164   3.612  14.128  0.00  0.00    +0.000 Cl
ATOM     12  C   UNL     1       6.872   5.325  16.081  0.00  0.00    +0.000 A 
ATOM     13  C   UNL     1       6.741   5.862  17.355  0.00  0.00    +0.000 A 
ATOM     14 CL   UNL     1       7.790   7.134  17.849  0.00  0.00    +0.000 Cl
ATOM     15  C   UNL     1       5.765   5.391  18.241  0.00  0.00    +0.000 A 
ENDBRANCH   7   8
BRANCH   2  16
ATOM     16  C   UNL     1       2.141   5.720  19.317  0.00  0.00    +0.000 A 
ATOM     17  C   UNL     1       2.340   6.950  18.653  0.00  0.00    +0.000 A 
ATOM     18  C   UNL     1       2.039   8.170  19.268  0.00  0.00    +0.000 A 
ATOM     19  C   UNL     1       1.517   8.191  20.555  0.00  0.00    +0.000 A 
ATOM     20  C   UNL     1       1.299   6.994  21.229  0.00  0.00    +0.000 A 
ATOM     21  C   UNL     1       1.607   5.774  20.619  0.00  0.00    +0.000 A 
ENDBRANCH   2  16
TORSDOF 2
ENDMDL
MODEL 3
REMARK VINA RESULT:      -7.8      0.170      2.229
REMARK  Name = 
REMARK  3 active torsions:
REMARK  status: ('A' for Active; 'I' for Inactive)
REMARK    1  A    between atoms: C_1  and  C_2
REMARK    2  A    between atoms: C_2  and  C_3
REMARK    3  A    between atoms: N_13  and  C_14
REMARK                            x       y       z     vdW  Elec       q    Type
REMARK                         _______ _______ _______ _____ _____    ______ ____
ROOT
ATOM      1  C   UNL     1       1.924   4.210  17.100  0.00  0.00    +0.000 C 
ATOM      2  C   UNL     1       2.421   4.326  18.562  0.00  0.00    +0.000 C 
ATOM      3  S   UNL     1       1.470   3.022  19.471  0.00  0.00    +0.000 S 
ATOM      4  C   UNL     1       2.860   2.606  20.515  0.00  0.00    +0.000 C 
ATOM      5  C   UNL     1       4.105   3.027  19.773  0.00  0.00    +0.000 C 
ATOM      6  O   UNL     1       5.214   2.667  20.156  0.00  0.00    +0.000 OA
ATOM      7  N   UNL     1       3.833   3.902  18.705  0.00  0.00    +0.000 N 
ENDROOT
BRANCH   7   8
ATOM      8  C   UNL     1       4.879   4.374  17.837  0.00  0.00    +0.000 A 
ATOM      9  C   UNL     1       5.034   3.840  16.546  0.00  0.00    +0.000 A 
ATOM     10  C   UNL     1       6.016   4.318  15.674  0.00  0.00    +0.000 A 
ATOM     11 CL   UNL     1       6.164   3.639  14.099  0.00  0.00    +0.000 Cl
ATOM     12  C   UNL     1       6.864   5.347  16.059  0.00  0.00    +0.000 A 
ATOM     13  C   UNL     1       6.731   5.877  17.336  0.00  0.00    +0.000 A 
ATOM     14 CL   UNL     1       7.774   7.153  17.835  0.00  0.00    +0.000 Cl
ATOM     15  C   UNL     1       5.759   5.396  18.221  0.00  0.00    +0.000 A 
ENDBRANCH   7   8
BRANCH   2  16
ATOM     16  C   UNL     1       2.087   5.674  19.232  0.00  0.00    +0.000 A 
ATOM     17  C   UNL     1       1.600   5.730  20.556  0.00  0.00    +0.000 A 
ATOM     18  C   UNL     1       1.338   6.949  21.188  0.00  0.00    +0.000 A 
ATOM     19  C   UNL     1       1.569   8.144  20.519  0.00  0.00    +0.000 A 
ATOM     20  C   UNL     1       2.060   8.122  19.218  0.00  0.00    +0.000 A 
ATOM     21  C   UNL     1       2.315   6.903  18.582  0.00  0.00    +0.000 A 
ENDBRANCH   2  16
TORSDOF 2
ENDMDL
MODEL 4
REMARK VINA RESULT:      -7.8      0.082      1.052
REMARK  Name = 
REMARK  3 active torsions:
REMARK  status: ('A' for Active; 'I' for Inactive)
REMARK    1  A    between atoms: C_1  and  C_2
REMARK    2  A    between atoms: C_2  and  C_3
REMARK    3  A    between atoms: N_13  and  C_14
REMARK                            x       y       z     vdW  Elec       q    Type
REMARK                         _______ _______ _______ _____ _____    ______ ____
ROOT
ATOM      1  C   UNL     1       1.801   4.266  17.134  0.00  0.00    +0.000 C 
ATOM      2  C   UNL     1       2.359   4.392  18.573  0.00  0.00    +0.000 C 
ATOM      3  S   UNL     1       1.456   3.086  19.528  0.00  0.00    +0.000 S 
ATOM      4  C   UNL     1       2.892   2.684  20.514  0.00  0.00    +0.000 C 
ATOM      5  C   UNL     1       4.101   3.109  19.717  0.00  0.00    +0.000 C 
ATOM      6  O   UNL     1       5.228   2.759  20.054  0.00  0.00    +0.000 OA
ATOM      7  N   UNL     1       3.778   3.978  18.658  0.00  0.00    +0.000 N 
ENDROOT
BRANCH   7   8
ATOM      8  C   UNL     1       4.783   4.453  17.744  0.00  0.00    +0.000 A 
ATOM      9  C   UNL     1       5.648   5.498  18.112  0.00  0.00    +0.000 A 
ATOM     10  C   UNL     1       6.658   5.942  17.253  0.00  0.00    +0.000 A 
ATOM     11 CL   UNL     1       7.700   7.219  17.749  0.00  0.00    +0.000 Cl
ATOM     12  C   UNL     1       6.841   5.352  16.011  0.00  0.00    +0.000 A 
ATOM     13  C   UNL     1       5.986   4.326  15.628  0.00  0.00    +0.000 A 
ATOM     14 CL   UNL     1       6.193   3.581  14.090  0.00  0.00    +0.000 Cl
ATOM     15  C   UNL     1       4.963   3.884  16.475  0.00  0.00    +0.000 A 
ENDBRANCH   7   8
BRANCH   2  16
ATOM     16  C   UNL     1       2.045   5.741  19.252  0.00  0.00    +0.000 A 
ATOM     17  C   UNL     1       1.579   5.797  20.583  0.00  0.00    +0.000 A 
ATOM     18  C   UNL     1       1.335   7.017  21.222  0.00  0.00    +0.000 A 
ATOM     19  C   UNL     1       1.564   8.212  20.552  0.00  0.00    +0.000 A 
ATOM     20  C   UNL     1       2.035   8.189  19.243  0.00  0.00    +0.000 A 
ATOM     21  C   UNL     1       2.271   6.969  18.600  0.00  0.00    +0.000 A 
ENDBRANCH   2  16
TORSDOF 2
ENDMDL
MODEL 5
REMARK VINA RESULT:      -7.3      3.292      5.834
REMARK  Name = 
REMARK  3 active torsions:
REMARK  status: ('A' for Active; 'I' for Inactive)
REMARK    1  A    between atoms: C_1  and  C_2
REMARK    2  A    between atoms: C_2  and  C_3
REMARK    3  A    between atoms: N_13  and  C_14
REMARK                            x       y       z     vdW  Elec       q    Type
REMARK                         _______ _______ _______ _____ _____    ______ ____
ROOT
ATOM      1  C   UNL     1       4.460   7.246  16.995  0.00  0.00    +0.000 C 
ATOM      2  C   UNL     1       5.756   6.408  17.120  0.00  0.00    +0.000 C 
ATOM      3  S   UNL     1       7.102   7.672  17.270  0.00  0.00    +0.000 S 
ATOM      4  C   UNL     1       8.024   6.684  18.442  0.00  0.00    +0.000 C 
ATOM      5  C   UNL     1       7.036   5.753  19.101  0.00  0.00    +0.000 C 
ATOM      6  O   UNL     1       7.351   5.112  20.099  0.00  0.00    +0.000 OA
ATOM      7  N   UNL     1       5.818   5.668  18.401  0.00  0.00    +0.000 N 
ENDROOT
BRANCH   7   8
ATOM      8  C   UNL     1       4.723   4.876  18.896  0.00  0.00    +0.000 A 
ATOM      9  C   UNL     1       3.681   5.473  19.627  0.00  0.00    +0.000 A 
ATOM     10  C   UNL     1       2.588   4.727  20.077  0.00  0.00    +0.000 A 
ATOM     11 CL   UNL     1       1.331   5.502  20.962  0.00  0.00    +0.000 Cl
ATOM     12  C   UNL     1       2.497   3.369  19.803  0.00  0.00    +0.000 A 
ATOM     13  C   UNL     1       3.525   2.763  19.093  0.00  0.00    +0.000 A 
ATOM     14 CL   UNL     1       3.433   1.079  18.745  0.00  0.00    +0.000 Cl
ATOM     15  C   UNL     1       4.630   3.499  18.650  0.00  0.00    +0.000 A 
ENDBRANCH   7   8
BRANCH   2  16
ATOM     16  C   UNL     1       6.076   5.558  15.874  0.00  0.00    +0.000 A 
ATOM     17  C   UNL     1       5.102   4.716  15.295  0.00  0.00    +0.000 A 
ATOM     18  C   UNL     1       5.368   3.976  14.139  0.00  0.00    +0.000 A 
ATOM     19  C   UNL     1       6.609   4.071  13.523  0.00  0.00    +0.000 A 
ATOM     20  C   UNL     1       7.585   4.901  14.062  0.00  0.00    +0.000 A 
ATOM     21  C   UNL     1       7.323   5.635  15.224  0.00  0.00    +0.000 A 
ENDBRANCH   2  16
TORSDOF 2
ENDMDL
MODEL 6
REMARK VINA RESULT:      -7.2      3.292      6.073
REMARK  Name = 
REMARK  3 active torsions:
REMARK  status: ('A' for Active; 'I' for Inactive)
REMARK    1  A    between atoms: C_1  and  C_2
REMARK    2  A    between atoms: C_2  and  C_3
REMARK    3  A    between atoms: N_13  and  C_14
REMARK                            x       y       z     vdW  Elec       q    Type
REMARK                         _______ _______ _______ _____ _____    ______ ____
ROOT
ATOM      1  C   UNL     1       4.461   7.273  16.933  0.00  0.00    +0.000 C 
ATOM      2  C   UNL     1       5.744   6.417  17.077  0.00  0.00    +0.000 C 
ATOM      3  S   UNL     1       7.104   7.662  17.256  0.00  0.00    +0.000 S 
ATOM      4  C   UNL     1       7.992   6.657  18.439  0.00  0.00    +0.000 C 
ATOM      5  C   UNL     1       6.981   5.737  19.077  0.00  0.00    +0.000 C 
ATOM      6  O   UNL     1       7.269   5.087  20.077  0.00  0.00    +0.000 OA
ATOM      7  N   UNL     1       5.774   5.670  18.356  0.00  0.00    +0.000 N 
ENDROOT
BRANCH   7   8
ATOM      8  C   UNL     1       4.660   4.891  18.828  0.00  0.00    +0.000 A 
ATOM      9  C   UNL     1       4.604   3.506  18.592  0.00  0.00    +0.000 A 
ATOM     10  C   UNL     1       3.551   2.728  19.082  0.00  0.00    +0.000 A 
ATOM     11 CL   UNL     1       3.528   1.034  18.776  0.00  0.00    +0.000 Cl
ATOM     12  C   UNL     1       2.532   3.303  19.827  0.00  0.00    +0.000 A 
ATOM     13  C   UNL     1       2.567   4.673  20.057  0.00  0.00    +0.000 A 
ATOM     14 CL   UNL     1       1.311   5.408  20.978  0.00  0.00    +0.000 Cl
ATOM     15  C   UNL     1       3.610   5.463  19.560  0.00  0.00    +0.000 A 
ENDBRANCH   7   8
BRANCH   2  16
ATOM     16  C   UNL     1       6.074   5.568  15.833  0.00  0.00    +0.000 A 
ATOM     17  C   UNL     1       5.115   4.703  15.263  0.00  0.00    +0.000 A 
ATOM     18  C   UNL     1       5.390   3.964  14.109  0.00  0.00    +0.000 A 
ATOM     19  C   UNL     1       6.625   4.082  13.485  0.00  0.00    +0.000 A 
ATOM     20  C   UNL     1       7.586   4.936  14.015  0.00  0.00    +0.000 A 
ATOM     21  C   UNL     1       7.316   5.669  15.175  0.00  0.00    +0.000 A 
ENDBRANCH   2  16
TORSDOF 2
ENDMDL
MODEL 7
REMARK VINA RESULT:      -7.1      3.310      5.770
REMARK  Name = 
REMARK  3 active torsions:
REMARK  status: ('A' for Active; 'I' for Inactive)
REMARK    1  A    between atoms: C_1  and  C_2
REMARK    2  A    between atoms: C_2  and  C_3
REMARK    3  A    between atoms: N_13  and  C_14
REMARK                            x       y       z     vdW  Elec       q    Type
REMARK                         _______ _______ _______ _____ _____    ______ ____
ROOT
ATOM      1  C   UNL     1       4.368   7.248  17.054  0.00  0.00    +0.000 C 
ATOM      2  C   UNL     1       5.686   6.439  17.132  0.00  0.00    +0.000 C 
ATOM      3  S   UNL     1       7.005   7.730  17.288  0.00  0.00    +0.000 S 
ATOM      4  C   UNL     1       7.974   6.736  18.415  0.00  0.00    +0.000 C 
ATOM      5  C   UNL     1       7.022   5.765  19.069  0.00  0.00    +0.000 C 
ATOM      6  O   UNL     1       7.372   5.106  20.044  0.00  0.00    +0.000 OA
ATOM      7  N   UNL     1       5.792   5.668  18.392  0.00  0.00    +0.000 N 
ENDROOT
BRANCH   7   8
ATOM      8  C   UNL     1       4.726   4.838  18.888  0.00  0.00    +0.000 A 
ATOM      9  C   UNL     1       3.665   5.397  19.621  0.00  0.00    +0.000 A 
ATOM     10  C   UNL     1       2.600   4.612  20.072  0.00  0.00    +0.000 A 
ATOM     11 CL   UNL     1       1.317   5.342  20.958  0.00  0.00    +0.000 Cl
ATOM     12  C   UNL     1       2.557   3.253  19.798  0.00  0.00    +0.000 A 
ATOM     13  C   UNL     1       3.604   2.683  19.086  0.00  0.00    +0.000 A 
ATOM     14 CL   UNL     1       3.572   0.997  18.737  0.00  0.00    +0.000 Cl
ATOM     15  C   UNL     1       4.682   3.458  18.642  0.00  0.00    +0.000 A 
ENDBRANCH   7   8
BRANCH   2  16
ATOM     16  C   UNL     1       6.000   5.628  15.858  0.00  0.00    +0.000 A 
ATOM     17  C   UNL     1       7.285   5.657  15.273  0.00  0.00    +0.000 A 
ATOM     18  C   UNL     1       7.592   4.891  14.145  0.00  0.00    +0.000 A 
ATOM     19  C   UNL     1       6.629   4.064  13.581  0.00  0.00    +0.000 A 
ATOM     20  C   UNL     1       5.358   4.005  14.142  0.00  0.00    +0.000 A 
ATOM     21  C   UNL     1       5.046   4.778  15.266  0.00  0.00    +0.000 A 
ENDBRANCH   2  16
TORSDOF 2
ENDMDL
MODEL 8
REMARK VINA RESULT:      -7.0      3.305      6.012
REMARK  Name = 
REMARK  3 active torsions:
REMARK  status: ('A' for Active; 'I' for Inactive)
REMARK    1  A    between atoms: C_1  and  C_2
REMARK    2  A    between atoms: C_2  and  C_3
REMARK    3  A    between atoms: N_13  and  C_14
REMARK                            x       y       z     vdW  Elec       q    Type
REMARK                         _______ _______ _______ _____ _____    ______ ____
ROOT
ATOM      1  C   UNL     1       4.386   7.290  16.978  0.00  0.00    +0.000 C 
ATOM      2  C   UNL     1       5.684   6.451  17.080  0.00  0.00    +0.000 C 
ATOM      3  S   UNL     1       7.028   7.713  17.260  0.00  0.00    +0.000 S 
ATOM      4  C   UNL     1       7.954   6.698  18.405  0.00  0.00    +0.000 C 
ATOM      5  C   UNL     1       6.968   5.749  19.041  0.00  0.00    +0.000 C 
ATOM      6  O   UNL     1       7.286   5.083  20.022  0.00  0.00    +0.000 OA
ATOM      7  N   UNL     1       5.749   5.679  18.342  0.00  0.00    +0.000 N 
ENDROOT
BRANCH   7   8
ATOM      8  C   UNL     1       4.656   4.872  18.818  0.00  0.00    +0.000 A 
ATOM      9  C   UNL     1       4.627   3.489  18.572  0.00  0.00    +0.000 A 
ATOM     10  C   UNL     1       3.596   2.685  19.065  0.00  0.00    +0.000 A 
ATOM     11 CL   UNL     1       3.605   0.993  18.746  0.00  0.00    +0.000 Cl
ATOM     12  C   UNL     1       2.572   3.233  19.825  0.00  0.00    +0.000 A 
ATOM     13  C   UNL     1       2.581   4.600  20.066  0.00  0.00    +0.000 A 
ATOM     14 CL   UNL     1       1.319   5.302  21.005  0.00  0.00    +0.000 Cl
ATOM     15  C   UNL     1       3.602   5.416  19.565  0.00  0.00    +0.000 A 
ENDBRANCH   7   8
BRANCH   2  16
ATOM     16  C   UNL     1       6.003   5.634  15.812  0.00  0.00    +0.000 A 
ATOM     17  C   UNL     1       7.290   5.659  15.233  0.00  0.00    +0.000 A 
ATOM     18  C   UNL     1       7.602   4.886  14.110  0.00  0.00    +0.000 A 
ATOM     19  C   UNL     1       6.641   4.057  13.547  0.00  0.00    +0.000 A 
ATOM     20  C   UNL     1       5.368   4.002  14.102  0.00  0.00    +0.000 A 
ATOM     21  C   UNL     1       5.052   4.780  15.220  0.00  0.00    +0.000 A 
ENDBRANCH   2  16
TORSDOF 2
ENDMDL
MODEL 9
REMARK VINA RESULT:      -6.3      7.471      9.608
REMARK  Name = 
REMARK  3 active torsions:
REMARK  status: ('A' for Active; 'I' for Inactive)
REMARK    1  A    between atoms: C_1  and  C_2
REMARK    2  A    between atoms: C_2  and  C_3
REMARK    3  A    between atoms: N_13  and  C_14
REMARK                            x       y       z     vdW  Elec       q    Type
REMARK                         _______ _______ _______ _____ _____    ______ ____
ROOT
ATOM      1  C   UNL     1       0.220   9.616  18.037  0.00  0.00    +0.000 C 
ATOM      2  C   UNL     1       0.188  10.828  18.999  0.00  0.00    +0.000 C 
ATOM      3  S   UNL     1       1.899  11.531  18.902  0.00  0.00    +0.000 S 
ATOM      4  C   UNL     1       1.312  13.217  19.014  0.00  0.00    +0.000 C 
ATOM      5  C   UNL     1      -0.120  13.212  18.539  0.00  0.00    +0.000 C 
ATOM      6  O   UNL     1      -0.706  14.265  18.305  0.00  0.00    +0.000 OA
ATOM      7  N   UNL     1      -0.675  11.919  18.492  0.00  0.00    +0.000 N 
ENDROOT
BRANCH   7   8
ATOM      8  C   UNL     1      -2.013  11.694  18.011  0.00  0.00    +0.000 A 
ATOM      9  C   UNL     1      -2.233  11.217  16.707  0.00  0.00    +0.000 A 
ATOM     10  C   UNL     1      -3.523  10.951  16.240  0.00  0.00    +0.000 A 
ATOM     11 CL   UNL     1      -3.746  10.360  14.638  0.00  0.00    +0.000 Cl
ATOM     12  C   UNL     1      -4.627  11.142  17.059  0.00  0.00    +0.000 A 
ATOM     13  C   UNL     1      -4.426  11.624  18.346  0.00  0.00    +0.000 A 
ATOM     14 CL   UNL     1      -5.781  11.871  19.379  0.00  0.00    +0.000 Cl
ATOM     15  C   UNL     1      -3.138  11.907  18.818  0.00  0.00    +0.000 A 
ENDBRANCH   7   8
BRANCH   2  16
ATOM     16  C   UNL     1      -0.058  10.451  20.475  0.00  0.00    +0.000 A 
ATOM     17  C   UNL     1       0.330   9.192  20.980  0.00  0.00    +0.000 A 
ATOM     18  C   UNL     1       0.152   8.858  22.326  0.00  0.00    +0.000 A 
ATOM     19  C   UNL     1      -0.404   9.779  23.205  0.00  0.00    +0.000 A 
ATOM     20  C   UNL     1      -0.785  11.032  22.738  0.00  0.00    +0.000 A 
ATOM     21  C   UNL     1      -0.616  11.365  21.390  0.00  0.00    +0.000 A 
ENDBRANCH   2  16
TORSDOF 2
ENDMDL
