MODEL 1
REMARK VINA RESULT:      -7.2      0.000      0.000
REMARK  Name = 
REMARK  1 active torsions:
REMARK  status: ('A' for Active; 'I' for Inactive)
REMARK    1  A    between atoms: C_5  and  N_6
REMARK                            x       y       z     vdW  Elec       q    Type
REMARK                         _______ _______ _______ _____ _____    ______ ____
ROOT
ATOM      1  N   UNL     1       4.956   4.558  17.553  0.00  0.00    +0.000 N 
ATOM      2  C   UNL     1       5.476   4.583  16.302  0.00  0.00    +0.000 A 
ATOM      3  N   UNL     1       4.957   4.011  15.235  0.00  0.00    +0.000 NA
ATOM      4  C   UNL     1       5.778   4.169  14.150  0.00  0.00    +0.000 A 
ATOM      5  C   UNL     1       6.927   4.891  14.380  0.00  0.00    +0.000 A 
ATOM      6  S   UNL     1       6.993   5.377  16.008  0.00  0.00    +0.000 S 
ATOM      7  C   UNL     1       7.990   5.151  13.367  0.00  0.00    +0.000 C 
ATOM      8  C   UNL     1       7.471   4.817  11.953  0.00  0.00    +0.000 C 
ATOM      9  C   UNL     1       6.657   3.511  11.917  0.00  0.00    +0.000 C 
ATOM     10  C   UNL     1       5.420   3.588  12.827  0.00  0.00    +0.000 C 
ATOM     11  H   UNL     1       5.539   4.885  18.309  0.00  0.00    +0.000 HD
ENDROOT
BRANCH   1  16
ATOM     12  F   UNL     1       0.229   1.952  18.857  0.00  0.00    +0.000 F 
ATOM     13  C   UNL     1       1.365   2.600  18.570  0.00  0.00    +0.000 A 
ATOM     14  C   UNL     1       2.582   1.943  18.698  0.00  0.00    +0.000 A 
ATOM     15  C   UNL     1       3.768   2.615  18.385  0.00  0.00    +0.000 A 
ATOM     16  C   UNL     1       3.747   3.947  17.943  0.00  0.00    +0.000 A 
ATOM     17  C   UNL     1       2.499   4.583  17.830  0.00  0.00    +0.000 A 
ATOM     18  C   UNL     1       1.312   3.916  18.142  0.00  0.00    +0.000 A 
ENDBRANCH   1  16
TORSDOF 1
ENDMDL
MODEL 2
REMARK VINA RESULT:      -7.1      4.184      7.133
REMARK  Name = 
REMARK  1 active torsions:
REMARK  status: ('A' for Active; 'I' for Inactive)
REMARK    1  A    between atoms: C_5  and  N_6
REMARK                            x       y       z     vdW  Elec       q    Type
REMARK                         _______ _______ _______ _____ _____    ______ ____
ROOT
ATOM      1  N   UNL     1       5.443   4.798  17.111  0.00  0.00    +0.000 N 
ATOM      2  C   UNL     1       4.356   4.409  17.820  0.00  0.00    +0.000 A 
ATOM      3  N   UNL     1       4.019   4.835  19.020  0.00  0.00    +0.000 NA
ATOM      4  C   UNL     1       2.905   4.181  19.475  0.00  0.00    +0.000 A 
ATOM      5  C   UNL     1       2.367   3.260  18.606  0.00  0.00    +0.000 A 
ATOM      6  S   UNL     1       3.289   3.198  17.178  0.00  0.00    +0.000 S 
ATOM      7  C   UNL     1       1.188   2.395  18.899  0.00  0.00    +0.000 C 
ATOM      8  C   UNL     1       0.443   2.916  20.146  0.00  0.00    +0.000 C 
ATOM      9  C   UNL     1       1.405   3.340  21.272  0.00  0.00    +0.000 C 
ATOM     10  C   UNL     1       2.342   4.471  20.821  0.00  0.00    +0.000 C 
ATOM     11  H   UNL     1       5.678   4.268  16.285  0.00  0.00    +0.000 HD
ENDROOT
BRANCH   1  16
ATOM     12  F   UNL     1       9.071   8.584  18.941  0.00  0.00    +0.000 F 
ATOM     13  C   UNL     1       8.213   7.669  18.470  0.00  0.00    +0.000 A 
ATOM     14  C   UNL     1       8.189   6.398  19.031  0.00  0.00    +0.000 A 
ATOM     15  C   UNL     1       7.284   5.447  18.550  0.00  0.00    +0.000 A 
ATOM     16  C   UNL     1       6.399   5.756  17.506  0.00  0.00    +0.000 A 
ATOM     17  C   UNL     1       6.455   7.050  16.958  0.00  0.00    +0.000 A 
ATOM     18  C   UNL     1       7.357   8.003  17.434  0.00  0.00    +0.000 A 
ENDBRANCH   1  16
TORSDOF 1
ENDMDL
MODEL 3
REMARK VINA RESULT:      -7.1      0.134      1.176
REMARK  Name = 
REMARK  1 active torsions:
REMARK  status: ('A' for Active; 'I' for Inactive)
REMARK    1  A    between atoms: C_5  and  N_6
REMARK                            x       y       z     vdW  Elec       q    Type
REMARK                         _______ _______ _______ _____ _____    ______ ____
ROOT
ATOM      1  N   UNL     1       4.923   4.475  17.515  0.00  0.00    +0.000 N 
ATOM      2  C   UNL     1       5.459   4.529  16.272  0.00  0.00    +0.000 A 
ATOM      3  N   UNL     1       4.968   3.960  15.190  0.00  0.00    +0.000 NA
ATOM      4  C   UNL     1       5.799   4.150  14.118  0.00  0.00    +0.000 A 
ATOM      5  C   UNL     1       6.928   4.894  14.373  0.00  0.00    +0.000 A 
ATOM      6  S   UNL     1       6.961   5.360  16.009  0.00  0.00    +0.000 S 
ATOM      7  C   UNL     1       7.999   5.191  13.379  0.00  0.00    +0.000 C 
ATOM      8  C   UNL     1       7.507   4.865  11.953  0.00  0.00    +0.000 C 
ATOM      9  C   UNL     1       6.722   3.541  11.890  0.00  0.00    +0.000 C 
ATOM     10  C   UNL     1       5.472   3.580  12.784  0.00  0.00    +0.000 C 
ATOM     11  H   UNL     1       5.489   4.805  18.282  0.00  0.00    +0.000 HD
ENDROOT
BRANCH   1  16
ATOM     12  F   UNL     1       0.165   2.146  19.180  0.00  0.00    +0.000 F 
ATOM     13  C   UNL     1       1.314   2.686  18.753  0.00  0.00    +0.000 A 
ATOM     14  C   UNL     1       1.312   3.967  18.215  0.00  0.00    +0.000 A 
ATOM     15  C   UNL     1       2.513   4.537  17.781  0.00  0.00    +0.000 A 
ATOM     16  C   UNL     1       3.723   3.832  17.880  0.00  0.00    +0.000 A 
ATOM     17  C   UNL     1       3.687   2.537  18.425  0.00  0.00    +0.000 A 
ATOM     18  C   UNL     1       2.490   1.963  18.858  0.00  0.00    +0.000 A 
ENDBRANCH   1  16
TORSDOF 1
ENDMDL
MODEL 4
REMARK VINA RESULT:      -6.9      4.299      7.268
REMARK  Name = 
REMARK  1 active torsions:
REMARK  status: ('A' for Active; 'I' for Inactive)
REMARK    1  A    between atoms: C_5  and  N_6
REMARK                            x       y       z     vdW  Elec       q    Type
REMARK                         _______ _______ _______ _____ _____    ______ ____
ROOT
ATOM      1  N   UNL     1       5.368   4.964  17.241  0.00  0.00    +0.000 N 
ATOM      2  C   UNL     1       4.290   4.496  17.916  0.00  0.00    +0.000 A 
ATOM      3  N   UNL     1       3.944   4.819  19.146  0.00  0.00    +0.000 NA
ATOM      4  C   UNL     1       2.845   4.106  19.546  0.00  0.00    +0.000 A 
ATOM      5  C   UNL     1       2.327   3.244  18.606  0.00  0.00    +0.000 A 
ATOM      6  S   UNL     1       3.250   3.316  17.179  0.00  0.00    +0.000 S 
ATOM      7  C   UNL     1       1.168   2.334  18.829  0.00  0.00    +0.000 C 
ATOM      8  C   UNL     1       0.412   2.738  20.112  0.00  0.00    +0.000 C 
ATOM      9  C   UNL     1       1.365   3.093  21.269  0.00  0.00    +0.000 C 
ATOM     10  C   UNL     1       2.276   4.277  20.910  0.00  0.00    +0.000 C 
ATOM     11  H   UNL     1       5.614   4.505  16.377  0.00  0.00    +0.000 HD
ENDROOT
BRANCH   1  16
ATOM     12  F   UNL     1       9.183   8.678  18.819  0.00  0.00    +0.000 F 
ATOM     13  C   UNL     1       8.248   7.786  18.469  0.00  0.00    +0.000 A 
ATOM     14  C   UNL     1       7.315   8.115  17.493  0.00  0.00    +0.000 A 
ATOM     15  C   UNL     1       6.347   7.179  17.117  0.00  0.00    +0.000 A 
ATOM     16  C   UNL     1       6.302   5.909  17.712  0.00  0.00    +0.000 A 
ATOM     17  C   UNL     1       7.258   5.610  18.699  0.00  0.00    +0.000 A 
ATOM     18  C   UNL     1       8.226   6.543  19.079  0.00  0.00    +0.000 A 
ENDBRANCH   1  16
TORSDOF 1
ENDMDL
MODEL 5
REMARK VINA RESULT:      -6.8      3.287      6.762
REMARK  Name = 
REMARK  1 active torsions:
REMARK  status: ('A' for Active; 'I' for Inactive)
REMARK    1  A    between atoms: C_5  and  N_6
REMARK                            x       y       z     vdW  Elec       q    Type
REMARK                         _______ _______ _______ _____ _____    ______ ____
ROOT
ATOM      1  N   UNL     1       5.594   3.430  16.600  0.00  0.00    +0.000 N 
ATOM      2  C   UNL     1       4.718   4.062  17.418  0.00  0.00    +0.000 A 
ATOM      3  N   UNL     1       4.171   5.241  17.207  0.00  0.00    +0.000 NA
ATOM      4  C   UNL     1       3.391   5.615  18.269  0.00  0.00    +0.000 A 
ATOM      5  C   UNL     1       3.319   4.703  19.297  0.00  0.00    +0.000 A 
ATOM      6  S   UNL     1       4.266   3.338  18.932  0.00  0.00    +0.000 S 
ATOM      7  C   UNL     1       2.573   4.908  20.572  0.00  0.00    +0.000 C 
ATOM      8  C   UNL     1       1.613   6.109  20.439  0.00  0.00    +0.000 C 
ATOM      9  C   UNL     1       2.258   7.300  19.706  0.00  0.00    +0.000 C 
ATOM     10  C   UNL     1       2.684   6.924  18.278  0.00  0.00    +0.000 C 
ATOM     11  H   UNL     1       6.068   2.616  16.962  0.00  0.00    +0.000 HD
ENDROOT
BRANCH   1  16
ATOM     12  F   UNL     1       7.533   4.989  11.636  0.00  0.00    +0.000 F 
ATOM     13  C   UNL     1       7.052   4.644  12.837  0.00  0.00    +0.000 A 
ATOM     14  C   UNL     1       6.008   3.732  12.923  0.00  0.00    +0.000 A 
ATOM     15  C   UNL     1       5.514   3.361  14.177  0.00  0.00    +0.000 A 
ATOM     16  C   UNL     1       6.059   3.897  15.355  0.00  0.00    +0.000 A 
ATOM     17  C   UNL     1       7.112   4.821  15.231  0.00  0.00    +0.000 A 
ATOM     18  C   UNL     1       7.607   5.196  13.980  0.00  0.00    +0.000 A 
ENDBRANCH   1  16
TORSDOF 1
ENDMDL
MODEL 6
REMARK VINA RESULT:      -6.7      2.926      6.631
REMARK  Name = 
REMARK  1 active torsions:
REMARK  status: ('A' for Active; 'I' for Inactive)
REMARK    1  A    between atoms: C_5  and  N_6
REMARK                            x       y       z     vdW  Elec       q    Type
REMARK                         _______ _______ _______ _____ _____    ______ ____
ROOT
ATOM      1  N   UNL     1       5.154   5.613  16.180  0.00  0.00    +0.000 N 
ATOM      2  C   UNL     1       4.272   5.043  17.037  0.00  0.00    +0.000 A 
ATOM      3  N   UNL     1       3.766   3.831  16.935  0.00  0.00    +0.000 NA
ATOM      4  C   UNL     1       2.850   3.601  17.928  0.00  0.00    +0.000 A 
ATOM      5  C   UNL     1       2.670   4.637  18.815  0.00  0.00    +0.000 A 
ATOM      6  S   UNL     1       3.666   5.949  18.389  0.00  0.00    +0.000 S 
ATOM      7  C   UNL     1       1.696   4.636  19.944  0.00  0.00    +0.000 C 
ATOM      8  C   UNL     1       1.181   3.204  20.202  0.00  0.00    +0.000 C 
ATOM      9  C   UNL     1       0.871   2.446  18.897  0.00  0.00    +0.000 C 
ATOM     10  C   UNL     1       2.120   2.307  18.012  0.00  0.00    +0.000 C 
ATOM     11  H   UNL     1       5.325   6.603  16.276  0.00  0.00    +0.000 HD
ENDROOT
BRANCH   1  16
ATOM     12  F   UNL     1       7.405   3.511  11.560  0.00  0.00    +0.000 F 
ATOM     13  C   UNL     1       6.863   3.987  12.687  0.00  0.00    +0.000 A 
ATOM     14  C   UNL     1       7.608   4.825  13.508  0.00  0.00    +0.000 A 
ATOM     15  C   UNL     1       7.038   5.334  14.679  0.00  0.00    +0.000 A 
ATOM     16  C   UNL     1       5.720   5.009  15.040  0.00  0.00    +0.000 A 
ATOM     17  C   UNL     1       4.997   4.155  14.189  0.00  0.00    +0.000 A 
ATOM     18  C   UNL     1       5.563   3.644  13.019  0.00  0.00    +0.000 A 
ENDBRANCH   1  16
TORSDOF 1
ENDMDL
MODEL 7
REMARK VINA RESULT:      -6.5      3.345      6.814
REMARK  Name = 
REMARK  1 active torsions:
REMARK  status: ('A' for Active; 'I' for Inactive)
REMARK    1  A    between atoms: C_5  and  N_6
REMARK                            x       y       z     vdW  Elec       q    Type
REMARK                         _______ _______ _______ _____ _____    ______ ____
ROOT
ATOM      1  N   UNL     1       5.263   3.335  17.034  0.00  0.00    +0.000 N 
ATOM      2  C   UNL     1       4.390   4.041  17.793  0.00  0.00    +0.000 A 
ATOM      3  N   UNL     1       4.024   5.291  17.595  0.00  0.00    +0.000 NA
ATOM      4  C   UNL     1       3.186   5.717  18.591  0.00  0.00    +0.000 A 
ATOM      5  C   UNL     1       2.886   4.778  19.551  0.00  0.00    +0.000 A 
ATOM      6  S   UNL     1       3.687   3.317  19.207  0.00  0.00    +0.000 S 
ATOM      7  C   UNL     1       2.038   5.024  20.753  0.00  0.00    +0.000 C 
ATOM      8  C   UNL     1       1.259   6.347  20.592  0.00  0.00    +0.000 C 
ATOM      9  C   UNL     1       2.126   7.473  19.999  0.00  0.00    +0.000 C 
ATOM     10  C   UNL     1       2.654   7.107  18.603  0.00  0.00    +0.000 C 
ATOM     11  H   UNL     1       5.587   2.451  17.395  0.00  0.00    +0.000 HD
ENDROOT
BRANCH   1  16
ATOM     12  F   UNL     1       7.753   5.416  12.527  0.00  0.00    +0.000 F 
ATOM     13  C   UNL     1       7.164   4.883  13.606  0.00  0.00    +0.000 A 
ATOM     14  C   UNL     1       7.634   5.205  14.873  0.00  0.00    +0.000 A 
ATOM     15  C   UNL     1       7.011   4.660  16.001  0.00  0.00    +0.000 A 
ATOM     16  C   UNL     1       5.917   3.791  15.872  0.00  0.00    +0.000 A 
ATOM     17  C   UNL     1       5.471   3.483  14.574  0.00  0.00    +0.000 A 
ATOM     18  C   UNL     1       6.090   4.024  13.445  0.00  0.00    +0.000 A 
ENDBRANCH   1  16
TORSDOF 1
ENDMDL
MODEL 8
REMARK VINA RESULT:      -6.4      2.888      6.621
REMARK  Name = 
REMARK  1 active torsions:
REMARK  status: ('A' for Active; 'I' for Inactive)
REMARK    1  A    between atoms: C_5  and  N_6
REMARK                            x       y       z     vdW  Elec       q    Type
REMARK                         _______ _______ _______ _____ _____    ______ ____
ROOT
ATOM      1  N   UNL     1       5.219   5.634  16.774  0.00  0.00    +0.000 N 
ATOM      2  C   UNL     1       4.305   5.020  17.565  0.00  0.00    +0.000 A 
ATOM      3  N   UNL     1       3.683   3.890  17.299  0.00  0.00    +0.000 NA
ATOM      4  C   UNL     1       2.771   3.594  18.277  0.00  0.00    +0.000 A 
ATOM      5  C   UNL     1       2.708   4.494  19.316  0.00  0.00    +0.000 A 
ATOM      6  S   UNL     1       3.816   5.759  19.059  0.00  0.00    +0.000 S 
ATOM      7  C   UNL     1       1.762   4.408  20.466  0.00  0.00    +0.000 C 
ATOM      8  C   UNL     1       1.119   3.006  20.522  0.00  0.00    +0.000 C 
ATOM      9  C   UNL     1       0.711   2.489  19.130  0.00  0.00    +0.000 C 
ATOM     10  C   UNL     1       1.922   2.375  18.190  0.00  0.00    +0.000 C 
ATOM     11  H   UNL     1       5.486   6.577  17.013  0.00  0.00    +0.000 HD
ENDROOT
BRANCH   1  16
ATOM     12  F   UNL     1       7.069   3.494  11.995  0.00  0.00    +0.000 F 
ATOM     13  C   UNL     1       6.627   4.041  13.135  0.00  0.00    +0.000 A 
ATOM     14  C   UNL     1       5.289   3.912  13.485  0.00  0.00    +0.000 A 
ATOM     15  C   UNL     1       4.829   4.471  14.681  0.00  0.00    +0.000 A 
ATOM     16  C   UNL     1       5.702   5.163  15.536  0.00  0.00    +0.000 A 
ATOM     17  C   UNL     1       7.048   5.279  15.148  0.00  0.00    +0.000 A 
ATOM     18  C   UNL     1       7.511   4.723  13.954  0.00  0.00    +0.000 A 
ENDBRANCH   1  16
TORSDOF 1
ENDMDL
MODEL 9
REMARK VINA RESULT:      -6.4      4.919      7.834
REMARK  Name = 
REMARK  1 active torsions:
REMARK  status: ('A' for Active; 'I' for Inactive)
REMARK    1  A    between atoms: C_5  and  N_6
REMARK                            x       y       z     vdW  Elec       q    Type
REMARK                         _______ _______ _______ _____ _____    ______ ____
ROOT
ATOM      1  N   UNL     1       2.668   7.179  17.919  0.00  0.00    +0.000 N 
ATOM      2  C   UNL     1       2.076   8.044  18.778  0.00  0.00    +0.000 A 
ATOM      3  N   UNL     1       1.822   7.823  20.051  0.00  0.00    +0.000 NA
ATOM      4  C   UNL     1       1.148   8.878  20.605  0.00  0.00    +0.000 A 
ATOM      5  C   UNL     1       0.902   9.932  19.755  0.00  0.00    +0.000 A 
ATOM      6  S   UNL     1       1.521   9.589  18.208  0.00  0.00    +0.000 S 
ATOM      7  C   UNL     1       0.145  11.164  20.118  0.00  0.00    +0.000 C 
ATOM      8  C   UNL     1      -0.012  11.261  21.650  0.00  0.00    +0.000 C 
ATOM      9  C   UNL     1      -0.364   9.906  22.292  0.00  0.00    +0.000 C 
ATOM     10  C   UNL     1       0.726   8.854  22.032  0.00  0.00    +0.000 C 
ATOM     11  H   UNL     1       2.644   7.406  16.936  0.00  0.00    +0.000 HD
ENDROOT
BRANCH   1  16
ATOM     12  F   UNL     1       4.378   2.100  19.373  0.00  0.00    +0.000 F 
ATOM     13  C   UNL     1       3.989   3.325  18.997  0.00  0.00    +0.000 A 
ATOM     14  C   UNL     1       2.727   3.504  18.444  0.00  0.00    +0.000 A 
ATOM     15  C   UNL     1       2.313   4.785  18.064  0.00  0.00    +0.000 A 
ATOM     16  C   UNL     1       3.156   5.895  18.232  0.00  0.00    +0.000 A 
ATOM     17  C   UNL     1       4.428   5.676  18.790  0.00  0.00    +0.000 A 
ATOM     18  C   UNL     1       4.845   4.399  19.171  0.00  0.00    +0.000 A 
ENDBRANCH   1  16
TORSDOF 1
ENDMDL
