MODEL 1
REMARK VINA RESULT:      -7.2      0.000      0.000
REMARK  Name = 
REMARK  11 active torsions:
REMARK  status: ('A' for Active; 'I' for Inactive)
REMARK    1  A    between atoms: C_1  and  C_2
REMARK    2  A    between atoms: C_2  and  C_3
REMARK    3  A    between atoms: C_6  and  C_8
REMARK    4  A    between atoms: C_8  and  C_9
REMARK    5  A    between atoms: C_14  and  N_15
REMARK    6  A    between atoms: N_15  and  C_16
REMARK    7  A    between atoms: C_17  and  C_18
REMARK    8  A    between atoms: C_25  and  C_26
REMARK    9  A    between atoms: N_29  and  C_30
REMARK   10  A    between atoms: C_30  and  C_31
REMARK   11  A    between atoms: C_30  and  C_32
REMARK                            x       y       z     vdW  Elec       q    Type
REMARK                         _______ _______ _______ _____ _____    ______ ____
ROOT
ATOM      1  C   UNL     1      -1.148  11.123  19.340  0.00  0.00    +0.000 A 
ATOM      2  C   UNL     1      -1.459  11.761  20.503  0.00  0.00    +0.000 A 
ATOM      3  C   UNL     1      -0.463  11.670  21.621  0.00  0.00    +0.000 A 
ATOM      4  N   UNL     1       0.627  10.979  21.651  0.00  0.00    +0.000 NA
ATOM      5  N   UNL     1       0.797  10.266  20.527  0.00  0.00    +0.000 N 
ATOM      6  C   UNL     1       1.811   9.385  20.352  0.00  0.00    +0.000 A 
ATOM      7  C   UNL     1       1.585   8.805  19.131  0.00  0.00    +0.000 A 
ATOM      8  N   UNL     1       0.485   9.368  18.511  0.00  0.00    +0.000 NA
ATOM      9  C   UNL     1       0.011  10.248  19.389  0.00  0.00    +0.000 A 
ENDROOT
BRANCH   2  10
ATOM     10  C   UNL     1      -2.653  12.593  20.811  0.00  0.00    +0.000 C 
ATOM     11  N   UNL     1      -3.118  12.598  22.076  0.00  0.00    +0.000 N 
ATOM     12  O   UNL     1      -3.204  13.269  19.947  0.00  0.00    +0.000 OA
ATOM     13  H   UNL     1      -2.688  12.031  22.799  0.00  0.00    +0.000 HD
ATOM     14  H   UNL     1      -4.018  13.037  22.231  0.00  0.00    +0.000 HD
ENDBRANCH   2  10
BRANCH   7  15
ATOM     15  C   UNL     1       2.378   7.722  18.577  0.00  0.00    +0.000 A 
ATOM     16  C   UNL     1       3.390   7.796  17.609  0.00  0.00    +0.000 A 
ATOM     17  N   UNL     1       3.897   6.590  17.315  0.00  0.00    +0.000 NA
ATOM     18  N   UNL     1       3.192   5.742  18.095  0.00  0.00    +0.000 N 
ATOM     19  C   UNL     1       2.270   6.381  18.874  0.00  0.00    +0.000 A 
BRANCH  18  20
ATOM     20  C   UNL     1       3.431   4.302  18.048  0.00  0.00    +0.000 C 
ATOM     21  C   UNL     1       3.954   3.774  19.383  0.00  0.00    +0.000 C 
ATOM     22  C   UNL     1       2.189   3.530  17.607  0.00  0.00    +0.000 C 
ENDBRANCH  18  20
ENDBRANCH   7  15
BRANCH   1  23
ATOM     23  N   UNL     1      -1.891  11.160  18.117  0.00  0.00    +0.000 N 
ATOM     24  H   UNL     1      -2.353  12.081  18.130  0.00  0.00    +0.000 HD
BRANCH  23  31
ATOM     25  C   UNL     1      -3.609  10.368  16.399  0.00  0.00    +0.000 C 
ATOM     26  C   UNL     1      -4.527  11.568  16.672  0.00  0.00    +0.000 C 
ATOM     27  N   UNL     1      -5.081  11.230  17.977  0.00  0.00    +0.000 N 
ATOM     28  C   UNL     1      -6.390  11.532  18.319  0.00  0.00    +0.000 C 
ATOM     29  O   UNL     1      -7.162  12.104  17.553  0.00  0.00    +0.000 OA
ATOM     30  C   UNL     1      -4.211  10.290  18.685  0.00  0.00    +0.000 C 
ATOM     31  C   UNL     1      -2.953  10.144  17.796  0.00  0.00    +0.000 C 
BRANCH  28  32
ATOM     32  C   UNL     1      -6.882  11.118  19.676  0.00  0.00    +0.000 C 
ATOM     33  C   UNL     1      -7.825  12.103  20.368  0.00  0.00    +0.000 C 
ATOM     34  C   UNL     1      -6.470  11.859  20.943  0.00  0.00    +0.000 C 
BRANCH  32  35
ATOM     35  C   UNL     1      -7.120   9.698  19.837  0.00  0.00    +0.000 C 
ATOM     36  N   UNL     1      -7.390   8.586  19.981  0.00  0.00    +0.000 NA
ENDBRANCH  32  35
ENDBRANCH  28  32
BRANCH  25  38
ATOM     37  C   UNL     1      -3.340  10.052  13.872  0.00  0.00    +0.000 C 
ATOM     38  C   UNL     1      -2.681  10.462  15.190  0.00  0.00    +0.000 C 
ENDBRANCH  25  38
ENDBRANCH  23  31
ENDBRANCH   1  23
TORSDOF 8
ENDMDL
MODEL 2
REMARK VINA RESULT:      -6.9      5.449     11.175
REMARK  Name = 
REMARK  11 active torsions:
REMARK  status: ('A' for Active; 'I' for Inactive)
REMARK    1  A    between atoms: C_1  and  C_2
REMARK    2  A    between atoms: C_2  and  C_3
REMARK    3  A    between atoms: C_6  and  C_8
REMARK    4  A    between atoms: C_8  and  C_9
REMARK    5  A    between atoms: C_14  and  N_15
REMARK    6  A    between atoms: N_15  and  C_16
REMARK    7  A    between atoms: C_17  and  C_18
REMARK    8  A    between atoms: C_25  and  C_26
REMARK    9  A    between atoms: N_29  and  C_30
REMARK   10  A    between atoms: C_30  and  C_31
REMARK   11  A    between atoms: C_30  and  C_32
REMARK                            x       y       z     vdW  Elec       q    Type
REMARK                         _______ _______ _______ _____ _____    ______ ____
ROOT
ATOM      1  C   UNL     1       3.413   4.741  18.329  0.00  0.00    +0.000 A 
ATOM      2  C   UNL     1       3.384   3.708  19.217  0.00  0.00    +0.000 A 
ATOM      3  C   UNL     1       2.515   3.871  20.428  0.00  0.00    +0.000 A 
ATOM      4  N   UNL     1       1.849   4.918  20.786  0.00  0.00    +0.000 NA
ATOM      5  N   UNL     1       2.036   5.941  19.939  0.00  0.00    +0.000 N 
ATOM      6  C   UNL     1       1.527   7.180  20.145  0.00  0.00    +0.000 A 
ATOM      7  C   UNL     1       2.011   7.949  19.120  0.00  0.00    +0.000 A 
ATOM      8  N   UNL     1       2.754   7.188  18.236  0.00  0.00    +0.000 NA
ATOM      9  C   UNL     1       2.768   5.968  18.765  0.00  0.00    +0.000 A 
ENDROOT
BRANCH   2  10
ATOM     10  C   UNL     1       4.073   2.393  19.130  0.00  0.00    +0.000 C 
ATOM     11  N   UNL     1       5.144   2.178  19.920  0.00  0.00    +0.000 N 
ATOM     12  O   UNL     1       3.682   1.513  18.368  0.00  0.00    +0.000 OA
ATOM     13  H   UNL     1       5.494   2.900  20.542  0.00  0.00    +0.000 HD
ATOM     14  H   UNL     1       5.692   1.348  19.733  0.00  0.00    +0.000 HD
ENDBRANCH   2  10
BRANCH   7  15
ATOM     15  C   UNL     1       1.797   9.380  18.996  0.00  0.00    +0.000 A 
ATOM     16  C   UNL     1       2.309  10.252  18.024  0.00  0.00    +0.000 A 
ATOM     17  N   UNL     1       1.922  11.520  18.227  0.00  0.00    +0.000 NA
ATOM     18  N   UNL     1       1.168  11.454  19.346  0.00  0.00    +0.000 N 
ATOM     19  C   UNL     1       1.062  10.184  19.839  0.00  0.00    +0.000 A 
BRANCH  18  20
ATOM     20  C   UNL     1       0.570  12.655  19.922  0.00  0.00    +0.000 C 
ATOM     21  C   UNL     1      -0.241  13.433  18.887  0.00  0.00    +0.000 C 
ATOM     22  C   UNL     1      -0.278  12.338  21.152  0.00  0.00    +0.000 C 
ENDBRANCH  18  20
ENDBRANCH   7  15
BRANCH   1  23
ATOM     23  N   UNL     1       4.083   4.766  17.065  0.00  0.00    +0.000 N 
ATOM     24  H   UNL     1       3.336   4.585  16.379  0.00  0.00    +0.000 HD
BRANCH  23  31
ATOM     25  C   UNL     1       6.617   4.469  16.920  0.00  0.00    +0.000 C 
ATOM     26  C   UNL     1       6.713   5.368  15.678  0.00  0.00    +0.000 C 
ATOM     27  N   UNL     1       6.150   4.508  14.644  0.00  0.00    +0.000 N 
ATOM     28  C   UNL     1       6.638   4.508  13.346  0.00  0.00    +0.000 C 
ATOM     29  O   UNL     1       7.565   5.227  12.983  0.00  0.00    +0.000 OA
ATOM     30  C   UNL     1       5.289   3.482  15.231  0.00  0.00    +0.000 C 
ATOM     31  C   UNL     1       5.210   3.824  16.738  0.00  0.00    +0.000 C 
BRANCH  28  32
ATOM     32  C   UNL     1       6.014   3.567  12.356  0.00  0.00    +0.000 C 
ATOM     33  C   UNL     1       4.883   4.150  11.509  0.00  0.00    +0.000 C 
ATOM     34  C   UNL     1       4.577   3.080  12.502  0.00  0.00    +0.000 C 
BRANCH  32  35
ATOM     35  C   UNL     1       6.929   2.626  11.740  0.00  0.00    +0.000 C 
ATOM     36  N   UNL     1       7.603   1.872  11.186  0.00  0.00    +0.000 NA
ENDBRANCH  32  35
ENDBRANCH  28  32
BRANCH  25  38
ATOM     37  C   UNL     1       7.502   6.527  18.161  0.00  0.00    +0.000 C 
ATOM     38  C   UNL     1       6.931   5.113  18.269  0.00  0.00    +0.000 C 
ENDBRANCH  25  38
ENDBRANCH  23  31
ENDBRANCH   1  23
TORSDOF 8
ENDMDL
MODEL 3
REMARK VINA RESULT:      -6.7      2.502      7.119
REMARK  Name = 
REMARK  11 active torsions:
REMARK  status: ('A' for Active; 'I' for Inactive)
REMARK    1  A    between atoms: C_1  and  C_2
REMARK    2  A    between atoms: C_2  and  C_3
REMARK    3  A    between atoms: C_6  and  C_8
REMARK    4  A    between atoms: C_8  and  C_9
REMARK    5  A    between atoms: C_14  and  N_15
REMARK    6  A    between atoms: N_15  and  C_16
REMARK    7  A    between atoms: C_17  and  C_18
REMARK    8  A    between atoms: C_25  and  C_26
REMARK    9  A    between atoms: N_29  and  C_30
REMARK   10  A    between atoms: C_30  and  C_31
REMARK   11  A    between atoms: C_30  and  C_32
REMARK                            x       y       z     vdW  Elec       q    Type
REMARK                         _______ _______ _______ _____ _____    ______ ____
ROOT
ATOM      1  C   UNL     1      -1.034  11.141  19.169  0.00  0.00    +0.000 A 
ATOM      2  C   UNL     1       0.103  10.433  19.415  0.00  0.00    +0.000 A 
ATOM      3  C   UNL     1       0.702  10.557  20.785  0.00  0.00    +0.000 A 
ATOM      4  N   UNL     1       0.320  11.330  21.746  0.00  0.00    +0.000 NA
ATOM      5  N   UNL     1      -0.717  12.100  21.384  0.00  0.00    +0.000 N 
ATOM      6  C   UNL     1      -1.240  13.065  22.179  0.00  0.00    +0.000 A 
ATOM      7  C   UNL     1      -2.208  13.675  21.425  0.00  0.00    +0.000 A 
ATOM      8  N   UNL     1      -2.346  13.052  20.197  0.00  0.00    +0.000 NA
ATOM      9  C   UNL     1      -1.415  12.103  20.189  0.00  0.00    +0.000 A 
ENDROOT
BRANCH   2  10
ATOM     10  C   UNL     1       0.825   9.497  18.513  0.00  0.00    +0.000 C 
ATOM     11  N   UNL     1       1.891   8.832  19.002  0.00  0.00    +0.000 N 
ATOM     12  O   UNL     1       0.466   9.320  17.353  0.00  0.00    +0.000 OA
ATOM     13  H   UNL     1       2.215   8.980  19.952  0.00  0.00    +0.000 HD
ATOM     14  H   UNL     1       2.461   8.328  18.334  0.00  0.00    +0.000 HD
ENDBRANCH   2  10
BRANCH   7  15
ATOM     15  C   UNL     1      -2.966  14.839  21.847  0.00  0.00    +0.000 A 
ATOM     16  C   UNL     1      -2.760  16.181  21.497  0.00  0.00    +0.000 A 
ATOM     17  N   UNL     1      -3.641  16.999  22.092  0.00  0.00    +0.000 NA
ATOM     18  N   UNL     1      -4.406  16.169  22.833  0.00  0.00    +0.000 N 
ATOM     19  C   UNL     1      -4.038  14.859  22.712  0.00  0.00    +0.000 A 
BRANCH  18  20
ATOM     20  C   UNL     1      -5.487  16.687  23.668  0.00  0.00    +0.000 C 
ATOM     21  C   UNL     1      -6.619  15.672  23.818  0.00  0.00    +0.000 C 
ATOM     22  C   UNL     1      -4.984  17.148  25.034  0.00  0.00    +0.000 C 
ENDBRANCH  18  20
ENDBRANCH   7  15
BRANCH   1  23
ATOM     23  N   UNL     1      -1.830  11.096  17.980  0.00  0.00    +0.000 N 
ATOM     24  H   UNL     1      -2.268  12.028  17.934  0.00  0.00    +0.000 HD
BRANCH  23  31
ATOM     25  C   UNL     1      -3.641  10.211  16.409  0.00  0.00    +0.000 C 
ATOM     26  C   UNL     1      -4.514  11.458  16.613  0.00  0.00    +0.000 C 
ATOM     27  N   UNL     1      -5.020  11.249  17.964  0.00  0.00    +0.000 N 
ATOM     28  C   UNL     1      -6.306  11.619  18.330  0.00  0.00    +0.000 C 
ATOM     29  O   UNL     1      -7.094  12.145  17.550  0.00  0.00    +0.000 OA
ATOM     30  C   UNL     1      -4.146  10.348  18.715  0.00  0.00    +0.000 C 
ATOM     31  C   UNL     1      -2.931  10.089  17.792  0.00  0.00    +0.000 C 
BRANCH  28  32
ATOM     32  C   UNL     1      -6.749  11.338  19.737  0.00  0.00    +0.000 C 
ATOM     33  C   UNL     1      -7.523  12.462  20.425  0.00  0.00    +0.000 C 
ATOM     34  C   UNL     1      -6.170  12.090  20.930  0.00  0.00    +0.000 C 
BRANCH  32  35
ATOM     35  C   UNL     1      -7.139   9.967  19.997  0.00  0.00    +0.000 C 
ATOM     36  N   UNL     1      -7.411   8.854  20.132  0.00  0.00    +0.000 NA
ENDBRANCH  32  35
ENDBRANCH  28  32
BRANCH  25  38
ATOM     37  C   UNL     1      -3.553  10.081  13.853  0.00  0.00    +0.000 C 
ATOM     38  C   UNL     1      -2.763  10.174  15.159  0.00  0.00    +0.000 C 
ENDBRANCH  25  38
ENDBRANCH  23  31
ENDBRANCH   1  23
TORSDOF 8
ENDMDL
MODEL 4
REMARK VINA RESULT:      -6.6      3.989      5.246
REMARK  Name = 
REMARK  11 active torsions:
REMARK  status: ('A' for Active; 'I' for Inactive)
REMARK    1  A    between atoms: C_1  and  C_2
REMARK    2  A    between atoms: C_2  and  C_3
REMARK    3  A    between atoms: C_6  and  C_8
REMARK    4  A    between atoms: C_8  and  C_9
REMARK    5  A    between atoms: C_14  and  N_15
REMARK    6  A    between atoms: N_15  and  C_16
REMARK    7  A    between atoms: C_17  and  C_18
REMARK    8  A    between atoms: C_25  and  C_26
REMARK    9  A    between atoms: N_29  and  C_30
REMARK   10  A    between atoms: C_30  and  C_31
REMARK   11  A    between atoms: C_30  and  C_32
REMARK                            x       y       z     vdW  Elec       q    Type
REMARK                         _______ _______ _______ _____ _____    ______ ____
ROOT
ATOM      1  C   UNL     1       0.359  12.244  19.799  0.00  0.00    +0.000 A 
ATOM      2  C   UNL     1       0.829  13.428  19.315  0.00  0.00    +0.000 A 
ATOM      3  C   UNL     1       1.817  13.363  18.189  0.00  0.00    +0.000 A 
ATOM      4  N   UNL     1       2.354  12.309  17.672  0.00  0.00    +0.000 NA
ATOM      5  N   UNL     1       1.952  11.189  18.290  0.00  0.00    +0.000 N 
ATOM      6  C   UNL     1       2.446   9.961  18.001  0.00  0.00    +0.000 A 
ATOM      7  C   UNL     1       1.858   9.109  18.898  0.00  0.00    +0.000 A 
ATOM      8  N   UNL     1       0.946   9.779  19.694  0.00  0.00    +0.000 NA
ATOM      9  C   UNL     1       1.032  11.051  19.315  0.00  0.00    +0.000 A 
ENDROOT
BRANCH   2  10
ATOM     10  C   UNL     1       0.456  14.808  19.725  0.00  0.00    +0.000 C 
ATOM     11  N   UNL     1      -0.723  15.304  19.301  0.00  0.00    +0.000 N 
ATOM     12  O   UNL     1       1.190  15.486  20.438  0.00  0.00    +0.000 OA
ATOM     13  H   UNL     1      -1.334  14.767  18.695  0.00  0.00    +0.000 HD
ATOM     14  H   UNL     1      -0.885  16.292  19.453  0.00  0.00    +0.000 HD
ENDBRANCH   2  10
BRANCH   7  15
ATOM     15  C   UNL     1       2.172   7.696  19.017  0.00  0.00    +0.000 A 
ATOM     16  C   UNL     1       2.004   6.862  20.131  0.00  0.00    +0.000 A 
ATOM     17  N   UNL     1       2.423   5.610  19.894  0.00  0.00    +0.000 NA
ATOM     18  N   UNL     1       2.871   5.654  18.620  0.00  0.00    +0.000 N 
ATOM     19  C   UNL     1       2.734   6.889  18.053  0.00  0.00    +0.000 A 
BRANCH  18  20
ATOM     20  C   UNL     1       3.444   4.471  17.984  0.00  0.00    +0.000 C 
ATOM     21  C   UNL     1       4.428   3.755  18.908  0.00  0.00    +0.000 C 
ATOM     22  C   UNL     1       2.366   3.510  17.488  0.00  0.00    +0.000 C 
ENDBRANCH  18  20
ENDBRANCH   7  15
BRANCH   1  23
ATOM     23  N   UNL     1      -0.658  12.066  20.790  0.00  0.00    +0.000 N 
ATOM     24  H   UNL     1      -1.411  12.707  20.498  0.00  0.00    +0.000 HD
BRANCH  23  31
ATOM     25  C   UNL     1      -1.140  11.321  23.187  0.00  0.00    +0.000 C 
ATOM     26  C   UNL     1      -2.589  11.827  23.118  0.00  0.00    +0.000 C 
ATOM     27  N   UNL     1      -2.403  13.271  23.178  0.00  0.00    +0.000 N 
ATOM     28  C   UNL     1      -3.292  14.097  23.851  0.00  0.00    +0.000 C 
ATOM     29  O   UNL     1      -4.286  13.671  24.431  0.00  0.00    +0.000 OA
ATOM     30  C   UNL     1      -1.056  13.643  22.745  0.00  0.00    +0.000 C 
ATOM     31  C   UNL     1      -0.406  12.328  22.250  0.00  0.00    +0.000 C 
BRANCH  28  32
ATOM     32  C   UNL     1      -3.002  15.570  23.884  0.00  0.00    +0.000 C 
ATOM     33  C   UNL     1      -2.100  16.043  25.024  0.00  0.00    +0.000 C 
ATOM     34  C   UNL     1      -3.529  16.470  24.996  0.00  0.00    +0.000 C 
BRANCH  32  35
ATOM     35  C   UNL     1      -2.869  16.201  22.586  0.00  0.00    +0.000 C 
ATOM     36  N   UNL     1      -2.696  16.654  21.540  0.00  0.00    +0.000 NA
ENDBRANCH  32  35
ENDBRANCH  28  32
BRANCH  25  38
ATOM     37  C   UNL     1       0.546   9.396  23.094  0.00  0.00    +0.000 C 
ATOM     38  C   UNL     1      -0.912   9.831  22.939  0.00  0.00    +0.000 C 
ENDBRANCH  25  38
ENDBRANCH  23  31
ENDBRANCH   1  23
TORSDOF 8
ENDMDL
MODEL 5
REMARK VINA RESULT:      -6.6      4.062      5.337
REMARK  Name = 
REMARK  11 active torsions:
REMARK  status: ('A' for Active; 'I' for Inactive)
REMARK    1  A    between atoms: C_1  and  C_2
REMARK    2  A    between atoms: C_2  and  C_3
REMARK    3  A    between atoms: C_6  and  C_8
REMARK    4  A    between atoms: C_8  and  C_9
REMARK    5  A    between atoms: C_14  and  N_15
REMARK    6  A    between atoms: N_15  and  C_16
REMARK    7  A    between atoms: C_17  and  C_18
REMARK    8  A    between atoms: C_25  and  C_26
REMARK    9  A    between atoms: N_29  and  C_30
REMARK   10  A    between atoms: C_30  and  C_31
REMARK   11  A    between atoms: C_30  and  C_32
REMARK                            x       y       z     vdW  Elec       q    Type
REMARK                         _______ _______ _______ _____ _____    ______ ____
ROOT
ATOM      1  C   UNL     1       0.303  12.339  19.833  0.00  0.00    +0.000 A 
ATOM      2  C   UNL     1       0.752  13.540  19.373  0.00  0.00    +0.000 A 
ATOM      3  C   UNL     1       1.724  13.515  18.231  0.00  0.00    +0.000 A 
ATOM      4  N   UNL     1       2.265  12.481  17.678  0.00  0.00    +0.000 NA
ATOM      5  N   UNL     1       1.885  11.341  18.274  0.00  0.00    +0.000 N 
ATOM      6  C   UNL     1       2.389  10.127  17.946  0.00  0.00    +0.000 A 
ATOM      7  C   UNL     1       1.824   9.246  18.830  0.00  0.00    +0.000 A 
ATOM      8  N   UNL     1       0.917   9.884  19.657  0.00  0.00    +0.000 NA
ATOM      9  C   UNL     1       0.983  11.166  19.309  0.00  0.00    +0.000 A 
ENDROOT
BRANCH   2  10
ATOM     10  C   UNL     1       0.370  14.905  19.823  0.00  0.00    +0.000 C 
ATOM     11  N   UNL     1      -0.788  15.427  19.371  0.00  0.00    +0.000 N 
ATOM     12  O   UNL     1       1.078  15.548  20.594  0.00  0.00    +0.000 OA
ATOM     13  H   UNL     1      -1.375  14.919  18.719  0.00  0.00    +0.000 HD
ATOM     14  H   UNL     1      -0.950  16.409  19.557  0.00  0.00    +0.000 HD
ENDBRANCH   2  10
BRANCH   7  15
ATOM     15  C   UNL     1       2.156   7.834  18.909  0.00  0.00    +0.000 A 
ATOM     16  C   UNL     1       2.637   6.998  17.891  0.00  0.00    +0.000 A 
ATOM     17  N   UNL     1       2.816   5.738  18.314  0.00  0.00    +0.000 NA
ATOM     18  N   UNL     1       2.434   5.773  19.609  0.00  0.00    +0.000 N 
ATOM     19  C   UNL     1       2.034   7.015  20.011  0.00  0.00    +0.000 A 
BRANCH  18  20
ATOM     20  C   UNL     1       2.457   4.566  20.431  0.00  0.00    +0.000 C 
ATOM     21  C   UNL     1       1.069   3.938  20.549  0.00  0.00    +0.000 C 
ATOM     22  C   UNL     1       3.474   3.547  19.923  0.00  0.00    +0.000 C 
ENDBRANCH  18  20
ENDBRANCH   7  15
BRANCH   1  23
ATOM     23  N   UNL     1      -0.696  12.124  20.835  0.00  0.00    +0.000 N 
ATOM     24  H   UNL     1      -1.425  12.819  20.617  0.00  0.00    +0.000 HD
BRANCH  23  31
ATOM     25  C   UNL     1      -1.026  11.111  23.158  0.00  0.00    +0.000 C 
ATOM     26  C   UNL     1      -2.504  11.526  23.196  0.00  0.00    +0.000 C 
ATOM     27  N   UNL     1      -2.405  12.966  23.399  0.00  0.00    +0.000 N 
ATOM     28  C   UNL     1      -3.312  13.660  24.186  0.00  0.00    +0.000 C 
ATOM     29  O   UNL     1      -4.252  13.113  24.756  0.00  0.00    +0.000 OA
ATOM     30  C   UNL     1      -1.104  13.466  22.956  0.00  0.00    +0.000 C 
ATOM     31  C   UNL     1      -0.397  12.254  22.303  0.00  0.00    +0.000 C 
BRANCH  28  32
ATOM     32  C   UNL     1      -3.112  15.137  24.360  0.00  0.00    +0.000 C 
ATOM     33  C   UNL     1      -4.347  16.006  24.118  0.00  0.00    +0.000 C 
ATOM     34  C   UNL     1      -3.188  16.105  23.184  0.00  0.00    +0.000 C 
BRANCH  32  35
ATOM     35  C   UNL     1      -2.194  15.514  25.416  0.00  0.00    +0.000 C 
ATOM     36  N   UNL     1      -1.480  15.894  26.238  0.00  0.00    +0.000 NA
ENDBRANCH  32  35
ENDBRANCH  28  32
BRANCH  25  38
ATOM     37  C   UNL     1       0.752   9.284  22.919  0.00  0.00    +0.000 C 
ATOM     38  C   UNL     1      -0.718   9.672  22.750  0.00  0.00    +0.000 C 
ENDBRANCH  25  38
ENDBRANCH  23  31
ENDBRANCH   1  23
TORSDOF 8
ENDMDL
MODEL 6
REMARK VINA RESULT:      -6.6      3.994      5.420
REMARK  Name = 
REMARK  11 active torsions:
REMARK  status: ('A' for Active; 'I' for Inactive)
REMARK    1  A    between atoms: C_1  and  C_2
REMARK    2  A    between atoms: C_2  and  C_3
REMARK    3  A    between atoms: C_6  and  C_8
REMARK    4  A    between atoms: C_8  and  C_9
REMARK    5  A    between atoms: C_14  and  N_15
REMARK    6  A    between atoms: N_15  and  C_16
REMARK    7  A    between atoms: C_17  and  C_18
REMARK    8  A    between atoms: C_25  and  C_26
REMARK    9  A    between atoms: N_29  and  C_30
REMARK   10  A    between atoms: C_30  and  C_31
REMARK   11  A    between atoms: C_30  and  C_32
REMARK                            x       y       z     vdW  Elec       q    Type
REMARK                         _______ _______ _______ _____ _____    ______ ____
ROOT
ATOM      1  C   UNL     1       0.298  12.475  19.864  0.00  0.00    +0.000 A 
ATOM      2  C   UNL     1       0.783  13.650  19.373  0.00  0.00    +0.000 A 
ATOM      3  C   UNL     1       1.769  13.565  18.245  0.00  0.00    +0.000 A 
ATOM      4  N   UNL     1       2.290  12.501  17.733  0.00  0.00    +0.000 NA
ATOM      5  N   UNL     1       1.874  11.390  18.358  0.00  0.00    +0.000 N 
ATOM      6  C   UNL     1       2.351  10.154  18.075  0.00  0.00    +0.000 A 
ATOM      7  C   UNL     1       1.752   9.315  18.977  0.00  0.00    +0.000 A 
ATOM      8  N   UNL     1       0.851  10.002  19.772  0.00  0.00    +0.000 NA
ATOM      9  C   UNL     1       0.954  11.270  19.385  0.00  0.00    +0.000 A 
ENDROOT
BRANCH   2  10
ATOM     10  C   UNL     1       0.431  15.038  19.775  0.00  0.00    +0.000 C 
ATOM     11  N   UNL     1       1.428  15.932  19.928  0.00  0.00    +0.000 N 
ATOM     12  O   UNL     1      -0.735  15.375  19.958  0.00  0.00    +0.000 OA
ATOM     13  H   UNL     1       2.398  15.666  19.801  0.00  0.00    +0.000 HD
ATOM     14  H   UNL     1       1.186  16.817  20.355  0.00  0.00    +0.000 HD
ENDBRANCH   2  10
BRANCH   7  15
ATOM     15  C   UNL     1       2.047   7.899  19.104  0.00  0.00    +0.000 A 
ATOM     16  C   UNL     1       1.860   7.071  20.220  0.00  0.00    +0.000 A 
ATOM     17  N   UNL     1       2.264   5.813  19.990  0.00  0.00    +0.000 NA
ATOM     18  N   UNL     1       2.722   5.846  18.720  0.00  0.00    +0.000 N 
ATOM     19  C   UNL     1       2.606   7.081  18.147  0.00  0.00    +0.000 A 
BRANCH  18  20
ATOM     20  C   UNL     1       3.285   4.654  18.092  0.00  0.00    +0.000 C 
ATOM     21  C   UNL     1       2.193   3.750  17.521  0.00  0.00    +0.000 C 
ATOM     22  C   UNL     1       4.315   5.004  17.021  0.00  0.00    +0.000 C 
ENDBRANCH  18  20
ENDBRANCH   7  15
BRANCH   1  23
ATOM     23  N   UNL     1      -0.719  12.317  20.858  0.00  0.00    +0.000 N 
ATOM     24  H   UNL     1      -1.399  13.062  20.645  0.00  0.00    +0.000 HD
BRANCH  23  31
ATOM     25  C   UNL     1      -1.087  11.270  23.160  0.00  0.00    +0.000 C 
ATOM     26  C   UNL     1      -2.552  11.729  23.202  0.00  0.00    +0.000 C 
ATOM     27  N   UNL     1      -2.409  13.161  23.433  0.00  0.00    +0.000 N 
ATOM     28  C   UNL     1      -3.297  13.868  24.231  0.00  0.00    +0.000 C 
ATOM     29  O   UNL     1      -4.255  13.340  24.788  0.00  0.00    +0.000 OA
ATOM     30  C   UNL     1      -1.092  13.630  23.003  0.00  0.00    +0.000 C 
ATOM     31  C   UNL     1      -0.421  12.409  22.329  0.00  0.00    +0.000 C 
BRANCH  28  32
ATOM     32  C   UNL     1      -3.052  15.335  24.435  0.00  0.00    +0.000 C 
ATOM     33  C   UNL     1      -4.256  16.247  24.196  0.00  0.00    +0.000 C 
ATOM     34  C   UNL     1      -3.084  16.326  23.276  0.00  0.00    +0.000 C 
BRANCH  32  35
ATOM     35  C   UNL     1      -2.134  15.663  25.507  0.00  0.00    +0.000 C 
ATOM     36  N   UNL     1      -1.373  15.985  26.312  0.00  0.00    +0.000 NA
ENDBRANCH  32  35
ENDBRANCH  28  32
BRANCH  25  38
ATOM     37  C   UNL     1       0.556   9.306  23.130  0.00  0.00    +0.000 C 
ATOM     38  C   UNL     1      -0.823   9.830  22.724  0.00  0.00    +0.000 C 
ENDBRANCH  25  38
ENDBRANCH  23  31
ENDBRANCH   1  23
TORSDOF 8
ENDMDL
MODEL 7
REMARK VINA RESULT:      -6.6      1.345      1.488
REMARK  Name = 
REMARK  11 active torsions:
REMARK  status: ('A' for Active; 'I' for Inactive)
REMARK    1  A    between atoms: C_1  and  C_2
REMARK    2  A    between atoms: C_2  and  C_3
REMARK    3  A    between atoms: C_6  and  C_8
REMARK    4  A    between atoms: C_8  and  C_9
REMARK    5  A    between atoms: C_14  and  N_15
REMARK    6  A    between atoms: N_15  and  C_16
REMARK    7  A    between atoms: C_17  and  C_18
REMARK    8  A    between atoms: C_25  and  C_26
REMARK    9  A    between atoms: N_29  and  C_30
REMARK   10  A    between atoms: C_30  and  C_31
REMARK   11  A    between atoms: C_30  and  C_32
REMARK                            x       y       z     vdW  Elec       q    Type
REMARK                         _______ _______ _______ _____ _____    ______ ____
ROOT
ATOM      1  C   UNL     1      -1.040  12.267  19.181  0.00  0.00    +0.000 A 
ATOM      2  C   UNL     1      -1.048  13.228  20.147  0.00  0.00    +0.000 A 
ATOM      3  C   UNL     1       0.172  13.338  21.013  0.00  0.00    +0.000 A 
ATOM      4  N   UNL     1       1.208  12.568  21.016  0.00  0.00    +0.000 NA
ATOM      5  N   UNL     1       1.085  11.562  20.137  0.00  0.00    +0.000 N 
ATOM      6  C   UNL     1       1.992  10.562  20.019  0.00  0.00    +0.000 A 
ATOM      7  C   UNL     1       1.467   9.700  19.093  0.00  0.00    +0.000 A 
ATOM      8  N   UNL     1       0.280  10.187  18.578  0.00  0.00    +0.000 NA
ATOM      9  C   UNL     1       0.059  11.319  19.241  0.00  0.00    +0.000 A 
ENDROOT
BRANCH   2  10
ATOM     10  C   UNL     1      -2.101  14.236  20.442  0.00  0.00    +0.000 C 
ATOM     11  N   UNL     1      -1.942  15.485  19.960  0.00  0.00    +0.000 N 
ATOM     12  O   UNL     1      -3.098  13.949  21.097  0.00  0.00    +0.000 OA
ATOM     13  H   UNL     1      -1.116  15.746  19.433  0.00  0.00    +0.000 HD
ATOM     14  H   UNL     1      -2.581  16.192  20.303  0.00  0.00    +0.000 HD
ENDBRANCH   2  10
BRANCH   7  15
ATOM     15  C   UNL     1       2.063   8.428  18.725  0.00  0.00    +0.000 A 
ATOM     16  C   UNL     1       2.947   8.157  17.671  0.00  0.00    +0.000 A 
ATOM     17  N   UNL     1       3.281   6.859  17.611  0.00  0.00    +0.000 NA
ATOM     18  N   UNL     1       2.593   6.300  18.630  0.00  0.00    +0.000 N 
ATOM     19  C   UNL     1       1.851   7.208  19.330  0.00  0.00    +0.000 A 
BRANCH  18  20
ATOM     20  C   UNL     1       2.669   4.865  18.890  0.00  0.00    +0.000 C 
ATOM     21  C   UNL     1       1.615   4.093  18.097  0.00  0.00    +0.000 C 
ATOM     22  C   UNL     1       4.066   4.308  18.623  0.00  0.00    +0.000 C 
ENDBRANCH  18  20
ENDBRANCH   7  15
BRANCH   1  23
ATOM     23  N   UNL     1      -2.041  12.049  18.182  0.00  0.00    +0.000 N 
ATOM     24  H   UNL     1      -2.537  12.950  18.120  0.00  0.00    +0.000 HD
BRANCH  23  31
ATOM     25  C   UNL     1      -3.722  10.563  16.959  0.00  0.00    +0.000 C 
ATOM     26  C   UNL     1      -4.650  11.751  16.664  0.00  0.00    +0.000 C 
ATOM     27  N   UNL     1      -5.228  12.011  17.976  0.00  0.00    +0.000 N 
ATOM     28  C   UNL     1      -6.545  12.417  18.131  0.00  0.00    +0.000 C 
ATOM     29  O   UNL     1      -7.304  12.585  17.181  0.00  0.00    +0.000 OA
ATOM     30  C   UNL     1      -4.368  11.487  19.038  0.00  0.00    +0.000 C 
ATOM     31  C   UNL     1      -3.092  10.982  18.322  0.00  0.00    +0.000 C 
BRANCH  28  32
ATOM     32  C   UNL     1      -7.061  12.633  19.524  0.00  0.00    +0.000 C 
ATOM     33  C   UNL     1      -7.916  13.884  19.728  0.00  0.00    +0.000 C 
ATOM     34  C   UNL     1      -6.582  13.793  20.390  0.00  0.00    +0.000 C 
BRANCH  32  35
ATOM     35  C   UNL     1      -7.413  11.426  20.244  0.00  0.00    +0.000 C 
ATOM     36  N   UNL     1      -7.614  10.461  20.844  0.00  0.00    +0.000 NA
ENDBRANCH  32  35
ENDBRANCH  28  32
BRANCH  25  38
ATOM     37  C   UNL     1      -3.372  10.242  14.442  0.00  0.00    +0.000 C 
ATOM     38  C   UNL     1      -2.771  10.130  15.845  0.00  0.00    +0.000 C 
ENDBRANCH  25  38
ENDBRANCH  23  31
ENDBRANCH   1  23
TORSDOF 8
ENDMDL
MODEL 8
REMARK VINA RESULT:      -6.6      5.417     11.154
REMARK  Name = 
REMARK  11 active torsions:
REMARK  status: ('A' for Active; 'I' for Inactive)
REMARK    1  A    between atoms: C_1  and  C_2
REMARK    2  A    between atoms: C_2  and  C_3
REMARK    3  A    between atoms: C_6  and  C_8
REMARK    4  A    between atoms: C_8  and  C_9
REMARK    5  A    between atoms: C_14  and  N_15
REMARK    6  A    between atoms: N_15  and  C_16
REMARK    7  A    between atoms: C_17  and  C_18
REMARK    8  A    between atoms: C_25  and  C_26
REMARK    9  A    between atoms: N_29  and  C_30
REMARK   10  A    between atoms: C_30  and  C_31
REMARK   11  A    between atoms: C_30  and  C_32
REMARK                            x       y       z     vdW  Elec       q    Type
REMARK                         _______ _______ _______ _____ _____    ______ ____
ROOT
ATOM      1  C   UNL     1       3.430   4.511  18.766  0.00  0.00    +0.000 A 
ATOM      2  C   UNL     1       3.312   3.300  19.378  0.00  0.00    +0.000 A 
ATOM      3  C   UNL     1       2.261   3.170  20.441  0.00  0.00    +0.000 A 
ATOM      4  N   UNL     1       1.504   4.100  20.918  0.00  0.00    +0.000 NA
ATOM      5  N   UNL     1       1.773   5.294  20.368  0.00  0.00    +0.000 N 
ATOM      6  C   UNL     1       1.184   6.447  20.769  0.00  0.00    +0.000 A 
ATOM      7  C   UNL     1       1.785   7.437  20.038  0.00  0.00    +0.000 A 
ATOM      8  N   UNL     1       2.687   6.908  19.132  0.00  0.00    +0.000 NA
ATOM      9  C   UNL     1       2.674   5.599  19.363  0.00  0.00    +0.000 A 
ENDROOT
BRANCH   2  10
ATOM     10  C   UNL     1       4.063   2.046  19.102  0.00  0.00    +0.000 C 
ATOM     11  N   UNL     1       5.120   1.749  19.885  0.00  0.00    +0.000 N 
ATOM     12  O   UNL     1       3.735   1.288  18.194  0.00  0.00    +0.000 OA
ATOM     13  H   UNL     1       5.418   2.373  20.627  0.00  0.00    +0.000 HD
ATOM     14  H   UNL     1       5.711   0.984  19.584  0.00  0.00    +0.000 HD
ENDBRANCH   2  10
BRANCH   7  15
ATOM     15  C   UNL     1       1.530   8.856  20.211  0.00  0.00    +0.000 A 
ATOM     16  C   UNL     1       1.176   9.537  21.385  0.00  0.00    +0.000 A 
ATOM     17  N   UNL     1       0.997  10.849  21.175  0.00  0.00    +0.000 NA
ATOM     18  N   UNL     1       1.229  11.001  19.853  0.00  0.00    +0.000 N 
ATOM     19  C   UNL     1       1.558   9.828  19.235  0.00  0.00    +0.000 A 
BRANCH  18  20
ATOM     20  C   UNL     1       1.107  12.308  19.214  0.00  0.00    +0.000 C 
ATOM     21  C   UNL     1       2.210  12.534  18.181  0.00  0.00    +0.000 C 
ATOM     22  C   UNL     1      -0.273  12.513  18.591  0.00  0.00    +0.000 C 
ENDBRANCH  18  20
ENDBRANCH   7  15
BRANCH   1  23
ATOM     23  N   UNL     1       4.284   4.835  17.664  0.00  0.00    +0.000 N 
ATOM     24  H   UNL     1       3.649   4.866  16.853  0.00  0.00    +0.000 HD
BRANCH  23  31
ATOM     25  C   UNL     1       6.821   4.695  17.390  0.00  0.00    +0.000 C 
ATOM     26  C   UNL     1       6.799   5.607  16.154  0.00  0.00    +0.000 C 
ATOM     27  N   UNL     1       6.239   4.722  15.140  0.00  0.00    +0.000 N 
ATOM     28  C   UNL     1       6.659   4.761  13.819  0.00  0.00    +0.000 C 
ATOM     29  O   UNL     1       7.521   5.538  13.419  0.00  0.00    +0.000 OA
ATOM     30  C   UNL     1       5.471   3.641  15.758  0.00  0.00    +0.000 C 
ATOM     31  C   UNL     1       5.448   3.966  17.272  0.00  0.00    +0.000 C 
BRANCH  28  32
ATOM     32  C   UNL     1       6.045   3.791  12.852  0.00  0.00    +0.000 C 
ATOM     33  C   UNL     1       4.771   4.268  12.154  0.00  0.00    +0.000 C 
ATOM     34  C   UNL     1       4.696   3.132  13.119  0.00  0.00    +0.000 C 
BRANCH  32  35
ATOM     35  C   UNL     1       6.989   2.989  12.101  0.00  0.00    +0.000 C 
ATOM     36  N   UNL     1       7.692   2.360  11.436  0.00  0.00    +0.000 NA
ENDBRANCH  32  35
ENDBRANCH  28  32
BRANCH  25  38
ATOM     37  C   UNL     1       7.924   6.666  18.596  0.00  0.00    +0.000 C 
ATOM     38  C   UNL     1       7.162   5.346  18.728  0.00  0.00    +0.000 C 
ENDBRANCH  25  38
ENDBRANCH  23  31
ENDBRANCH   1  23
TORSDOF 8
ENDMDL
MODEL 9
REMARK VINA RESULT:      -6.5      3.707      9.052
REMARK  Name = 
REMARK  11 active torsions:
REMARK  status: ('A' for Active; 'I' for Inactive)
REMARK    1  A    between atoms: C_1  and  C_2
REMARK    2  A    between atoms: C_2  and  C_3
REMARK    3  A    between atoms: C_6  and  C_8
REMARK    4  A    between atoms: C_8  and  C_9
REMARK    5  A    between atoms: C_14  and  N_15
REMARK    6  A    between atoms: N_15  and  C_16
REMARK    7  A    between atoms: C_17  and  C_18
REMARK    8  A    between atoms: C_25  and  C_26
REMARK    9  A    between atoms: N_29  and  C_30
REMARK   10  A    between atoms: C_30  and  C_31
REMARK   11  A    between atoms: C_30  and  C_32
REMARK                            x       y       z     vdW  Elec       q    Type
REMARK                         _______ _______ _______ _____ _____    ______ ____
ROOT
ATOM      1  C   UNL     1       0.782  12.207  20.004  0.00  0.00    +0.000 A 
ATOM      2  C   UNL     1       1.420  12.892  19.014  0.00  0.00    +0.000 A 
ATOM      3  C   UNL     1       0.987  14.308  18.774  0.00  0.00    +0.000 A 
ATOM      4  N   UNL     1       0.011  14.940  19.335  0.00  0.00    +0.000 NA
ATOM      5  N   UNL     1      -0.660  14.159  20.195  0.00  0.00    +0.000 N 
ATOM      6  C   UNL     1      -1.785  14.556  20.837  0.00  0.00    +0.000 A 
ATOM      7  C   UNL     1      -2.210  13.461  21.541  0.00  0.00    +0.000 A 
ATOM      8  N   UNL     1      -1.323  12.408  21.406  0.00  0.00    +0.000 NA
ATOM      9  C   UNL     1      -0.392  12.853  20.567  0.00  0.00    +0.000 A 
ENDROOT
BRANCH   2  10
ATOM     10  C   UNL     1       2.542  12.439  18.150  0.00  0.00    +0.000 C 
ATOM     11  N   UNL     1       3.507  13.327  17.838  0.00  0.00    +0.000 N 
ATOM     12  O   UNL     1       2.605  11.286  17.733  0.00  0.00    +0.000 OA
ATOM     13  H   UNL     1       3.462  14.288  18.157  0.00  0.00    +0.000 HD
ATOM     14  H   UNL     1       4.170  13.050  17.125  0.00  0.00    +0.000 HD
ENDBRANCH   2  10
BRANCH   7  15
ATOM     15  C   UNL     1      -3.444  13.402  22.304  0.00  0.00    +0.000 A 
ATOM     16  C   UNL     1      -3.684  13.870  23.604  0.00  0.00    +0.000 A 
ATOM     17  N   UNL     1      -4.940  13.629  24.005  0.00  0.00    +0.000 NA
ATOM     18  N   UNL     1      -5.501  12.993  22.954  0.00  0.00    +0.000 N 
ATOM     19  C   UNL     1      -4.638  12.839  21.906  0.00  0.00    +0.000 A 
BRANCH  18  20
ATOM     20  C   UNL     1      -6.885  12.531  23.005  0.00  0.00    +0.000 C 
ATOM     21  C   UNL     1      -7.710  13.333  24.010  0.00  0.00    +0.000 C 
ATOM     22  C   UNL     1      -7.544  12.544  21.627  0.00  0.00    +0.000 C 
ENDBRANCH  18  20
ENDBRANCH   7  15
BRANCH   1  23
ATOM     23  N   UNL     1       1.095  10.892  20.475  0.00  0.00    +0.000 N 
ATOM     24  H   UNL     1       2.043  10.713  20.114  0.00  0.00    +0.000 HD
BRANCH  23  31
ATOM     25  C   UNL     1      -0.076   8.794  21.345  0.00  0.00    +0.000 C 
ATOM     26  C   UNL     1       1.259   8.071  21.578  0.00  0.00    +0.000 C 
ATOM     27  N   UNL     1       1.673   7.762  20.215  0.00  0.00    +0.000 N 
ATOM     28  C   UNL     1       2.333   6.584  19.899  0.00  0.00    +0.000 C 
ATOM     29  O   UNL     1       2.613   5.733  20.738  0.00  0.00    +0.000 OA
ATOM     30  C   UNL     1       1.029   8.661  19.258  0.00  0.00    +0.000 C 
ATOM     31  C   UNL     1       0.260   9.694  20.117  0.00  0.00    +0.000 C 
BRANCH  28  32
ATOM     32  C   UNL     1       2.694   6.339  18.462  0.00  0.00    +0.000 C 
ATOM     33  C   UNL     1       4.164   6.556  18.102  0.00  0.00    +0.000 C 
ATOM     34  C   UNL     1       3.129   7.470  17.536  0.00  0.00    +0.000 C 
BRANCH  32  35
ATOM     35  C   UNL     1       1.975   5.255  17.823  0.00  0.00    +0.000 C 
ATOM     36  N   UNL     1       1.387   4.363  17.391  0.00  0.00    +0.000 NA
ENDBRANCH  32  35
ENDBRANCH  28  32
BRANCH  25  38
ATOM     37  C   UNL     1       0.176   9.512  23.790  0.00  0.00    +0.000 C 
ATOM     38  C   UNL     1      -0.725   9.463  22.555  0.00  0.00    +0.000 C 
ENDBRANCH  25  38
ENDBRANCH  23  31
ENDBRANCH   1  23
TORSDOF 8
ENDMDL
