MODEL 1
REMARK VINA RESULT:      -8.2      0.000      0.000
REMARK  Name = 
REMARK  7 active torsions:
REMARK  status: ('A' for Active; 'I' for Inactive)
REMARK    1  A    between atoms: C_1  and  C_2
REMARK    2  A    between atoms: C_2  and  O_3
REMARK    3  A    between atoms: O_3  and  C_4
REMARK    4  A    between atoms: C_4  and  C_6
REMARK    5  A    between atoms: C_8  and  C_9
REMARK    6  A    between atoms: C_16  and  N_17
REMARK    7  A    between atoms: N_20  and  C_21
REMARK                            x       y       z     vdW  Elec       q    Type
REMARK                         _______ _______ _______ _____ _____    ______ ____
ROOT
ATOM      1  C   UNL     1       5.714   4.981  16.009  0.00  0.00    +0.000 A 
ATOM      2  C   UNL     1       4.679   4.069  16.436  0.00  0.00    +0.000 A 
ATOM      3  C   UNL     1       3.908   4.557  17.471  0.00  0.00    +0.000 A 
ATOM      4  S   UNL     1       4.365   6.158  17.840  0.00  0.00    +0.000 S 
ATOM      5  C   UNL     1       5.679   6.142  16.761  0.00  0.00    +0.000 A 
ENDROOT
BRANCH   5   6
ATOM      6  N   UNL     1       6.496   7.265  16.664  0.00  0.00    +0.000 N 
ATOM      7  C   UNL     1       7.422   7.628  17.624  0.00  0.00    +0.000 C 
ATOM      8  O   UNL     1       7.767   6.967  18.596  0.00  0.00    +0.000 OA
ATOM      9  N   UNL     1       7.939   8.887  17.403  0.00  0.00    +0.000 N 
ATOM     10  C   UNL     1       8.908   9.423  18.330  0.00  0.00    +0.000 C 
ATOM     11  H   UNL     1       6.575   7.681  15.743  0.00  0.00    +0.000 HD
ATOM     12  H   UNL     1       7.900   9.269  16.471  0.00  0.00    +0.000 HD
ENDBRANCH   5   6
BRANCH   3  13
ATOM     13  C   UNL     1       2.807   3.912  18.194  0.00  0.00    +0.000 A 
ATOM     14  C   UNL     1       2.348   2.636  17.827  0.00  0.00    +0.000 A 
ATOM     15  C   UNL     1       1.298   2.023  18.514  0.00  0.00    +0.000 A 
ATOM     16  C   UNL     1       0.687   2.685  19.576  0.00  0.00    +0.000 A 
ATOM     17  C   UNL     1       1.120   3.959  19.945  0.00  0.00    +0.000 A 
ATOM     18  C   UNL     1       2.175   4.568  19.259  0.00  0.00    +0.000 A 
ENDBRANCH   3  13
BRANCH   1  19
ATOM     19  C   UNL     1       6.658   4.721  14.932  0.00  0.00    +0.000 C 
ATOM     20  O   UNL     1       7.632   5.432  14.697  0.00  0.00    +0.000 OA
BRANCH  19  21
ATOM     21  O   UNL     1       6.275   3.647  14.183  0.00  0.00    +0.000 OA
BRANCH  21  23
ATOM     22  C   UNL     1       5.169   3.326  12.093  0.00  0.00    +0.000 C 
ATOM     23  C   UNL     1       6.460   3.753  12.768  0.00  0.00    +0.000 C 
ENDBRANCH  21  23
ENDBRANCH  19  21
ENDBRANCH   1  19
TORSDOF 5
ENDMDL
MODEL 2
REMARK VINA RESULT:      -8.1      0.094      1.057
REMARK  Name = 
REMARK  7 active torsions:
REMARK  status: ('A' for Active; 'I' for Inactive)
REMARK    1  A    between atoms: C_1  and  C_2
REMARK    2  A    between atoms: C_2  and  O_3
REMARK    3  A    between atoms: O_3  and  C_4
REMARK    4  A    between atoms: C_4  and  C_6
REMARK    5  A    between atoms: C_8  and  C_9
REMARK    6  A    between atoms: C_16  and  N_17
REMARK    7  A    between atoms: N_20  and  C_21
REMARK                            x       y       z     vdW  Elec       q    Type
REMARK                         _______ _______ _______ _____ _____    ______ ____
ROOT
ATOM      1  C   UNL     1       5.637   4.978  16.049  0.00  0.00    +0.000 A 
ATOM      2  C   UNL     1       4.602   4.068  16.480  0.00  0.00    +0.000 A 
ATOM      3  C   UNL     1       3.823   4.565  17.504  0.00  0.00    +0.000 A 
ATOM      4  S   UNL     1       4.273   6.170  17.859  0.00  0.00    +0.000 S 
ATOM      5  C   UNL     1       5.594   6.147  16.789  0.00  0.00    +0.000 A 
ENDROOT
BRANCH   5   6
ATOM      6  N   UNL     1       6.407   7.271  16.684  0.00  0.00    +0.000 N 
ATOM      7  C   UNL     1       7.372   7.612  17.614  0.00  0.00    +0.000 C 
ATOM      8  O   UNL     1       7.755   6.929  18.556  0.00  0.00    +0.000 OA
ATOM      9  N   UNL     1       7.882   8.876  17.401  0.00  0.00    +0.000 N 
ATOM     10  C   UNL     1       8.888   9.390  18.300  0.00  0.00    +0.000 C 
ATOM     11  H   UNL     1       6.451   7.708  15.770  0.00  0.00    +0.000 HD
ATOM     12  H   UNL     1       7.806   9.278  16.480  0.00  0.00    +0.000 HD
ENDBRANCH   5   6
BRANCH   3  13
ATOM     13  C   UNL     1       2.720   3.924  18.228  0.00  0.00    +0.000 A 
ATOM     14  C   UNL     1       2.101   4.560  19.317  0.00  0.00    +0.000 A 
ATOM     15  C   UNL     1       1.052   3.949  20.007  0.00  0.00    +0.000 A 
ATOM     16  C   UNL     1       0.613   2.686  19.620  0.00  0.00    +0.000 A 
ATOM     17  C   UNL     1       1.225   2.032  18.551  0.00  0.00    +0.000 A 
ATOM     18  C   UNL     1       2.272   2.649  17.858  0.00  0.00    +0.000 A 
ENDBRANCH   3  13
BRANCH   1  19
ATOM     19  C   UNL     1       6.588   4.709  14.981  0.00  0.00    +0.000 C 
ATOM     20  O   UNL     1       7.551   5.431  14.732  0.00  0.00    +0.000 OA
BRANCH  19  21
ATOM     21  O   UNL     1       6.224   3.612  14.256  0.00  0.00    +0.000 OA
BRANCH  21  23
ATOM     22  C   UNL     1       5.026   3.401  12.203  0.00  0.00    +0.000 C 
ATOM     23  C   UNL     1       6.373   3.705  12.835  0.00  0.00    +0.000 C 
ENDBRANCH  21  23
ENDBRANCH  19  21
ENDBRANCH   1  19
TORSDOF 5
ENDMDL
MODEL 3
REMARK VINA RESULT:      -7.4      0.927      1.552
REMARK  Name = 
REMARK  7 active torsions:
REMARK  status: ('A' for Active; 'I' for Inactive)
REMARK    1  A    between atoms: C_1  and  C_2
REMARK    2  A    between atoms: C_2  and  O_3
REMARK    3  A    between atoms: O_3  and  C_4
REMARK    4  A    between atoms: C_4  and  C_6
REMARK    5  A    between atoms: C_8  and  C_9
REMARK    6  A    between atoms: C_16  and  N_17
REMARK    7  A    between atoms: N_20  and  C_21
REMARK                            x       y       z     vdW  Elec       q    Type
REMARK                         _______ _______ _______ _____ _____    ______ ____
ROOT
ATOM      1  C   UNL     1       6.073   5.008  17.090  0.00  0.00    +0.000 A 
ATOM      2  C   UNL     1       5.057   4.081  17.530  0.00  0.00    +0.000 A 
ATOM      3  C   UNL     1       3.959   4.696  18.095  0.00  0.00    +0.000 A 
ATOM      4  S   UNL     1       4.110   6.390  17.983  0.00  0.00    +0.000 S 
ATOM      5  C   UNL     1       5.688   6.311  17.352  0.00  0.00    +0.000 A 
ENDROOT
BRANCH   5   6
ATOM      6  N   UNL     1       6.373   7.491  17.079  0.00  0.00    +0.000 N 
ATOM      7  C   UNL     1       7.478   7.921  17.790  0.00  0.00    +0.000 C 
ATOM      8  O   UNL     1       8.097   7.287  18.636  0.00  0.00    +0.000 OA
ATOM      9  N   UNL     1       7.834   9.215  17.473  0.00  0.00    +0.000 N 
ATOM     10  C   UNL     1       8.960   9.821  18.145  0.00  0.00    +0.000 C 
ATOM     11  H   UNL     1       6.196   7.913  16.174  0.00  0.00    +0.000 HD
ATOM     12  H   UNL     1       7.541   9.593  16.585  0.00  0.00    +0.000 HD
ENDBRANCH   5   6
BRANCH   3  13
ATOM     13  C   UNL     1       2.762   4.094  18.692  0.00  0.00    +0.000 A 
ATOM     14  C   UNL     1       2.226   4.585  19.894  0.00  0.00    +0.000 A 
ATOM     15  C   UNL     1       1.088   4.010  20.463  0.00  0.00    +0.000 A 
ATOM     16  C   UNL     1       0.474   2.929  19.839  0.00  0.00    +0.000 A 
ATOM     17  C   UNL     1       1.000   2.417  18.652  0.00  0.00    +0.000 A 
ATOM     18  C   UNL     1       2.137   2.998  18.081  0.00  0.00    +0.000 A 
ENDBRANCH   3  13
BRANCH   1  19
ATOM     19  C   UNL     1       7.324   4.627  16.451  0.00  0.00    +0.000 C 
ATOM     20  O   UNL     1       8.250   4.081  17.047  0.00  0.00    +0.000 OA
BRANCH  19  21
ATOM     21  O   UNL     1       7.360   5.025  15.148  0.00  0.00    +0.000 OA
BRANCH  21  23
ATOM     22  C   UNL     1       6.292   3.766  13.425  0.00  0.00    +0.000 C 
ATOM     23  C   UNL     1       6.139   4.912  14.409  0.00  0.00    +0.000 C 
ENDBRANCH  21  23
ENDBRANCH  19  21
ENDBRANCH   1  19
TORSDOF 5
ENDMDL
MODEL 4
REMARK VINA RESULT:      -7.3      2.628      6.291
REMARK  Name = 
REMARK  7 active torsions:
REMARK  status: ('A' for Active; 'I' for Inactive)
REMARK    1  A    between atoms: C_1  and  C_2
REMARK    2  A    between atoms: C_2  and  O_3
REMARK    3  A    between atoms: O_3  and  C_4
REMARK    4  A    between atoms: C_4  and  C_6
REMARK    5  A    between atoms: C_8  and  C_9
REMARK    6  A    between atoms: C_16  and  N_17
REMARK    7  A    between atoms: N_20  and  C_21
REMARK                            x       y       z     vdW  Elec       q    Type
REMARK                         _______ _______ _______ _____ _____    ______ ____
ROOT
ATOM      1  C   UNL     1       6.796   5.607  17.906  0.00  0.00    +0.000 A 
ATOM      2  C   UNL     1       7.323   5.317  16.593  0.00  0.00    +0.000 A 
ATOM      3  C   UNL     1       6.352   4.978  15.674  0.00  0.00    +0.000 A 
ATOM      4  S   UNL     1       4.804   5.126  16.371  0.00  0.00    +0.000 S 
ATOM      5  C   UNL     1       5.420   5.467  17.919  0.00  0.00    +0.000 A 
ENDROOT
BRANCH   5   6
ATOM      6  N   UNL     1       4.538   5.661  18.977  0.00  0.00    +0.000 N 
ATOM      7  C   UNL     1       3.910   4.631  19.654  0.00  0.00    +0.000 C 
ATOM      8  O   UNL     1       4.138   3.433  19.539  0.00  0.00    +0.000 OA
ATOM      9  N   UNL     1       2.923   5.086  20.503  0.00  0.00    +0.000 N 
ATOM     10  C   UNL     1       2.158   4.132  21.271  0.00  0.00    +0.000 C 
ATOM     11  H   UNL     1       4.555   6.576  19.413  0.00  0.00    +0.000 HD
ATOM     12  H   UNL     1       2.964   6.041  20.823  0.00  0.00    +0.000 HD
ENDBRANCH   5   6
BRANCH   3  13
ATOM     13  C   UNL     1       6.501   4.578  14.270  0.00  0.00    +0.000 A 
ATOM     14  C   UNL     1       5.626   3.647  13.686  0.00  0.00    +0.000 A 
ATOM     15  C   UNL     1       5.769   3.264  12.350  0.00  0.00    +0.000 A 
ATOM     16  C   UNL     1       6.797   3.804  11.583  0.00  0.00    +0.000 A 
ATOM     17  C   UNL     1       7.685   4.719  12.150  0.00  0.00    +0.000 A 
ATOM     18  C   UNL     1       7.536   5.104  13.486  0.00  0.00    +0.000 A 
ENDBRANCH   3  13
BRANCH   1  19
ATOM     19  C   UNL     1       7.600   6.001  19.054  0.00  0.00    +0.000 C 
ATOM     20  O   UNL     1       7.497   5.482  20.163  0.00  0.00    +0.000 OA
BRANCH  19  21
ATOM     21  O   UNL     1       8.407   7.059  18.758  0.00  0.00    +0.000 OA
BRANCH  21  23
ATOM     22  C   UNL     1       8.528   9.395  18.287  0.00  0.00    +0.000 C 
ATOM     23  C   UNL     1       7.843   8.086  17.937  0.00  0.00    +0.000 C 
ENDBRANCH  21  23
ENDBRANCH  19  21
ENDBRANCH   1  19
TORSDOF 5
ENDMDL
MODEL 5
REMARK VINA RESULT:      -7.3      2.616      6.319
REMARK  Name = 
REMARK  7 active torsions:
REMARK  status: ('A' for Active; 'I' for Inactive)
REMARK    1  A    between atoms: C_1  and  C_2
REMARK    2  A    between atoms: C_2  and  O_3
REMARK    3  A    between atoms: O_3  and  C_4
REMARK    4  A    between atoms: C_4  and  C_6
REMARK    5  A    between atoms: C_8  and  C_9
REMARK    6  A    between atoms: C_16  and  N_17
REMARK    7  A    between atoms: N_20  and  C_21
REMARK                            x       y       z     vdW  Elec       q    Type
REMARK                         _______ _______ _______ _____ _____    ______ ____
ROOT
ATOM      1  C   UNL     1       6.797   5.608  17.924  0.00  0.00    +0.000 A 
ATOM      2  C   UNL     1       7.318   5.312  16.610  0.00  0.00    +0.000 A 
ATOM      3  C   UNL     1       6.344   4.958  15.699  0.00  0.00    +0.000 A 
ATOM      4  S   UNL     1       4.799   5.099  16.405  0.00  0.00    +0.000 S 
ATOM      5  C   UNL     1       5.422   5.457  17.947  0.00  0.00    +0.000 A 
ENDROOT
BRANCH   5   6
ATOM      6  N   UNL     1       4.545   5.651  19.009  0.00  0.00    +0.000 N 
ATOM      7  C   UNL     1       3.863   4.628  19.641  0.00  0.00    +0.000 C 
ATOM      8  O   UNL     1       4.032   3.425  19.478  0.00  0.00    +0.000 OA
ATOM      9  N   UNL     1       2.896   5.097  20.505  0.00  0.00    +0.000 N 
ATOM     10  C   UNL     1       2.081   4.151  21.231  0.00  0.00    +0.000 C 
ATOM     11  H   UNL     1       4.606   6.546  19.482  0.00  0.00    +0.000 HD
ATOM     12  H   UNL     1       2.983   6.035  20.864  0.00  0.00    +0.000 HD
ENDBRANCH   5   6
BRANCH   3  13
ATOM     13  C   UNL     1       6.487   4.548  14.298  0.00  0.00    +0.000 A 
ATOM     14  C   UNL     1       7.494   5.091  13.483  0.00  0.00    +0.000 A 
ATOM     15  C   UNL     1       7.628   4.702  12.148  0.00  0.00    +0.000 A 
ATOM     16  C   UNL     1       6.748   3.769  11.608  0.00  0.00    +0.000 A 
ATOM     17  C   UNL     1       5.732   3.230  12.398  0.00  0.00    +0.000 A 
ATOM     18  C   UNL     1       5.603   3.617  13.736  0.00  0.00    +0.000 A 
ENDBRANCH   3  13
BRANCH   1  19
ATOM     19  C   UNL     1       7.604   6.017  19.064  0.00  0.00    +0.000 C 
ATOM     20  O   UNL     1       7.501   5.518  20.182  0.00  0.00    +0.000 OA
BRANCH  19  21
ATOM     21  O   UNL     1       8.418   7.065  18.748  0.00  0.00    +0.000 OA
BRANCH  21  23
ATOM     22  C   UNL     1       8.530   9.409  18.315  0.00  0.00    +0.000 C 
ATOM     23  C   UNL     1       7.843   8.105  17.949  0.00  0.00    +0.000 C 
ENDBRANCH  21  23
ENDBRANCH  19  21
ENDBRANCH   1  19
TORSDOF 5
ENDMDL
MODEL 6
REMARK VINA RESULT:      -7.1      1.575      4.280
REMARK  Name = 
REMARK  7 active torsions:
REMARK  status: ('A' for Active; 'I' for Inactive)
REMARK    1  A    between atoms: C_1  and  C_2
REMARK    2  A    between atoms: C_2  and  O_3
REMARK    3  A    between atoms: O_3  and  C_4
REMARK    4  A    between atoms: C_4  and  C_6
REMARK    5  A    between atoms: C_8  and  C_9
REMARK    6  A    between atoms: C_16  and  N_17
REMARK    7  A    between atoms: N_20  and  C_21
REMARK                            x       y       z     vdW  Elec       q    Type
REMARK                         _______ _______ _______ _____ _____    ______ ____
ROOT
ATOM      1  C   UNL     1       6.249   5.767  17.956  0.00  0.00    +0.000 A 
ATOM      2  C   UNL     1       5.347   5.288  18.978  0.00  0.00    +0.000 A 
ATOM      3  C   UNL     1       4.205   4.703  18.473  0.00  0.00    +0.000 A 
ATOM      4  S   UNL     1       4.282   4.633  16.771  0.00  0.00    +0.000 S 
ATOM      5  C   UNL     1       5.731   5.521  16.697  0.00  0.00    +0.000 A 
ENDROOT
BRANCH   5   6
ATOM      6  N   UNL     1       6.286   5.818  15.456  0.00  0.00    +0.000 N 
ATOM      7  C   UNL     1       6.543   4.872  14.482  0.00  0.00    +0.000 C 
ATOM      8  O   UNL     1       6.196   3.697  14.492  0.00  0.00    +0.000 OA
ATOM      9  N   UNL     1       7.294   5.379  13.442  0.00  0.00    +0.000 N 
ATOM     10  C   UNL     1       7.664   4.510  12.350  0.00  0.00    +0.000 C 
ATOM     11  H   UNL     1       6.269   6.793  15.180  0.00  0.00    +0.000 HD
ATOM     12  H   UNL     1       7.293   6.375  13.288  0.00  0.00    +0.000 HD
ENDBRANCH   5   6
BRANCH   3  13
ATOM     13  C   UNL     1       3.051   4.149  19.188  0.00  0.00    +0.000 A 
ATOM     14  C   UNL     1       2.891   4.347  20.570  0.00  0.00    +0.000 A 
ATOM     15  C   UNL     1       1.793   3.816  21.251  0.00  0.00    +0.000 A 
ATOM     16  C   UNL     1       0.842   3.073  20.558  0.00  0.00    +0.000 A 
ATOM     17  C   UNL     1       0.992   2.853  19.188  0.00  0.00    +0.000 A 
ATOM     18  C   UNL     1       2.089   3.390  18.508  0.00  0.00    +0.000 A 
ENDBRANCH   3  13
BRANCH   1  19
ATOM     19  C   UNL     1       7.528   6.413  18.214  0.00  0.00    +0.000 C 
ATOM     20  O   UNL     1       8.233   6.155  19.186  0.00  0.00    +0.000 OA
BRANCH  19  21
ATOM     21  O   UNL     1       7.792   7.381  17.291  0.00  0.00    +0.000 OA
BRANCH  21  23
ATOM     22  C   UNL     1       8.570   9.412  18.273  0.00  0.00    +0.000 C 
ATOM     23  C   UNL     1       7.388   8.712  17.625  0.00  0.00    +0.000 C 
ENDBRANCH  21  23
ENDBRANCH  19  21
ENDBRANCH   1  19
TORSDOF 5
ENDMDL
MODEL 7
REMARK VINA RESULT:      -7.0      1.932      4.256
REMARK  Name = 
REMARK  7 active torsions:
REMARK  status: ('A' for Active; 'I' for Inactive)
REMARK    1  A    between atoms: C_1  and  C_2
REMARK    2  A    between atoms: C_2  and  O_3
REMARK    3  A    between atoms: O_3  and  C_4
REMARK    4  A    between atoms: C_4  and  C_6
REMARK    5  A    between atoms: C_8  and  C_9
REMARK    6  A    between atoms: C_16  and  N_17
REMARK    7  A    between atoms: N_20  and  C_21
REMARK                            x       y       z     vdW  Elec       q    Type
REMARK                         _______ _______ _______ _____ _____    ______ ____
ROOT
ATOM      1  C   UNL     1       6.474   5.140  18.447  0.00  0.00    +0.000 A 
ATOM      2  C   UNL     1       5.303   4.881  19.252  0.00  0.00    +0.000 A 
ATOM      3  C   UNL     1       4.330   4.160  18.591  0.00  0.00    +0.000 A 
ATOM      4  S   UNL     1       4.884   3.702  17.046  0.00  0.00    +0.000 S 
ATOM      5  C   UNL     1       6.326   4.594  17.185  0.00  0.00    +0.000 A 
ENDROOT
BRANCH   5   6
ATOM      6  N   UNL     1       7.221   4.614  16.119  0.00  0.00    +0.000 N 
ATOM      7  C   UNL     1       6.972   5.249  14.917  0.00  0.00    +0.000 C 
ATOM      8  O   UNL     1       6.032   5.993  14.663  0.00  0.00    +0.000 OA
ATOM      9  N   UNL     1       7.909   4.936  13.955  0.00  0.00    +0.000 N 
ATOM     10  C   UNL     1       7.779   5.505  12.634  0.00  0.00    +0.000 C 
ATOM     11  H   UNL     1       8.179   4.361  16.335  0.00  0.00    +0.000 HD
ATOM     12  H   UNL     1       8.813   4.605  14.251  0.00  0.00    +0.000 HD
ENDBRANCH   5   6
BRANCH   3  13
ATOM     13  C   UNL     1       3.000   3.750  19.056  0.00  0.00    +0.000 A 
ATOM     14  C   UNL     1       2.502   4.179  20.298  0.00  0.00    +0.000 A 
ATOM     15  C   UNL     1       1.238   3.786  20.741  0.00  0.00    +0.000 A 
ATOM     16  C   UNL     1       0.456   2.950  19.949  0.00  0.00    +0.000 A 
ATOM     17  C   UNL     1       0.939   2.502  18.719  0.00  0.00    +0.000 A 
ATOM     18  C   UNL     1       2.204   2.902  18.275  0.00  0.00    +0.000 A 
ENDBRANCH   3  13
BRANCH   1  19
ATOM     19  C   UNL     1       7.650   5.866  18.903  0.00  0.00    +0.000 C 
ATOM     20  O   UNL     1       8.265   5.586  19.929  0.00  0.00    +0.000 OA
BRANCH  19  21
ATOM     21  O   UNL     1       7.921   6.931  18.095  0.00  0.00    +0.000 OA
BRANCH  21  23
ATOM     22  C   UNL     1       8.195   9.292  17.882  0.00  0.00    +0.000 C 
ATOM     23  C   UNL     1       8.531   8.067  18.715  0.00  0.00    +0.000 C 
ENDBRANCH  21  23
ENDBRANCH  19  21
ENDBRANCH   1  19
TORSDOF 5
ENDMDL
MODEL 8
REMARK VINA RESULT:      -7.0      3.987      5.831
REMARK  Name = 
REMARK  7 active torsions:
REMARK  status: ('A' for Active; 'I' for Inactive)
REMARK    1  A    between atoms: C_1  and  C_2
REMARK    2  A    between atoms: C_2  and  O_3
REMARK    3  A    between atoms: O_3  and  C_4
REMARK    4  A    between atoms: C_4  and  C_6
REMARK    5  A    between atoms: C_8  and  C_9
REMARK    6  A    between atoms: C_16  and  N_17
REMARK    7  A    between atoms: N_20  and  C_21
REMARK                            x       y       z     vdW  Elec       q    Type
REMARK                         _______ _______ _______ _____ _____    ______ ____
ROOT
ATOM      1  C   UNL     1       4.079   6.811  17.505  0.00  0.00    +0.000 A 
ATOM      2  C   UNL     1       3.255   7.993  17.606  0.00  0.00    +0.000 A 
ATOM      3  C   UNL     1       2.339   7.939  18.637  0.00  0.00    +0.000 A 
ATOM      4  S   UNL     1       2.560   6.513  19.545  0.00  0.00    +0.000 S 
ATOM      5  C   UNL     1       3.736   5.896  18.484  0.00  0.00    +0.000 A 
ENDROOT
BRANCH   5   6
ATOM      6  N   UNL     1       4.290   4.643  18.733  0.00  0.00    +0.000 N 
ATOM      7  C   UNL     1       3.737   3.456  18.290  0.00  0.00    +0.000 C 
ATOM      8  O   UNL     1       2.799   3.330  17.511  0.00  0.00    +0.000 OA
ATOM      9  N   UNL     1       4.344   2.353  18.852  0.00  0.00    +0.000 N 
ATOM     10  C   UNL     1       3.868   1.034  18.506  0.00  0.00    +0.000 C 
ATOM     11  H   UNL     1       5.256   4.633  19.039  0.00  0.00    +0.000 HD
ATOM     12  H   UNL     1       5.279   2.449  19.215  0.00  0.00    +0.000 HD
ENDBRANCH   5   6
BRANCH   3  13
ATOM     13  C   UNL     1       1.314   8.914  19.021  0.00  0.00    +0.000 A 
ATOM     14  C   UNL     1       0.961   9.103  20.368  0.00  0.00    +0.000 A 
ATOM     15  C   UNL     1      -0.018  10.030  20.733  0.00  0.00    +0.000 A 
ATOM     16  C   UNL     1      -0.663  10.777  19.751  0.00  0.00    +0.000 A 
ATOM     17  C   UNL     1      -0.336  10.594  18.408  0.00  0.00    +0.000 A 
ATOM     18  C   UNL     1       0.648   9.668  18.045  0.00  0.00    +0.000 A 
ENDBRANCH   3  13
BRANCH   1  19
ATOM     19  C   UNL     1       5.128   6.613  16.516  0.00  0.00    +0.000 C 
ATOM     20  O   UNL     1       5.016   6.932  15.335  0.00  0.00    +0.000 OA
BRANCH  19  21
ATOM     21  O   UNL     1       6.201   5.963  17.052  0.00  0.00    +0.000 OA
BRANCH  21  23
ATOM     22  C   UNL     1       7.810   6.204  18.798  0.00  0.00    +0.000 C 
ATOM     23  C   UNL     1       7.291   6.779  17.491  0.00  0.00    +0.000 C 
ENDBRANCH  21  23
ENDBRANCH  19  21
ENDBRANCH   1  19
TORSDOF 5
ENDMDL
MODEL 9
REMARK VINA RESULT:      -6.9      4.016      5.824
REMARK  Name = 
REMARK  7 active torsions:
REMARK  status: ('A' for Active; 'I' for Inactive)
REMARK    1  A    between atoms: C_1  and  C_2
REMARK    2  A    between atoms: C_2  and  O_3
REMARK    3  A    between atoms: O_3  and  C_4
REMARK    4  A    between atoms: C_4  and  C_6
REMARK    5  A    between atoms: C_8  and  C_9
REMARK    6  A    between atoms: C_16  and  N_17
REMARK    7  A    between atoms: N_20  and  C_21
REMARK                            x       y       z     vdW  Elec       q    Type
REMARK                         _______ _______ _______ _____ _____    ______ ____
ROOT
ATOM      1  C   UNL     1       4.038   6.824  17.553  0.00  0.00    +0.000 A 
ATOM      2  C   UNL     1       3.219   8.011  17.641  0.00  0.00    +0.000 A 
ATOM      3  C   UNL     1       2.297   7.967  18.666  0.00  0.00    +0.000 A 
ATOM      4  S   UNL     1       2.505   6.547  19.586  0.00  0.00    +0.000 S 
ATOM      5  C   UNL     1       3.685   5.917  18.536  0.00  0.00    +0.000 A 
ENDROOT
BRANCH   5   6
ATOM      6  N   UNL     1       4.231   4.663  18.797  0.00  0.00    +0.000 N 
ATOM      7  C   UNL     1       3.733   3.484  18.275  0.00  0.00    +0.000 C 
ATOM      8  O   UNL     1       2.867   3.371  17.416  0.00  0.00    +0.000 OA
ATOM      9  N   UNL     1       4.304   2.371  18.857  0.00  0.00    +0.000 N 
ATOM     10  C   UNL     1       3.877   1.058  18.434  0.00  0.00    +0.000 C 
ATOM     11  H   UNL     1       5.168   4.655  19.184  0.00  0.00    +0.000 HD
ATOM     12  H   UNL     1       5.203   2.466  19.301  0.00  0.00    +0.000 HD
ENDBRANCH   5   6
BRANCH   3  13
ATOM     13  C   UNL     1       1.274   8.950  19.038  0.00  0.00    +0.000 A 
ATOM     14  C   UNL     1       0.615   9.716  18.061  0.00  0.00    +0.000 A 
ATOM     15  C   UNL     1      -0.358  10.654  18.416  0.00  0.00    +0.000 A 
ATOM     16  C   UNL     1      -0.679  10.843  19.756  0.00  0.00    +0.000 A 
ATOM     17  C   UNL     1      -0.025  10.103  20.742  0.00  0.00    +0.000 A 
ATOM     18  C   UNL     1       0.945   9.161  20.384  0.00  0.00    +0.000 A 
ENDBRANCH   3  13
BRANCH   1  19
ATOM     19  C   UNL     1       5.093   6.615  16.572  0.00  0.00    +0.000 C 
ATOM     20  O   UNL     1       4.992   6.934  15.390  0.00  0.00    +0.000 OA
BRANCH  19  21
ATOM     21  O   UNL     1       6.154   5.954  17.116  0.00  0.00    +0.000 OA
BRANCH  21  23
ATOM     22  C   UNL     1       7.801   6.171  18.830  0.00  0.00    +0.000 C 
ATOM     23  C   UNL     1       7.262   6.757  17.536  0.00  0.00    +0.000 C 
ENDBRANCH  21  23
ENDBRANCH  19  21
ENDBRANCH   1  19
TORSDOF 5
ENDMDL
