MODEL 1
REMARK VINA RESULT:      -6.6      0.000      0.000
REMARK  Name = 
REMARK  11 active torsions:
REMARK  status: ('A' for Active; 'I' for Inactive)
REMARK    1  A    between atoms: C_1  and  C_2
REMARK    2  A    between atoms: C_2  and  N_3
REMARK    3  A    between atoms: C_2  and  C_17
REMARK    4  A    between atoms: C_4  and  S_5
REMARK    5  A    between atoms: N_6  and  C_7
REMARK    6  A    between atoms: N_11  and  C_12
REMARK    7  A    between atoms: C_12  and  C_13
REMARK    8  A    between atoms: C_13  and  N_14
REMARK    9  A    between atoms: C_17  and  C_18
REMARK   10  A    between atoms: C_17  and  C_19
REMARK   11  A    between atoms: C_17  and  C_20
REMARK                            x       y       z     vdW  Elec       q    Type
REMARK                         _______ _______ _______ _____ _____    ______ ____
ROOT
ATOM      1  C   UNL     1       2.230   7.241  19.508  0.00  0.00    +0.000 A 
ATOM      2  C   UNL     1       2.386   7.658  18.188  0.00  0.00    +0.000 A 
ATOM      3  C   UNL     1       1.893   8.889  17.764  0.00  0.00    +0.000 A 
ATOM      4  C   UNL     1       1.274   9.727  18.672  0.00  0.00    +0.000 A 
ATOM      5  N   UNL     1       0.837  10.977  18.263  0.00  0.00    +0.000 N 
ATOM      6  N   UNL     1       1.109   9.364  19.956  0.00  0.00    +0.000 NA
ATOM      7  C   UNL     1       1.570   8.147  20.334  0.00  0.00    +0.000 A 
ATOM      8  H   UNL     1       0.994  11.253  17.303  0.00  0.00    +0.000 HD
ENDROOT
BRANCH   1  11
ATOM      9  N   UNL     1       4.748   5.707  18.966  0.00  0.00    +0.000 NA
ATOM     10  C   UNL     1       3.743   5.261  19.624  0.00  0.00    +0.000 C 
ATOM     11  N   UNL     1       2.662   6.008  20.007  0.00  0.00    +0.000 N 
ATOM     12  H   UNL     1       1.972   5.493  20.546  0.00  0.00    +0.000 HD
BRANCH   9  14
ATOM     13  C   UNL     1       7.161   5.583  19.012  0.00  0.00    +0.000 C 
ATOM     14  C   UNL     1       5.881   4.949  18.460  0.00  0.00    +0.000 C 
BRANCH  14  15
ATOM     15  C   UNL     1       5.801   4.931  16.890  0.00  0.00    +0.000 C 
ATOM     16  C   UNL     1       7.175   4.570  16.295  0.00  0.00    +0.000 C 
ATOM     17  C   UNL     1       4.795   3.849  16.433  0.00  0.00    +0.000 C 
ATOM     18  C   UNL     1       5.359   6.282  16.294  0.00  0.00    +0.000 C 
ENDBRANCH  14  15
ENDBRANCH   9  14
BRANCH  10  19
ATOM     19  S   UNL     1       3.542   3.595  20.154  0.00  0.00    +0.000 S 
ATOM     20  H   UNL     1       3.749   2.991  18.983  0.00  0.00    +0.000 HD
ENDBRANCH  10  19
ENDBRANCH   1  11
BRANCH   5  21
ATOM     21  C   UNL     1       0.766  12.046  19.256  0.00  0.00    +0.000 C 
BRANCH  21  22
ATOM     22  C   UNL     1      -0.284  13.128  18.922  0.00  0.00    +0.000 C 
BRANCH  22  23
ATOM     23  N   UNL     1      -0.979  12.879  17.650  0.00  0.00    +0.000 NA
ATOM     24  H   UNL     1      -1.024  11.869  17.527  0.00  0.00    +0.000 HD
ATOM     25  H   UNL     1      -0.391  13.223  16.888  0.00  0.00    +0.000 HD
ENDBRANCH  22  23
ENDBRANCH  21  22
ENDBRANCH   5  21
TORSDOF 7
ENDMDL
MODEL 2
REMARK VINA RESULT:      -6.6      0.345      1.039
REMARK  Name = 
REMARK  11 active torsions:
REMARK  status: ('A' for Active; 'I' for Inactive)
REMARK    1  A    between atoms: C_1  and  C_2
REMARK    2  A    between atoms: C_2  and  N_3
REMARK    3  A    between atoms: C_2  and  C_17
REMARK    4  A    between atoms: C_4  and  S_5
REMARK    5  A    between atoms: N_6  and  C_7
REMARK    6  A    between atoms: N_11  and  C_12
REMARK    7  A    between atoms: C_12  and  C_13
REMARK    8  A    between atoms: C_13  and  N_14
REMARK    9  A    between atoms: C_17  and  C_18
REMARK   10  A    between atoms: C_17  and  C_19
REMARK   11  A    between atoms: C_17  and  C_20
REMARK                            x       y       z     vdW  Elec       q    Type
REMARK                         _______ _______ _______ _____ _____    ______ ____
ROOT
ATOM      1  C   UNL     1       2.406   7.150  19.420  0.00  0.00    +0.000 A 
ATOM      2  C   UNL     1       2.494   7.610  18.108  0.00  0.00    +0.000 A 
ATOM      3  C   UNL     1       1.900   8.811  17.728  0.00  0.00    +0.000 A 
ATOM      4  C   UNL     1       1.245   9.577  18.674  0.00  0.00    +0.000 A 
ATOM      5  N   UNL     1       0.705  10.800  18.310  0.00  0.00    +0.000 N 
ATOM      6  N   UNL     1       1.143   9.171  19.952  0.00  0.00    +0.000 NA
ATOM      7  C   UNL     1       1.703   7.984  20.286  0.00  0.00    +0.000 A 
ATOM      8  H   UNL     1       0.815  11.110  17.353  0.00  0.00    +0.000 HD
ENDROOT
BRANCH   1  11
ATOM      9  N   UNL     1       4.947   5.751  18.662  0.00  0.00    +0.000 NA
ATOM     10  C   UNL     1       4.025   5.253  19.399  0.00  0.00    +0.000 C 
ATOM     11  N   UNL     1       2.942   5.941  19.875  0.00  0.00    +0.000 N 
ATOM     12  H   UNL     1       2.328   5.390  20.467  0.00  0.00    +0.000 HD
BRANCH   9  14
ATOM     13  C   UNL     1       7.353   5.801  18.444  0.00  0.00    +0.000 C 
ATOM     14  C   UNL     1       6.073   5.055  18.060  0.00  0.00    +0.000 C 
BRANCH  14  15
ATOM     15  C   UNL     1       5.824   4.962  16.511  0.00  0.00    +0.000 C 
ATOM     16  C   UNL     1       5.268   6.299  15.984  0.00  0.00    +0.000 C 
ATOM     17  C   UNL     1       7.163   4.693  15.784  0.00  0.00    +0.000 C 
ATOM     18  C   UNL     1       4.834   3.845  16.126  0.00  0.00    +0.000 C 
ENDBRANCH  14  15
ENDBRANCH   9  14
BRANCH  10  19
ATOM     19  S   UNL     1       3.957   3.578  19.936  0.00  0.00    +0.000 S 
ATOM     20  H   UNL     1       4.953   3.617  20.822  0.00  0.00    +0.000 HD
ENDBRANCH  10  19
ENDBRANCH   1  11
BRANCH   5  21
ATOM     21  C   UNL     1       0.583  11.837  19.332  0.00  0.00    +0.000 C 
BRANCH  21  22
ATOM     22  C   UNL     1      -0.599  12.802  19.091  0.00  0.00    +0.000 C 
BRANCH  22  23
ATOM     23  N   UNL     1      -0.956  12.928  17.671  0.00  0.00    +0.000 NA
ATOM     24  H   UNL     1      -0.131  13.278  17.185  0.00  0.00    +0.000 HD
ATOM     25  H   UNL     1      -1.661  13.663  17.579  0.00  0.00    +0.000 HD
ENDBRANCH  22  23
ENDBRANCH  21  22
ENDBRANCH   5  21
TORSDOF 7
ENDMDL
MODEL 3
REMARK VINA RESULT:      -6.5      0.717      1.325
REMARK  Name = 
REMARK  11 active torsions:
REMARK  status: ('A' for Active; 'I' for Inactive)
REMARK    1  A    between atoms: C_1  and  C_2
REMARK    2  A    between atoms: C_2  and  N_3
REMARK    3  A    between atoms: C_2  and  C_17
REMARK    4  A    between atoms: C_4  and  S_5
REMARK    5  A    between atoms: N_6  and  C_7
REMARK    6  A    between atoms: N_11  and  C_12
REMARK    7  A    between atoms: C_12  and  C_13
REMARK    8  A    between atoms: C_13  and  N_14
REMARK    9  A    between atoms: C_17  and  C_18
REMARK   10  A    between atoms: C_17  and  C_19
REMARK   11  A    between atoms: C_17  and  C_20
REMARK                            x       y       z     vdW  Elec       q    Type
REMARK                         _______ _______ _______ _____ _____    ______ ____
ROOT
ATOM      1  C   UNL     1       2.188   7.199  19.519  0.00  0.00    +0.000 A 
ATOM      2  C   UNL     1       2.276   7.578  18.181  0.00  0.00    +0.000 A 
ATOM      3  C   UNL     1       1.804   8.816  17.755  0.00  0.00    +0.000 A 
ATOM      4  C   UNL     1       1.274   9.699  18.678  0.00  0.00    +0.000 A 
ATOM      5  N   UNL     1       0.860  10.955  18.264  0.00  0.00    +0.000 N 
ATOM      6  N   UNL     1       1.178   9.374  19.979  0.00  0.00    +0.000 NA
ATOM      7  C   UNL     1       1.616   8.150  20.360  0.00  0.00    +0.000 A 
ATOM      8  H   UNL     1       0.966  11.201  17.288  0.00  0.00    +0.000 HD
ENDROOT
BRANCH   1  11
ATOM      9  N   UNL     1       4.724   5.670  19.047  0.00  0.00    +0.000 NA
ATOM     10  C   UNL     1       3.698   5.219  19.669  0.00  0.00    +0.000 C 
ATOM     11  N   UNL     1       2.605   5.962  20.023  0.00  0.00    +0.000 N 
ATOM     12  H   UNL     1       1.898   5.443  20.535  0.00  0.00    +0.000 HD
BRANCH   9  14
ATOM     13  C   UNL     1       7.136   5.559  19.157  0.00  0.00    +0.000 C 
ATOM     14  C   UNL     1       5.874   4.917  18.573  0.00  0.00    +0.000 C 
BRANCH  14  15
ATOM     15  C   UNL     1       5.834   4.894  17.002  0.00  0.00    +0.000 C 
ATOM     16  C   UNL     1       4.824   3.838  16.514  0.00  0.00    +0.000 C 
ATOM     17  C   UNL     1       5.367   6.270  16.472  0.00  0.00    +0.000 C 
ATOM     18  C   UNL     1       7.204   4.575  16.370  0.00  0.00    +0.000 C 
ENDBRANCH  14  15
ENDBRANCH   9  14
BRANCH  10  19
ATOM     19  S   UNL     1       3.482   3.549  20.180  0.00  0.00    +0.000 S 
ATOM     20  H   UNL     1       2.623   3.761  21.179  0.00  0.00    +0.000 HD
ENDBRANCH  10  19
ENDBRANCH   1  11
BRANCH   5  21
ATOM     21  C   UNL     1       0.892  12.050  19.231  0.00  0.00    +0.000 C 
BRANCH  21  22
ATOM     22  C   UNL     1       1.744  13.253  18.769  0.00  0.00    +0.000 C 
BRANCH  22  23
ATOM     23  N   UNL     1       2.510  12.976  17.544  0.00  0.00    +0.000 NA
ATOM     24  H   UNL     1       1.988  12.279  17.016  0.00  0.00    +0.000 HD
ATOM     25  H   UNL     1       3.387  12.523  17.808  0.00  0.00    +0.000 HD
ENDBRANCH  22  23
ENDBRANCH  21  22
ENDBRANCH   5  21
TORSDOF 7
ENDMDL
MODEL 4
REMARK VINA RESULT:      -6.4      2.602      4.007
REMARK  Name = 
REMARK  11 active torsions:
REMARK  status: ('A' for Active; 'I' for Inactive)
REMARK    1  A    between atoms: C_1  and  C_2
REMARK    2  A    between atoms: C_2  and  N_3
REMARK    3  A    between atoms: C_2  and  C_17
REMARK    4  A    between atoms: C_4  and  S_5
REMARK    5  A    between atoms: N_6  and  C_7
REMARK    6  A    between atoms: N_11  and  C_12
REMARK    7  A    between atoms: C_12  and  C_13
REMARK    8  A    between atoms: C_13  and  N_14
REMARK    9  A    between atoms: C_17  and  C_18
REMARK   10  A    between atoms: C_17  and  C_19
REMARK   11  A    between atoms: C_17  and  C_20
REMARK                            x       y       z     vdW  Elec       q    Type
REMARK                         _______ _______ _______ _____ _____    ______ ____
ROOT
ATOM      1  C   UNL     1       2.135   8.469  18.397  0.00  0.00    +0.000 A 
ATOM      2  C   UNL     1       1.193   9.236  17.715  0.00  0.00    +0.000 A 
ATOM      3  C   UNL     1       0.214   9.947  18.404  0.00  0.00    +0.000 A 
ATOM      4  C   UNL     1       0.197   9.921  19.786  0.00  0.00    +0.000 A 
ATOM      5  N   UNL     1      -0.741  10.675  20.474  0.00  0.00    +0.000 N 
ATOM      6  N   UNL     1       1.092   9.197  20.481  0.00  0.00    +0.000 NA
ATOM      7  C   UNL     1       2.014   8.491  19.784  0.00  0.00    +0.000 A 
ATOM      8  H   UNL     1      -1.390  11.240  19.941  0.00  0.00    +0.000 HD
ENDROOT
BRANCH   1  11
ATOM      9  N   UNL     1       2.544   5.499  18.368  0.00  0.00    +0.000 NA
ATOM     10  C   UNL     1       3.377   6.360  17.914  0.00  0.00    +0.000 C 
ATOM     11  N   UNL     1       3.128   7.699  17.782  0.00  0.00    +0.000 N 
ATOM     12  H   UNL     1       3.897   8.227  17.378  0.00  0.00    +0.000 HD
BRANCH   9  14
ATOM     13  C   UNL     1       2.474   3.326  17.313  0.00  0.00    +0.000 C 
ATOM     14  C   UNL     1       2.777   4.084  18.609  0.00  0.00    +0.000 C 
BRANCH  14  15
ATOM     15  C   UNL     1       1.895   3.640  19.832  0.00  0.00    +0.000 C 
ATOM     16  C   UNL     1       2.751   2.857  20.845  0.00  0.00    +0.000 C 
ATOM     17  C   UNL     1       1.341   4.891  20.556  0.00  0.00    +0.000 C 
ATOM     18  C   UNL     1       0.702   2.754  19.424  0.00  0.00    +0.000 C 
ENDBRANCH  14  15
ENDBRANCH   9  14
BRANCH  10  19
ATOM     19  S   UNL     1       5.015   5.998  17.383  0.00  0.00    +0.000 S 
ATOM     20  H   UNL     1       5.602   7.131  17.774  0.00  0.00    +0.000 HD
ENDBRANCH  10  19
ENDBRANCH   1  11
BRANCH   5  21
ATOM     21  C   UNL     1      -0.408  11.138  21.819  0.00  0.00    +0.000 C 
BRANCH  21  22
ATOM     22  C   UNL     1      -0.835  10.155  22.931  0.00  0.00    +0.000 C 
BRANCH  22  23
ATOM     23  N   UNL     1       0.303   9.627  23.698  0.00  0.00    +0.000 NA
ATOM     24  H   UNL     1       0.748  10.420  24.157  0.00  0.00    +0.000 HD
ATOM     25  H   UNL     1       0.996   9.265  23.040  0.00  0.00    +0.000 HD
ENDBRANCH  22  23
ENDBRANCH  21  22
ENDBRANCH   5  21
TORSDOF 7
ENDMDL
MODEL 5
REMARK VINA RESULT:      -6.4      2.275      3.560
REMARK  Name = 
REMARK  11 active torsions:
REMARK  status: ('A' for Active; 'I' for Inactive)
REMARK    1  A    between atoms: C_1  and  C_2
REMARK    2  A    between atoms: C_2  and  N_3
REMARK    3  A    between atoms: C_2  and  C_17
REMARK    4  A    between atoms: C_4  and  S_5
REMARK    5  A    between atoms: N_6  and  C_7
REMARK    6  A    between atoms: N_11  and  C_12
REMARK    7  A    between atoms: C_12  and  C_13
REMARK    8  A    between atoms: C_13  and  N_14
REMARK    9  A    between atoms: C_17  and  C_18
REMARK   10  A    between atoms: C_17  and  C_19
REMARK   11  A    between atoms: C_17  and  C_20
REMARK                            x       y       z     vdW  Elec       q    Type
REMARK                         _______ _______ _______ _____ _____    ______ ____
ROOT
ATOM      1  C   UNL     1       2.262   8.323  18.516  0.00  0.00    +0.000 A 
ATOM      2  C   UNL     1       1.900   8.152  19.850  0.00  0.00    +0.000 A 
ATOM      3  C   UNL     1       0.960   8.986  20.450  0.00  0.00    +0.000 A 
ATOM      4  C   UNL     1       0.347   9.973  19.702  0.00  0.00    +0.000 A 
ATOM      5  N   UNL     1      -0.632  10.764  20.281  0.00  0.00    +0.000 N 
ATOM      6  N   UNL     1       0.664  10.167  18.409  0.00  0.00    +0.000 NA
ATOM      7  C   UNL     1       1.606   9.362  17.860  0.00  0.00    +0.000 A 
ATOM      8  H   UNL     1      -0.885  10.589  21.245  0.00  0.00    +0.000 HD
ENDROOT
BRANCH   1  11
ATOM      9  N   UNL     1       2.607   5.348  18.378  0.00  0.00    +0.000 NA
ATOM     10  C   UNL     1       3.446   6.207  17.930  0.00  0.00    +0.000 C 
ATOM     11  N   UNL     1       3.222   7.555  17.849  0.00  0.00    +0.000 N 
ATOM     12  H   UNL     1       3.991   8.079  17.442  0.00  0.00    +0.000 HD
BRANCH   9  14
ATOM     13  C   UNL     1       2.517   3.219  17.238  0.00  0.00    +0.000 C 
ATOM     14  C   UNL     1       2.816   3.922  18.565  0.00  0.00    +0.000 C 
BRANCH  14  15
ATOM     15  C   UNL     1       1.913   3.444  19.761  0.00  0.00    +0.000 C 
ATOM     16  C   UNL     1       0.831   2.473  19.250  0.00  0.00    +0.000 C 
ATOM     17  C   UNL     1       2.777   2.681  20.793  0.00  0.00    +0.000 C 
ATOM     18  C   UNL     1       1.211   4.608  20.487  0.00  0.00    +0.000 C 
ENDBRANCH  14  15
ENDBRANCH   9  14
BRANCH  10  19
ATOM     19  S   UNL     1       5.061   5.829  17.343  0.00  0.00    +0.000 S 
ATOM     20  H   UNL     1       4.841   6.004  16.039  0.00  0.00    +0.000 HD
ENDBRANCH  10  19
ENDBRANCH   1  11
BRANCH   5  21
ATOM     21  C   UNL     1      -1.664  11.335  19.419  0.00  0.00    +0.000 C 
BRANCH  21  22
ATOM     22  C   UNL     1      -1.356  12.779  18.965  0.00  0.00    +0.000 C 
BRANCH  22  23
ATOM     23  N   UNL     1      -0.931  12.860  17.560  0.00  0.00    +0.000 NA
ATOM     24  H   UNL     1      -1.588  13.475  17.083  0.00  0.00    +0.000 HD
ATOM     25  H   UNL     1      -1.054  11.940  17.132  0.00  0.00    +0.000 HD
ENDBRANCH  22  23
ENDBRANCH  21  22
ENDBRANCH   5  21
TORSDOF 7
ENDMDL
MODEL 6
REMARK VINA RESULT:      -6.3      0.947      1.205
REMARK  Name = 
REMARK  11 active torsions:
REMARK  status: ('A' for Active; 'I' for Inactive)
REMARK    1  A    between atoms: C_1  and  C_2
REMARK    2  A    between atoms: C_2  and  N_3
REMARK    3  A    between atoms: C_2  and  C_17
REMARK    4  A    between atoms: C_4  and  S_5
REMARK    5  A    between atoms: N_6  and  C_7
REMARK    6  A    between atoms: N_11  and  C_12
REMARK    7  A    between atoms: C_12  and  C_13
REMARK    8  A    between atoms: C_13  and  N_14
REMARK    9  A    between atoms: C_17  and  C_18
REMARK   10  A    between atoms: C_17  and  C_19
REMARK   11  A    between atoms: C_17  and  C_20
REMARK                            x       y       z     vdW  Elec       q    Type
REMARK                         _______ _______ _______ _____ _____    ______ ____
ROOT
ATOM      1  C   UNL     1       2.178   7.287  19.540  0.00  0.00    +0.000 A 
ATOM      2  C   UNL     1       2.379   7.760  18.246  0.00  0.00    +0.000 A 
ATOM      3  C   UNL     1       1.909   9.013  17.861  0.00  0.00    +0.000 A 
ATOM      4  C   UNL     1       1.266   9.815  18.785  0.00  0.00    +0.000 A 
ATOM      5  N   UNL     1       0.851  11.085  18.418  0.00  0.00    +0.000 N 
ATOM      6  N   UNL     1       1.058   9.397  20.046  0.00  0.00    +0.000 NA
ATOM      7  C   UNL     1       1.499   8.161  20.385  0.00  0.00    +0.000 A 
ATOM      8  H   UNL     1       1.041  11.401  17.476  0.00  0.00    +0.000 HD
ENDROOT
BRANCH   1  11
ATOM      9  N   UNL     1       4.683   5.739  18.976  0.00  0.00    +0.000 NA
ATOM     10  C   UNL     1       3.662   5.283  19.602  0.00  0.00    +0.000 C 
ATOM     11  N   UNL     1       2.586   6.029  19.998  0.00  0.00    +0.000 N 
ATOM     12  H   UNL     1       1.881   5.504  20.507  0.00  0.00    +0.000 HD
BRANCH   9  14
ATOM     13  C   UNL     1       7.096   5.606  19.018  0.00  0.00    +0.000 C 
ATOM     14  C   UNL     1       5.813   4.985  18.459  0.00  0.00    +0.000 C 
BRANCH  14  15
ATOM     15  C   UNL     1       5.731   4.988  16.889  0.00  0.00    +0.000 C 
ATOM     16  C   UNL     1       7.103   4.628  16.287  0.00  0.00    +0.000 C 
ATOM     17  C   UNL     1       4.718   3.919  16.418  0.00  0.00    +0.000 C 
ATOM     18  C   UNL     1       5.296   6.350  16.312  0.00  0.00    +0.000 C 
ENDBRANCH  14  15
ENDBRANCH   9  14
BRANCH  10  19
ATOM     19  S   UNL     1       3.430   3.601  20.065  0.00  0.00    +0.000 S 
ATOM     20  H   UNL     1       2.191   3.439  19.599  0.00  0.00    +0.000 HD
ENDBRANCH  10  19
ENDBRANCH   1  11
BRANCH   5  21
ATOM     21  C   UNL     1       0.757  12.110  19.455  0.00  0.00    +0.000 C 
BRANCH  21  22
ATOM     22  C   UNL     1       2.059  12.920  19.639  0.00  0.00    +0.000 C 
BRANCH  22  23
ATOM     23  N   UNL     1       2.349  13.226  21.048  0.00  0.00    +0.000 NA
ATOM     24  H   UNL     1       1.486  13.079  21.570  0.00  0.00    +0.000 HD
ATOM     25  H   UNL     1       2.552  14.225  21.126  0.00  0.00    +0.000 HD
ENDBRANCH  22  23
ENDBRANCH  21  22
ENDBRANCH   5  21
TORSDOF 7
ENDMDL
MODEL 7
REMARK VINA RESULT:      -6.2      1.224      1.897
REMARK  Name = 
REMARK  11 active torsions:
REMARK  status: ('A' for Active; 'I' for Inactive)
REMARK    1  A    between atoms: C_1  and  C_2
REMARK    2  A    between atoms: C_2  and  N_3
REMARK    3  A    between atoms: C_2  and  C_17
REMARK    4  A    between atoms: C_4  and  S_5
REMARK    5  A    between atoms: N_6  and  C_7
REMARK    6  A    between atoms: N_11  and  C_12
REMARK    7  A    between atoms: C_12  and  C_13
REMARK    8  A    between atoms: C_13  and  N_14
REMARK    9  A    between atoms: C_17  and  C_18
REMARK   10  A    between atoms: C_17  and  C_19
REMARK   11  A    between atoms: C_17  and  C_20
REMARK                            x       y       z     vdW  Elec       q    Type
REMARK                         _______ _______ _______ _____ _____    ______ ____
ROOT
ATOM      1  C   UNL     1       1.811   7.597  20.012  0.00  0.00    +0.000 A 
ATOM      2  C   UNL     1       2.253   7.805  18.707  0.00  0.00    +0.000 A 
ATOM      3  C   UNL     1       2.003   9.007  18.050  0.00  0.00    +0.000 A 
ATOM      4  C   UNL     1       1.339  10.023  18.713  0.00  0.00    +0.000 A 
ATOM      5  N   UNL     1       1.143  11.240  18.080  0.00  0.00    +0.000 N 
ATOM      6  N   UNL     1       0.902   9.863  19.974  0.00  0.00    +0.000 NA
ATOM      7  C   UNL     1       1.132   8.673  20.579  0.00  0.00    +0.000 A 
ATOM      8  H   UNL     1       1.503  11.359  17.142  0.00  0.00    +0.000 HD
ENDROOT
BRANCH   1  11
ATOM      9  N   UNL     1       3.660   5.291  19.514  0.00  0.00    +0.000 NA
ATOM     10  C   UNL     1       2.729   5.309  20.393  0.00  0.00    +0.000 C 
ATOM     11  N   UNL     1       1.989   6.410  20.730  0.00  0.00    +0.000 N 
ATOM     12  H   UNL     1       1.311   6.245  21.469  0.00  0.00    +0.000 HD
BRANCH   9  14
ATOM     13  C   UNL     1       5.870   4.584  18.838  0.00  0.00    +0.000 C 
ATOM     14  C   UNL     1       4.421   4.139  19.055  0.00  0.00    +0.000 C 
BRANCH  14  15
ATOM     15  C   UNL     1       3.725   3.570  17.765  0.00  0.00    +0.000 C 
ATOM     16  C   UNL     1       2.372   4.272  17.542  0.00  0.00    +0.000 C 
ATOM     17  C   UNL     1       4.609   3.854  16.528  0.00  0.00    +0.000 C 
ATOM     18  C   UNL     1       3.473   2.052  17.838  0.00  0.00    +0.000 C 
ENDBRANCH  14  15
ENDBRANCH   9  14
BRANCH  10  19
ATOM     19  S   UNL     1       2.201   3.919  21.335  0.00  0.00    +0.000 S 
ATOM     20  H   UNL     1       3.153   3.061  20.966  0.00  0.00    +0.000 HD
ENDBRANCH  10  19
ENDBRANCH   1  11
BRANCH   5  21
ATOM     21  C   UNL     1       1.029  12.441  18.904  0.00  0.00    +0.000 C 
BRANCH  21  22
ATOM     22  C   UNL     1      -0.056  13.424  18.412  0.00  0.00    +0.000 C 
BRANCH  22  23
ATOM     23  N   UNL     1      -1.083  12.776  17.583  0.00  0.00    +0.000 NA
ATOM     24  H   UNL     1      -1.039  13.208  16.661  0.00  0.00    +0.000 HD
ATOM     25  H   UNL     1      -2.002  13.020  17.957  0.00  0.00    +0.000 HD
ENDBRANCH  22  23
ENDBRANCH  21  22
ENDBRANCH   5  21
TORSDOF 7
ENDMDL
MODEL 8
REMARK VINA RESULT:      -6.1      2.334      3.697
REMARK  Name = 
REMARK  11 active torsions:
REMARK  status: ('A' for Active; 'I' for Inactive)
REMARK    1  A    between atoms: C_1  and  C_2
REMARK    2  A    between atoms: C_2  and  N_3
REMARK    3  A    between atoms: C_2  and  C_17
REMARK    4  A    between atoms: C_4  and  S_5
REMARK    5  A    between atoms: N_6  and  C_7
REMARK    6  A    between atoms: N_11  and  C_12
REMARK    7  A    between atoms: C_12  and  C_13
REMARK    8  A    between atoms: C_13  and  N_14
REMARK    9  A    between atoms: C_17  and  C_18
REMARK   10  A    between atoms: C_17  and  C_19
REMARK   11  A    between atoms: C_17  and  C_20
REMARK                            x       y       z     vdW  Elec       q    Type
REMARK                         _______ _______ _______ _____ _____    ______ ____
ROOT
ATOM      1  C   UNL     1       2.444   8.187  18.419  0.00  0.00    +0.000 A 
ATOM      2  C   UNL     1       1.919   8.026  19.699  0.00  0.00    +0.000 A 
ATOM      3  C   UNL     1       0.984   8.924  20.208  0.00  0.00    +0.000 A 
ATOM      4  C   UNL     1       0.542   9.969  19.419  0.00  0.00    +0.000 A 
ATOM      5  N   UNL     1      -0.432  10.828  19.903  0.00  0.00    +0.000 N 
ATOM      6  N   UNL     1       1.020  10.156  18.176  0.00  0.00    +0.000 NA
ATOM      7  C   UNL     1       1.951   9.285  17.718  0.00  0.00    +0.000 A 
ATOM      8  H   UNL     1      -0.807  10.660  20.827  0.00  0.00    +0.000 HD
ENDROOT
BRANCH   1  11
ATOM      9  N   UNL     1       2.673   5.198  18.427  0.00  0.00    +0.000 NA
ATOM     10  C   UNL     1       3.573   6.003  17.998  0.00  0.00    +0.000 C 
ATOM     11  N   UNL     1       3.410   7.353  17.847  0.00  0.00    +0.000 N 
ATOM     12  H   UNL     1       4.224   7.829  17.468  0.00  0.00    +0.000 HD
BRANCH   9  14
ATOM     13  C   UNL     1       2.503   3.022  17.389  0.00  0.00    +0.000 C 
ATOM     14  C   UNL     1       2.811   3.774  18.687  0.00  0.00    +0.000 C 
BRANCH  14  15
ATOM     15  C   UNL     1       1.865   3.397  19.885  0.00  0.00    +0.000 C 
ATOM     16  C   UNL     1       1.207   4.667  20.458  0.00  0.00    +0.000 C 
ATOM     17  C   UNL     1       0.734   2.469  19.384  0.00  0.00    +0.000 C 
ATOM     18  C   UNL     1       2.604   2.679  21.032  0.00  0.00    +0.000 C 
ENDBRANCH  14  15
ENDBRANCH   9  14
BRANCH  10  19
ATOM     19  S   UNL     1       5.204   5.537  17.531  0.00  0.00    +0.000 S 
ATOM     20  H   UNL     1       5.396   6.439  16.567  0.00  0.00    +0.000 HD
ENDBRANCH  10  19
ENDBRANCH   1  11
BRANCH   5  21
ATOM     21  C   UNL     1      -1.310  11.494  18.943  0.00  0.00    +0.000 C 
BRANCH  21  22
ATOM     22  C   UNL     1      -2.244  10.523  18.188  0.00  0.00    +0.000 C 
BRANCH  22  23
ATOM     23  N   UNL     1      -1.827  10.290  16.797  0.00  0.00    +0.000 NA
ATOM     24  H   UNL     1      -0.956  10.801  16.657  0.00  0.00    +0.000 HD
ATOM     25  H   UNL     1      -2.508  10.731  16.177  0.00  0.00    +0.000 HD
ENDBRANCH  22  23
ENDBRANCH  21  22
ENDBRANCH   5  21
TORSDOF 7
ENDMDL
MODEL 9
REMARK VINA RESULT:      -6.1      1.255      1.727
REMARK  Name = 
REMARK  11 active torsions:
REMARK  status: ('A' for Active; 'I' for Inactive)
REMARK    1  A    between atoms: C_1  and  C_2
REMARK    2  A    between atoms: C_2  and  N_3
REMARK    3  A    between atoms: C_2  and  C_17
REMARK    4  A    between atoms: C_4  and  S_5
REMARK    5  A    between atoms: N_6  and  C_7
REMARK    6  A    between atoms: N_11  and  C_12
REMARK    7  A    between atoms: C_12  and  C_13
REMARK    8  A    between atoms: C_13  and  N_14
REMARK    9  A    between atoms: C_17  and  C_18
REMARK   10  A    between atoms: C_17  and  C_19
REMARK   11  A    between atoms: C_17  and  C_20
REMARK                            x       y       z     vdW  Elec       q    Type
REMARK                         _______ _______ _______ _____ _____    ______ ____
ROOT
ATOM      1  C   UNL     1       2.279   6.528  19.762  0.00  0.00    +0.000 A 
ATOM      2  C   UNL     1       1.659   7.056  20.892  0.00  0.00    +0.000 A 
ATOM      3  C   UNL     1       1.186   8.366  20.902  0.00  0.00    +0.000 A 
ATOM      4  C   UNL     1       1.298   9.141  19.764  0.00  0.00    +0.000 A 
ATOM      5  N   UNL     1       0.773  10.424  19.754  0.00  0.00    +0.000 N 
ATOM      6  N   UNL     1       1.884   8.666  18.651  0.00  0.00    +0.000 NA
ATOM      7  C   UNL     1       2.364   7.399  18.679  0.00  0.00    +0.000 A 
ATOM      8  H   UNL     1       0.306  10.760  20.587  0.00  0.00    +0.000 HD
ENDROOT
BRANCH   1  11
ATOM      9  N   UNL     1       5.054   5.620  19.079  0.00  0.00    +0.000 NA
ATOM     10  C   UNL     1       4.040   4.848  19.216  0.00  0.00    +0.000 C 
ATOM     11  N   UNL     1       2.813   5.238  19.680  0.00  0.00    +0.000 N 
ATOM     12  H   UNL     1       2.136   4.483  19.747  0.00  0.00    +0.000 HD
BRANCH   9  14
ATOM     13  C   UNL     1       7.422   5.616  19.561  0.00  0.00    +0.000 C 
ATOM     14  C   UNL     1       6.352   5.285  18.517  0.00  0.00    +0.000 C 
BRANCH  14  15
ATOM     15  C   UNL     1       6.518   6.063  17.160  0.00  0.00    +0.000 C 
ATOM     16  C   UNL     1       7.496   7.239  17.342  0.00  0.00    +0.000 C 
ATOM     17  C   UNL     1       7.113   5.119  16.089  0.00  0.00    +0.000 C 
ATOM     18  C   UNL     1       5.187   6.623  16.622  0.00  0.00    +0.000 C 
ENDBRANCH  14  15
ENDBRANCH   9  14
BRANCH  10  19
ATOM     19  S   UNL     1       4.017   3.133  18.820  0.00  0.00    +0.000 S 
ATOM     20  H   UNL     1       2.703   2.993  18.636  0.00  0.00    +0.000 HD
ENDBRANCH  10  19
ENDBRANCH   1  11
BRANCH   5  21
ATOM     21  C   UNL     1       0.339  10.987  18.478  0.00  0.00    +0.000 C 
BRANCH  21  22
ATOM     22  C   UNL     1      -1.192  11.172  18.376  0.00  0.00    +0.000 C 
BRANCH  22  23
ATOM     23  N   UNL     1      -1.580  12.217  17.417  0.00  0.00    +0.000 NA
ATOM     24  H   UNL     1      -0.931  12.160  16.634  0.00  0.00    +0.000 HD
ATOM     25  H   UNL     1      -1.413  13.128  17.848  0.00  0.00    +0.000 HD
ENDBRANCH  22  23
ENDBRANCH  21  22
ENDBRANCH   5  21
TORSDOF 7
ENDMDL
