MODEL 1
REMARK VINA RESULT:      -6.2      0.000      0.000
REMARK  Name = 
REMARK  9 active torsions:
REMARK  status: ('A' for Active; 'I' for Inactive)
REMARK    1  A    between atoms: C_1  and  O_2
REMARK    2  A    between atoms: O_2  and  C_3
REMARK    3  A    between atoms: C_6  and  C_7
REMARK    4  A    between atoms: C_7  and  C_8
REMARK    5  A    between atoms: C_8  and  C_9
REMARK    6  A    between atoms: C_9  and  N_10
REMARK    7  A    between atoms: N_10  and  C_11
REMARK    8  A    between atoms: C_14  and  C_15
REMARK    9  A    between atoms: C_15  and  O_17
REMARK                            x       y       z     vdW  Elec       q    Type
REMARK                         _______ _______ _______ _____ _____    ______ ____
ROOT
ATOM      1  N   UNL     1       4.508   2.277  19.968  0.00  0.00    +0.000 N 
ATOM      2  H   UNL     1       4.408   1.315  19.653  0.00  0.00    +0.000 HD
ENDROOT
BRANCH   1   3
ATOM      3  C   UNL     1       4.815   3.143  18.906  0.00  0.00    +0.000 A 
ATOM      4  C   UNL     1       4.455   2.874  17.581  0.00  0.00    +0.000 A 
ATOM      5  C   UNL     1       4.729   3.784  16.553  0.00  0.00    +0.000 A 
ATOM      6  C   UNL     1       5.351   5.000  16.838  0.00  0.00    +0.000 A 
ATOM      7  C   UNL     1       5.657   5.317  18.164  0.00  0.00    +0.000 A 
ATOM      8  C   UNL     1       5.378   4.397  19.186  0.00  0.00    +0.000 A 
BRANCH   6   9
ATOM      9  C   UNL     1       5.600   5.928  15.707  0.00  0.00    +0.000 C 
ATOM     10  O   UNL     1       6.347   5.661  14.780  0.00  0.00    +0.000 OA
BRANCH   9  11
ATOM     11  O   UNL     1       4.965   7.117  15.813  0.00  0.00    +0.000 OA
ATOM     12  H   UNL     1       4.534   7.277  16.672  0.00  0.00    +0.000 HD
ENDBRANCH   9  11
ENDBRANCH   6   9
ENDBRANCH   1   3
BRANCH   1  13
ATOM     13  C   UNL     1       3.433   2.680  20.874  0.00  0.00    +0.000 C 
BRANCH  13  14
ATOM     14  C   UNL     1       2.072   2.378  20.248  0.00  0.00    +0.000 C 
BRANCH  14  15
ATOM     15  C   UNL     1       1.121   3.560  20.449  0.00  0.00    +0.000 C 
BRANCH  15  19
ATOM     16  C   UNL     1       2.428   7.106  18.359  0.00  0.00    +0.000 A 
ATOM     17  C   UNL     1       2.356   7.093  19.753  0.00  0.00    +0.000 A 
ATOM     18  C   UNL     1       1.949   5.944  20.433  0.00  0.00    +0.000 A 
ATOM     19  C   UNL     1       1.593   4.792  19.723  0.00  0.00    +0.000 A 
ATOM     20  C   UNL     1       1.649   4.815  18.324  0.00  0.00    +0.000 A 
ATOM     21  C   UNL     1       2.065   5.965  17.646  0.00  0.00    +0.000 A 
BRANCH  16  23
ATOM     22  C   UNL     1       1.895   9.371  17.937  0.00  0.00    +0.000 C 
ATOM     23  O   UNL     1       2.817   8.296  17.807  0.00  0.00    +0.000 OA
ENDBRANCH  16  23
ENDBRANCH  15  19
ENDBRANCH  14  15
ENDBRANCH  13  14
ENDBRANCH   1  13
TORSDOF 8
ENDMDL
MODEL 2
REMARK VINA RESULT:      -6.0      0.786      1.051
REMARK  Name = 
REMARK  9 active torsions:
REMARK  status: ('A' for Active; 'I' for Inactive)
REMARK    1  A    between atoms: C_1  and  O_2
REMARK    2  A    between atoms: O_2  and  C_3
REMARK    3  A    between atoms: C_6  and  C_7
REMARK    4  A    between atoms: C_7  and  C_8
REMARK    5  A    between atoms: C_8  and  C_9
REMARK    6  A    between atoms: C_9  and  N_10
REMARK    7  A    between atoms: N_10  and  C_11
REMARK    8  A    between atoms: C_14  and  C_15
REMARK    9  A    between atoms: C_15  and  O_17
REMARK                            x       y       z     vdW  Elec       q    Type
REMARK                         _______ _______ _______ _____ _____    ______ ____
ROOT
ATOM      1  N   UNL     1       3.891   2.240  19.444  0.00  0.00    +0.000 N 
ATOM      2  H   UNL     1       3.288   1.717  18.812  0.00  0.00    +0.000 HD
ENDROOT
BRANCH   1   3
ATOM      3  C   UNL     1       4.629   3.221  18.763  0.00  0.00    +0.000 A 
ATOM      4  C   UNL     1       4.727   3.265  17.368  0.00  0.00    +0.000 A 
ATOM      5  C   UNL     1       5.427   4.289  16.719  0.00  0.00    +0.000 A 
ATOM      6  C   UNL     1       6.027   5.308  17.458  0.00  0.00    +0.000 A 
ATOM      7  C   UNL     1       5.884   5.321  18.849  0.00  0.00    +0.000 A 
ATOM      8  C   UNL     1       5.180   4.289  19.488  0.00  0.00    +0.000 A 
BRANCH   6   9
ATOM      9  C   UNL     1       6.741   6.373  16.710  0.00  0.00    +0.000 C 
ATOM     10  O   UNL     1       6.633   7.558  16.976  0.00  0.00    +0.000 OA
BRANCH   9  11
ATOM     11  O   UNL     1       7.487   5.922  15.676  0.00  0.00    +0.000 OA
ATOM     12  H   UNL     1       7.495   6.500  14.892  0.00  0.00    +0.000 HD
ENDBRANCH   9  11
ENDBRANCH   6   9
ENDBRANCH   1   3
BRANCH   1  13
ATOM     13  C   UNL     1       3.198   2.647  20.665  0.00  0.00    +0.000 C 
BRANCH  13  14
ATOM     14  C   UNL     1       1.709   2.324  20.562  0.00  0.00    +0.000 C 
BRANCH  14  15
ATOM     15  C   UNL     1       0.877   3.602  20.693  0.00  0.00    +0.000 C 
BRANCH  15  19
ATOM     16  C   UNL     1       2.500   6.873  18.386  0.00  0.00    +0.000 A 
ATOM     17  C   UNL     1       2.392   6.972  19.775  0.00  0.00    +0.000 A 
ATOM     18  C   UNL     1       1.883   5.910  20.525  0.00  0.00    +0.000 A 
ATOM     19  C   UNL     1       1.459   4.737  19.892  0.00  0.00    +0.000 A 
ATOM     20  C   UNL     1       1.551   4.648  18.498  0.00  0.00    +0.000 A 
ATOM     21  C   UNL     1       2.070   5.710  17.749  0.00  0.00    +0.000 A 
BRANCH  16  23
ATOM     22  C   UNL     1       2.153   9.133  17.785  0.00  0.00    +0.000 C 
ATOM     23  O   UNL     1       2.992   7.985  17.760  0.00  0.00    +0.000 OA
ENDBRANCH  16  23
ENDBRANCH  15  19
ENDBRANCH  14  15
ENDBRANCH  13  14
ENDBRANCH   1  13
TORSDOF 8
ENDMDL
MODEL 3
REMARK VINA RESULT:      -6.0      3.251      5.026
REMARK  Name = 
REMARK  9 active torsions:
REMARK  status: ('A' for Active; 'I' for Inactive)
REMARK    1  A    between atoms: C_1  and  O_2
REMARK    2  A    between atoms: O_2  and  C_3
REMARK    3  A    between atoms: C_6  and  C_7
REMARK    4  A    between atoms: C_7  and  C_8
REMARK    5  A    between atoms: C_8  and  C_9
REMARK    6  A    between atoms: C_9  and  N_10
REMARK    7  A    between atoms: N_10  and  C_11
REMARK    8  A    between atoms: C_14  and  C_15
REMARK    9  A    between atoms: C_15  and  O_17
REMARK                            x       y       z     vdW  Elec       q    Type
REMARK                         _______ _______ _______ _____ _____    ______ ____
ROOT
ATOM      1  N   UNL     1       7.603   5.795  15.727  0.00  0.00    +0.000 N 
ATOM      2  H   UNL     1       8.490   5.382  16.007  0.00  0.00    +0.000 HD
ENDROOT
BRANCH   1   3
ATOM      3  C   UNL     1       6.986   5.057  14.705  0.00  0.00    +0.000 A 
ATOM      4  C   UNL     1       7.505   4.977  13.408  0.00  0.00    +0.000 A 
ATOM      5  C   UNL     1       6.893   4.188  12.426  0.00  0.00    +0.000 A 
ATOM      6  C   UNL     1       5.756   3.442  12.732  0.00  0.00    +0.000 A 
ATOM      7  C   UNL     1       5.260   3.454  14.039  0.00  0.00    +0.000 A 
ATOM      8  C   UNL     1       5.882   4.249  15.014  0.00  0.00    +0.000 A 
BRANCH   6   9
ATOM      9  C   UNL     1       5.164   2.614  11.652  0.00  0.00    +0.000 C 
ATOM     10  O   UNL     1       5.687   1.595  11.233  0.00  0.00    +0.000 OA
BRANCH   9  11
ATOM     11  O   UNL     1       4.017   3.110  11.135  0.00  0.00    +0.000 OA
ATOM     12  H   UNL     1       3.369   2.440  10.853  0.00  0.00    +0.000 HD
ENDBRANCH   9  11
ENDBRANCH   6   9
ENDBRANCH   1   3
BRANCH   1  13
ATOM     13  C   UNL     1       6.779   6.172  16.875  0.00  0.00    +0.000 C 
BRANCH  13  14
ATOM     14  C   UNL     1       7.269   5.463  18.135  0.00  0.00    +0.000 C 
BRANCH  14  15
ATOM     15  C   UNL     1       6.245   5.613  19.263  0.00  0.00    +0.000 C 
BRANCH  15  19
ATOM     16  C   UNL     1       2.440   3.883  18.174  0.00  0.00    +0.000 A 
ATOM     17  C   UNL     1       3.602   3.109  18.152  0.00  0.00    +0.000 A 
ATOM     18  C   UNL     1       4.831   3.660  18.519  0.00  0.00    +0.000 A 
ATOM     19  C   UNL     1       4.917   5.004  18.900  0.00  0.00    +0.000 A 
ATOM     20  C   UNL     1       3.753   5.782  18.902  0.00  0.00    +0.000 A 
ATOM     21  C   UNL     1       2.522   5.225  18.542  0.00  0.00    +0.000 A 
BRANCH  16  23
ATOM     22  C   UNL     1       0.699   2.386  18.738  0.00  0.00    +0.000 C 
ATOM     23  O   UNL     1       1.303   3.239  17.772  0.00  0.00    +0.000 OA
ENDBRANCH  16  23
ENDBRANCH  15  19
ENDBRANCH  14  15
ENDBRANCH  13  14
ENDBRANCH   1  13
TORSDOF 8
ENDMDL
MODEL 4
REMARK VINA RESULT:      -5.9      0.326      1.288
REMARK  Name = 
REMARK  9 active torsions:
REMARK  status: ('A' for Active; 'I' for Inactive)
REMARK    1  A    between atoms: C_1  and  O_2
REMARK    2  A    between atoms: O_2  and  C_3
REMARK    3  A    between atoms: C_6  and  C_7
REMARK    4  A    between atoms: C_7  and  C_8
REMARK    5  A    between atoms: C_8  and  C_9
REMARK    6  A    between atoms: C_9  and  N_10
REMARK    7  A    between atoms: N_10  and  C_11
REMARK    8  A    between atoms: C_14  and  C_15
REMARK    9  A    between atoms: C_15  and  O_17
REMARK                            x       y       z     vdW  Elec       q    Type
REMARK                         _______ _______ _______ _____ _____    ______ ____
ROOT
ATOM      1  N   UNL     1       4.550   2.506  20.052  0.00  0.00    +0.000 N 
ATOM      2  H   UNL     1       4.734   1.534  19.811  0.00  0.00    +0.000 HD
ENDROOT
BRANCH   1   3
ATOM      3  C   UNL     1       4.828   3.369  18.981  0.00  0.00    +0.000 A 
ATOM      4  C   UNL     1       4.469   3.078  17.660  0.00  0.00    +0.000 A 
ATOM      5  C   UNL     1       4.713   3.986  16.623  0.00  0.00    +0.000 A 
ATOM      6  C   UNL     1       5.305   5.220  16.893  0.00  0.00    +0.000 A 
ATOM      7  C   UNL     1       5.609   5.558  18.214  0.00  0.00    +0.000 A 
ATOM      8  C   UNL     1       5.360   4.640  19.246  0.00  0.00    +0.000 A 
BRANCH   6   9
ATOM      9  C   UNL     1       5.523   6.144  15.752  0.00  0.00    +0.000 C 
ATOM     10  O   UNL     1       4.899   7.182  15.609  0.00  0.00    +0.000 OA
BRANCH   9  11
ATOM     11  O   UNL     1       6.439   5.714  14.855  0.00  0.00    +0.000 OA
ATOM     12  H   UNL     1       6.239   4.854  14.443  0.00  0.00    +0.000 HD
ENDBRANCH   9  11
ENDBRANCH   6   9
ENDBRANCH   1   3
BRANCH   1  13
ATOM     13  C   UNL     1       3.269   2.676  20.737  0.00  0.00    +0.000 C 
BRANCH  13  14
ATOM     14  C   UNL     1       2.119   2.272  19.817  0.00  0.00    +0.000 C 
BRANCH  14  15
ATOM     15  C   UNL     1       0.989   3.301  19.894  0.00  0.00    +0.000 C 
BRANCH  15  19
ATOM     16  C   UNL     1       2.370   7.230  18.751  0.00  0.00    +0.000 A 
ATOM     17  C   UNL     1       2.020   6.293  17.777  0.00  0.00    +0.000 A 
ATOM     18  C   UNL     1       1.557   5.027  18.143  0.00  0.00    +0.000 A 
ATOM     19  C   UNL     1       1.454   4.677  19.494  0.00  0.00    +0.000 A 
ATOM     20  C   UNL     1       1.824   5.612  20.467  0.00  0.00    +0.000 A 
ATOM     21  C   UNL     1       2.279   6.883  20.097  0.00  0.00    +0.000 A 
BRANCH  16  23
ATOM     22  C   UNL     1       1.854   9.270  17.671  0.00  0.00    +0.000 C 
ATOM     23  O   UNL     1       2.830   8.425  18.269  0.00  0.00    +0.000 OA
ENDBRANCH  16  23
ENDBRANCH  15  19
ENDBRANCH  14  15
ENDBRANCH  13  14
ENDBRANCH   1  13
TORSDOF 8
ENDMDL
MODEL 5
REMARK VINA RESULT:      -5.9      1.947      2.619
REMARK  Name = 
REMARK  9 active torsions:
REMARK  status: ('A' for Active; 'I' for Inactive)
REMARK    1  A    between atoms: C_1  and  O_2
REMARK    2  A    between atoms: O_2  and  C_3
REMARK    3  A    between atoms: C_6  and  C_7
REMARK    4  A    between atoms: C_7  and  C_8
REMARK    5  A    between atoms: C_8  and  C_9
REMARK    6  A    between atoms: C_9  and  N_10
REMARK    7  A    between atoms: N_10  and  C_11
REMARK    8  A    between atoms: C_14  and  C_15
REMARK    9  A    between atoms: C_15  and  O_17
REMARK                            x       y       z     vdW  Elec       q    Type
REMARK                         _______ _______ _______ _____ _____    ______ ____
ROOT
ATOM      1  N   UNL     1       4.423   2.468  17.434  0.00  0.00    +0.000 N 
ATOM      2  H   UNL     1       3.843   2.477  16.598  0.00  0.00    +0.000 HD
ENDROOT
BRANCH   1   3
ATOM      3  C   UNL     1       5.168   3.651  17.563  0.00  0.00    +0.000 A 
ATOM      4  C   UNL     1       5.410   4.265  18.796  0.00  0.00    +0.000 A 
ATOM      5  C   UNL     1       6.203   5.415  18.894  0.00  0.00    +0.000 A 
ATOM      6  C   UNL     1       6.792   5.962  17.755  0.00  0.00    +0.000 A 
ATOM      7  C   UNL     1       6.619   5.326  16.523  0.00  0.00    +0.000 A 
ATOM      8  C   UNL     1       5.822   4.174  16.437  0.00  0.00    +0.000 A 
BRANCH   6   9
ATOM      9  C   UNL     1       7.633   7.172  17.928  0.00  0.00    +0.000 C 
ATOM     10  O   UNL     1       7.598   8.122  17.163  0.00  0.00    +0.000 OA
BRANCH   9  11
ATOM     11  O   UNL     1       8.480   7.115  18.981  0.00  0.00    +0.000 OA
ATOM     12  H   UNL     1       9.299   6.613  18.823  0.00  0.00    +0.000 HD
ENDBRANCH   9  11
ENDBRANCH   6   9
ENDBRANCH   1   3
BRANCH   1  13
ATOM     13  C   UNL     1       3.693   2.004  18.613  0.00  0.00    +0.000 C 
BRANCH  13  14
ATOM     14  C   UNL     1       2.194   2.236  18.433  0.00  0.00    +0.000 C 
BRANCH  14  15
ATOM     15  C   UNL     1       1.946   3.518  17.634  0.00  0.00    +0.000 C 
BRANCH  15  19
ATOM     16  C   UNL     1       1.830   6.988  20.203  0.00  0.00    +0.000 A 
ATOM     17  C   UNL     1       2.220   7.109  18.868  0.00  0.00    +0.000 A 
ATOM     18  C   UNL     1       2.243   5.992  18.030  0.00  0.00    +0.000 A 
ATOM     19  C   UNL     1       1.890   4.732  18.524  0.00  0.00    +0.000 A 
ATOM     20  C   UNL     1       1.518   4.611  19.868  0.00  0.00    +0.000 A 
ATOM     21  C   UNL     1       1.487   5.733  20.703  0.00  0.00    +0.000 A 
BRANCH  16  23
ATOM     22  C   UNL     1       1.097   9.226  20.416  0.00  0.00    +0.000 C 
ATOM     23  O   UNL     1       1.869   8.147  20.929  0.00  0.00    +0.000 OA
ENDBRANCH  16  23
ENDBRANCH  15  19
ENDBRANCH  14  15
ENDBRANCH  13  14
ENDBRANCH   1  13
TORSDOF 8
ENDMDL
MODEL 6
REMARK VINA RESULT:      -5.8      1.356      2.173
REMARK  Name = 
REMARK  9 active torsions:
REMARK  status: ('A' for Active; 'I' for Inactive)
REMARK    1  A    between atoms: C_1  and  O_2
REMARK    2  A    between atoms: O_2  and  C_3
REMARK    3  A    between atoms: C_6  and  C_7
REMARK    4  A    between atoms: C_7  and  C_8
REMARK    5  A    between atoms: C_8  and  C_9
REMARK    6  A    between atoms: C_9  and  N_10
REMARK    7  A    between atoms: N_10  and  C_11
REMARK    8  A    between atoms: C_14  and  C_15
REMARK    9  A    between atoms: C_15  and  O_17
REMARK                            x       y       z     vdW  Elec       q    Type
REMARK                         _______ _______ _______ _____ _____    ______ ____
ROOT
ATOM      1  N   UNL     1       2.800   2.707  18.648  0.00  0.00    +0.000 N 
ATOM      2  H   UNL     1       1.950   2.751  18.089  0.00  0.00    +0.000 HD
ENDROOT
BRANCH   1   3
ATOM      3  C   UNL     1       3.834   3.469  18.082  0.00  0.00    +0.000 A 
ATOM      4  C   UNL     1       4.947   3.898  18.813  0.00  0.00    +0.000 A 
ATOM      5  C   UNL     1       5.987   4.611  18.205  0.00  0.00    +0.000 A 
ATOM      6  C   UNL     1       5.945   4.889  16.839  0.00  0.00    +0.000 A 
ATOM      7  C   UNL     1       4.875   4.410  16.077  0.00  0.00    +0.000 A 
ATOM      8  C   UNL     1       3.838   3.697  16.698  0.00  0.00    +0.000 A 
BRANCH   6   9
ATOM      9  C   UNL     1       7.086   5.634  16.251  0.00  0.00    +0.000 C 
ATOM     10  O   UNL     1       7.649   5.287  15.227  0.00  0.00    +0.000 OA
BRANCH   9  11
ATOM     11  O   UNL     1       7.481   6.706  16.974  0.00  0.00    +0.000 OA
ATOM     12  H   UNL     1       8.240   6.547  17.564  0.00  0.00    +0.000 HD
ENDBRANCH   9  11
ENDBRANCH   6   9
ENDBRANCH   1   3
BRANCH   1  13
ATOM     13  C   UNL     1       2.537   2.887  20.075  0.00  0.00    +0.000 C 
BRANCH  13  14
ATOM     14  C   UNL     1       1.515   4.002  20.289  0.00  0.00    +0.000 C 
BRANCH  14  15
ATOM     15  C   UNL     1       2.167   5.194  20.993  0.00  0.00    +0.000 C 
BRANCH  15  19
ATOM     16  C   UNL     1       1.803   8.853  18.728  0.00  0.00    +0.000 A 
ATOM     17  C   UNL     1       2.398   7.726  18.159  0.00  0.00    +0.000 A 
ATOM     18  C   UNL     1       2.503   6.536  18.882  0.00  0.00    +0.000 A 
ATOM     19  C   UNL     1       2.025   6.463  20.196  0.00  0.00    +0.000 A 
ATOM     20  C   UNL     1       1.447   7.602  20.770  0.00  0.00    +0.000 A 
ATOM     21  C   UNL     1       1.335   8.790  20.040  0.00  0.00    +0.000 A 
BRANCH  16  23
ATOM     22  C   UNL     1       1.460  11.188  18.581  0.00  0.00    +0.000 C 
ATOM     23  O   UNL     1       1.778   9.964  17.930  0.00  0.00    +0.000 OA
ENDBRANCH  16  23
ENDBRANCH  15  19
ENDBRANCH  14  15
ENDBRANCH  13  14
ENDBRANCH   1  13
TORSDOF 8
ENDMDL
MODEL 7
REMARK VINA RESULT:      -5.8      5.973      7.660
REMARK  Name = 
REMARK  9 active torsions:
REMARK  status: ('A' for Active; 'I' for Inactive)
REMARK    1  A    between atoms: C_1  and  O_2
REMARK    2  A    between atoms: O_2  and  C_3
REMARK    3  A    between atoms: C_6  and  C_7
REMARK    4  A    between atoms: C_7  and  C_8
REMARK    5  A    between atoms: C_8  and  C_9
REMARK    6  A    between atoms: C_9  and  N_10
REMARK    7  A    between atoms: N_10  and  C_11
REMARK    8  A    between atoms: C_14  and  C_15
REMARK    9  A    between atoms: C_15  and  O_17
REMARK                            x       y       z     vdW  Elec       q    Type
REMARK                         _______ _______ _______ _____ _____    ______ ____
ROOT
ATOM      1  N   UNL     1       6.462   7.232  16.612  0.00  0.00    +0.000 N 
ATOM      2  H   UNL     1       6.842   7.119  15.675  0.00  0.00    +0.000 HD
ENDROOT
BRANCH   1   3
ATOM      3  C   UNL     1       5.480   6.269  16.895  0.00  0.00    +0.000 A 
ATOM      4  C   UNL     1       4.297   6.572  17.577  0.00  0.00    +0.000 A 
ATOM      5  C   UNL     1       3.313   5.599  17.796  0.00  0.00    +0.000 A 
ATOM      6  C   UNL     1       3.487   4.302  17.312  0.00  0.00    +0.000 A 
ATOM      7  C   UNL     1       4.631   3.997  16.569  0.00  0.00    +0.000 A 
ATOM      8  C   UNL     1       5.610   4.980  16.357  0.00  0.00    +0.000 A 
BRANCH   6   9
ATOM      9  C   UNL     1       2.401   3.322  17.563  0.00  0.00    +0.000 C 
ATOM     10  O   UNL     1       1.230   3.643  17.677  0.00  0.00    +0.000 OA
BRANCH   9  11
ATOM     11  O   UNL     1       2.825   2.046  17.702  0.00  0.00    +0.000 OA
ATOM     12  H   UNL     1       2.140   1.414  17.985  0.00  0.00    +0.000 HD
ENDBRANCH   9  11
ENDBRANCH   6   9
ENDBRANCH   1   3
BRANCH   1  13
ATOM     13  C   UNL     1       7.507   7.439  17.614  0.00  0.00    +0.000 C 
BRANCH  13  14
ATOM     14  C   UNL     1       7.992   8.887  17.582  0.00  0.00    +0.000 C 
BRANCH  14  15
ATOM     15  C   UNL     1       8.798   9.206  18.843  0.00  0.00    +0.000 C 
BRANCH  15  19
ATOM     16  C   UNL     1      10.238  13.278  18.847  0.00  0.00    +0.000 A 
ATOM     17  C   UNL     1       9.340  12.846  17.869  0.00  0.00    +0.000 A 
ATOM     18  C   UNL     1       8.860  11.535  17.874  0.00  0.00    +0.000 A 
ATOM     19  C   UNL     1       9.286  10.631  18.853  0.00  0.00    +0.000 A 
ATOM     20  C   UNL     1      10.201  11.062  19.821  0.00  0.00    +0.000 A 
ATOM     21  C   UNL     1      10.673  12.379  19.819  0.00  0.00    +0.000 A 
BRANCH  16  23
ATOM     22  C   UNL     1      11.262  14.917  17.484  0.00  0.00    +0.000 C 
ATOM     23  O   UNL     1      10.653  14.576  18.724  0.00  0.00    +0.000 OA
ENDBRANCH  16  23
ENDBRANCH  15  19
ENDBRANCH  14  15
ENDBRANCH  13  14
ENDBRANCH   1  13
TORSDOF 8
ENDMDL
MODEL 8
REMARK VINA RESULT:      -5.8      5.830      7.474
REMARK  Name = 
REMARK  9 active torsions:
REMARK  status: ('A' for Active; 'I' for Inactive)
REMARK    1  A    between atoms: C_1  and  O_2
REMARK    2  A    between atoms: O_2  and  C_3
REMARK    3  A    between atoms: C_6  and  C_7
REMARK    4  A    between atoms: C_7  and  C_8
REMARK    5  A    between atoms: C_8  and  C_9
REMARK    6  A    between atoms: C_9  and  N_10
REMARK    7  A    between atoms: N_10  and  C_11
REMARK    8  A    between atoms: C_14  and  C_15
REMARK    9  A    between atoms: C_15  and  O_17
REMARK                            x       y       z     vdW  Elec       q    Type
REMARK                         _______ _______ _______ _____ _____    ______ ____
ROOT
ATOM      1  N   UNL     1       6.401   7.170  16.570  0.00  0.00    +0.000 N 
ATOM      2  H   UNL     1       6.745   7.161  15.612  0.00  0.00    +0.000 HD
ENDROOT
BRANCH   1   3
ATOM      3  C   UNL     1       5.410   6.198  16.775  0.00  0.00    +0.000 A 
ATOM      4  C   UNL     1       5.566   4.862  16.388  0.00  0.00    +0.000 A 
ATOM      5  C   UNL     1       4.578   3.906  16.656  0.00  0.00    +0.000 A 
ATOM      6  C   UNL     1       3.419   4.267  17.343  0.00  0.00    +0.000 A 
ATOM      7  C   UNL     1       3.274   5.580  17.798  0.00  0.00    +0.000 A 
ATOM      8  C   UNL     1       4.270   6.529  17.523  0.00  0.00    +0.000 A 
BRANCH   6   9
ATOM      9  C   UNL     1       2.418   3.204  17.609  0.00  0.00    +0.000 C 
ATOM     10  O   UNL     1       2.721   2.037  17.793  0.00  0.00    +0.000 OA
BRANCH   9  11
ATOM     11  O   UNL     1       1.135   3.629  17.585  0.00  0.00    +0.000 OA
ATOM     12  H   UNL     1       0.890   4.237  18.306  0.00  0.00    +0.000 HD
ENDBRANCH   9  11
ENDBRANCH   6   9
ENDBRANCH   1   3
BRANCH   1  13
ATOM     13  C   UNL     1       7.485   7.241  17.549  0.00  0.00    +0.000 C 
BRANCH  13  14
ATOM     14  C   UNL     1       8.035   8.663  17.629  0.00  0.00    +0.000 C 
BRANCH  14  15
ATOM     15  C   UNL     1       8.761   8.880  18.959  0.00  0.00    +0.000 C 
BRANCH  15  19
ATOM     16  C   UNL     1      10.415  12.855  19.292  0.00  0.00    +0.000 A 
ATOM     17  C   UNL     1      10.178  12.291  18.037  0.00  0.00    +0.000 A 
ATOM     18  C   UNL     1       9.628  11.012  17.926  0.00  0.00    +0.000 A 
ATOM     19  C   UNL     1       9.321  10.273  19.073  0.00  0.00    +0.000 A 
ATOM     20  C   UNL     1       9.579  10.834  20.330  0.00  0.00    +0.000 A 
ATOM     21  C   UNL     1      10.121  12.119  20.438  0.00  0.00    +0.000 A 
BRANCH  16  23
ATOM     22  C   UNL     1      10.171  15.137  18.722  0.00  0.00    +0.000 C 
ATOM     23  O   UNL     1      10.977  14.103  19.273  0.00  0.00    +0.000 OA
ENDBRANCH  16  23
ENDBRANCH  15  19
ENDBRANCH  14  15
ENDBRANCH  13  14
ENDBRANCH   1  13
TORSDOF 8
ENDMDL
MODEL 9
REMARK VINA RESULT:      -5.8      3.284      4.994
REMARK  Name = 
REMARK  9 active torsions:
REMARK  status: ('A' for Active; 'I' for Inactive)
REMARK    1  A    between atoms: C_1  and  O_2
REMARK    2  A    between atoms: O_2  and  C_3
REMARK    3  A    between atoms: C_6  and  C_7
REMARK    4  A    between atoms: C_7  and  C_8
REMARK    5  A    between atoms: C_8  and  C_9
REMARK    6  A    between atoms: C_9  and  N_10
REMARK    7  A    between atoms: N_10  and  C_11
REMARK    8  A    between atoms: C_14  and  C_15
REMARK    9  A    between atoms: C_15  and  O_17
REMARK                            x       y       z     vdW  Elec       q    Type
REMARK                         _______ _______ _______ _____ _____    ______ ____
ROOT
ATOM      1  N   UNL     1       7.524   5.781  15.759  0.00  0.00    +0.000 N 
ATOM      2  H   UNL     1       8.450   6.123  15.511  0.00  0.00    +0.000 HD
ENDROOT
BRANCH   1   3
ATOM      3  C   UNL     1       6.942   5.049  14.713  0.00  0.00    +0.000 A 
ATOM      4  C   UNL     1       7.557   4.888  13.466  0.00  0.00    +0.000 A 
ATOM      5  C   UNL     1       6.974   4.106  12.462  0.00  0.00    +0.000 A 
ATOM      6  C   UNL     1       5.767   3.448  12.695  0.00  0.00    +0.000 A 
ATOM      7  C   UNL     1       5.170   3.540  13.956  0.00  0.00    +0.000 A 
ATOM      8  C   UNL     1       5.764   4.327  14.954  0.00  0.00    +0.000 A 
BRANCH   6   9
ATOM      9  C   UNL     1       5.208   2.622  11.595  0.00  0.00    +0.000 C 
ATOM     10  O   UNL     1       4.173   2.902  11.014  0.00  0.00    +0.000 OA
BRANCH   9  11
ATOM     11  O   UNL     1       5.920   1.505  11.322  0.00  0.00    +0.000 OA
ATOM     12  H   UNL     1       5.464   0.668  11.524  0.00  0.00    +0.000 HD
ENDBRANCH   9  11
ENDBRANCH   6   9
ENDBRANCH   1   3
BRANCH   1  13
ATOM     13  C   UNL     1       7.492   5.185  17.094  0.00  0.00    +0.000 C 
BRANCH  13  14
ATOM     14  C   UNL     1       6.953   6.190  18.111  0.00  0.00    +0.000 C 
BRANCH  14  15
ATOM     15  C   UNL     1       5.590   6.721  17.662  0.00  0.00    +0.000 C 
BRANCH  15  19
ATOM     16  C   UNL     1       2.351   4.295  19.169  0.00  0.00    +0.000 A 
ATOM     17  C   UNL     1       3.612   4.241  19.766  0.00  0.00    +0.000 A 
ATOM     18  C   UNL     1       4.657   5.036  19.292  0.00  0.00    +0.000 A 
ATOM     19  C   UNL     1       4.457   5.888  18.200  0.00  0.00    +0.000 A 
ATOM     20  C   UNL     1       3.197   5.925  17.592  0.00  0.00    +0.000 A 
ATOM     21  C   UNL     1       2.149   5.134  18.075  0.00  0.00    +0.000 A 
BRANCH  16  23
ATOM     22  C   UNL     1       0.870   2.485  18.820  0.00  0.00    +0.000 C 
ATOM     23  O   UNL     1       1.415   3.454  19.707  0.00  0.00    +0.000 OA
ENDBRANCH  16  23
ENDBRANCH  15  19
ENDBRANCH  14  15
ENDBRANCH  13  14
ENDBRANCH   1  13
TORSDOF 8
ENDMDL
