MODEL 1
REMARK VINA RESULT:      -9.6      0.000      0.000
REMARK  Name = 
REMARK  8 active torsions:
REMARK  status: ('A' for Active; 'I' for Inactive)
REMARK    1  A    between atoms: C_2  and  O_3
REMARK    2  A    between atoms: C_2  and  C_4
REMARK    3  A    between atoms: C_7  and  C_8
REMARK    4  A    between atoms: C_8  and  C_9
REMARK    5  A    between atoms: C_12  and  C_13
REMARK    6  A    between atoms: C_19  and  O_20
REMARK    7  A    between atoms: O_20  and  C_21
REMARK    8  A    between atoms: C_21  and  C_22
REMARK                            x       y       z     vdW  Elec       q    Type
REMARK                         _______ _______ _______ _____ _____    ______ ____
ROOT
ATOM      1  C   UNL     1       9.025   9.942  18.682  0.00  0.00    +0.000 A 
ATOM      2  C   UNL     1       9.209  10.181  20.047  0.00  0.00    +0.000 A 
ATOM      3  C   UNL     1       9.884  11.331  20.471  0.00  0.00    +0.000 A 
ATOM      4  C   UNL     1      10.360  12.297  19.573  0.00  0.00    +0.000 A 
ATOM      5  C   UNL     1      11.098  13.377  20.059  0.00  0.00    +0.000 A 
ATOM      6  C   UNL     1      11.529  14.393  19.196  0.00  0.00    +0.000 A 
ATOM      7  C   UNL     1      11.209  14.395  17.835  0.00  0.00    +0.000 A 
ATOM      8  C   UNL     1      10.548  13.262  17.326  0.00  0.00    +0.000 A 
ATOM      9  C   UNL     1      10.130  12.162  18.181  0.00  0.00    +0.000 A 
ATOM     10  C   UNL     1       9.489  10.937  17.774  0.00  0.00    +0.000 A 
ENDROOT
BRANCH   1  14
ATOM     11  C   UNL     1       7.607   6.727  17.965  0.00  0.00    +0.000 A 
ATOM     12  N   UNL     1       7.062   7.438  16.963  0.00  0.00    +0.000 NA
ATOM     13  O   UNL     1       7.539   8.740  17.182  0.00  0.00    +0.000 OA
ATOM     14  C   UNL     1       8.343   8.684  18.297  0.00  0.00    +0.000 A 
ATOM     15  N   UNL     1       8.436   7.464  18.795  0.00  0.00    +0.000 NA
BRANCH  11  16
ATOM     16  C   UNL     1       7.439   5.245  18.069  0.00  0.00    +0.000 C 
BRANCH  16  20
ATOM     17  C   UNL     1       3.207   4.354  18.347  0.00  0.00    +0.000 A 
ATOM     18  C   UNL     1       3.938   3.959  17.223  0.00  0.00    +0.000 A 
ATOM     19  C   UNL     1       5.303   4.249  17.132  0.00  0.00    +0.000 A 
ATOM     20  C   UNL     1       5.956   4.953  18.157  0.00  0.00    +0.000 A 
ATOM     21  C   UNL     1       5.217   5.331  19.287  0.00  0.00    +0.000 A 
ATOM     22  C   UNL     1       3.857   5.016  19.395  0.00  0.00    +0.000 A 
BRANCH  17  24
ATOM     23  O   UNL     1       1.237   3.576  19.437  0.00  0.00    +0.000 OA
ATOM     24  C   UNL     1       1.765   4.001  18.422  0.00  0.00    +0.000 C 
BRANCH  24  25
ATOM     25  O   UNL     1       1.111   4.156  17.253  0.00  0.00    +0.000 OA
ATOM     26  H   UNL     1       1.360   4.952  16.747  0.00  0.00    +0.000 HD
ENDBRANCH  24  25
ENDBRANCH  17  24
ENDBRANCH  16  20
ENDBRANCH  11  16
ENDBRANCH   1  14
BRANCH   7  27
ATOM     27  O   UNL     1      11.660  15.520  17.198  0.00  0.00    +0.000 OA
BRANCH  27  28
ATOM     28  C   UNL     1      10.950  16.772  17.016  0.00  0.00    +0.000 C 
BRANCH  28  29
ATOM     29  C   UNL     1       9.657  16.934  17.836  0.00  0.00    +0.000 A 
ATOM     30  C   UNL     1       9.582  17.976  18.742  0.00  0.00    +0.000 A 
ATOM     31  C   UNL     1       8.624  17.928  19.738  0.00  0.00    +0.000 A 
ATOM     32  C   UNL     1       7.537  17.077  19.610  0.00  0.00    +0.000 A 
ATOM     33  C   UNL     1       6.484  17.177  20.536  0.00  0.00    +0.000 A 
ATOM     34  C   UNL     1       5.276  16.543  20.298  0.00  0.00    +0.000 A 
ATOM     35  C   UNL     1       5.140  15.783  19.142  0.00  0.00    +0.000 A 
ATOM     36  C   UNL     1       6.242  15.613  18.272  0.00  0.00    +0.000 A 
ATOM     37  C   UNL     1       7.486  16.232  18.486  0.00  0.00    +0.000 A 
ATOM     38  N   UNL     1       8.584  16.092  17.665  0.00  0.00    +0.000 NA
ENDBRANCH  28  29
ENDBRANCH  27  28
ENDBRANCH   7  27
TORSDOF 8
ENDMDL
MODEL 2
REMARK VINA RESULT:      -9.3      7.597     10.150
REMARK  Name = 
REMARK  8 active torsions:
REMARK  status: ('A' for Active; 'I' for Inactive)
REMARK    1  A    between atoms: C_2  and  O_3
REMARK    2  A    between atoms: C_2  and  C_4
REMARK    3  A    between atoms: C_7  and  C_8
REMARK    4  A    between atoms: C_8  and  C_9
REMARK    5  A    between atoms: C_12  and  C_13
REMARK    6  A    between atoms: C_19  and  O_20
REMARK    7  A    between atoms: O_20  and  C_21
REMARK    8  A    between atoms: C_21  and  C_22
REMARK                            x       y       z     vdW  Elec       q    Type
REMARK                         _______ _______ _______ _____ _____    ______ ____
ROOT
ATOM      1  C   UNL     1       2.245   7.617  18.987  0.00  0.00    +0.000 A 
ATOM      2  C   UNL     1       1.990   8.423  17.873  0.00  0.00    +0.000 A 
ATOM      3  C   UNL     1       1.210   9.577  18.009  0.00  0.00    +0.000 A 
ATOM      4  C   UNL     1       0.692   9.994  19.243  0.00  0.00    +0.000 A 
ATOM      5  C   UNL     1      -0.147  11.107  19.292  0.00  0.00    +0.000 A 
ATOM      6  C   UNL     1      -0.624  11.589  20.517  0.00  0.00    +0.000 A 
ATOM      7  C   UNL     1      -0.253  11.011  21.736  0.00  0.00    +0.000 A 
ATOM      8  C   UNL     1       0.515   9.834  21.684  0.00  0.00    +0.000 A 
ATOM      9  C   UNL     1       0.986   9.272  20.428  0.00  0.00    +0.000 A 
ATOM     10  C   UNL     1       1.738   8.056  20.244  0.00  0.00    +0.000 A 
ENDROOT
BRANCH   1  14
ATOM     11  C   UNL     1       3.991   4.600  18.148  0.00  0.00    +0.000 A 
ATOM     12  N   UNL     1       4.295   4.675  19.455  0.00  0.00    +0.000 NA
ATOM     13  O   UNL     1       3.673   5.862  19.871  0.00  0.00    +0.000 OA
ATOM     14  C   UNL     1       3.039   6.385  18.769  0.00  0.00    +0.000 A 
ATOM     15  N   UNL     1       3.183   5.630  17.695  0.00  0.00    +0.000 NA
BRANCH  11  16
ATOM     16  C   UNL     1       4.377   3.422  17.310  0.00  0.00    +0.000 C 
BRANCH  16  20
ATOM     17  C   UNL     1       6.988   4.794  14.135  0.00  0.00    +0.000 A 
ATOM     18  C   UNL     1       7.337   5.000  15.473  0.00  0.00    +0.000 A 
ATOM     19  C   UNL     1       6.493   4.560  16.497  0.00  0.00    +0.000 A 
ATOM     20  C   UNL     1       5.278   3.921  16.200  0.00  0.00    +0.000 A 
ATOM     21  C   UNL     1       4.944   3.706  14.855  0.00  0.00    +0.000 A 
ATOM     22  C   UNL     1       5.801   4.119  13.827  0.00  0.00    +0.000 A 
BRANCH  17  24
ATOM     23  O   UNL     1       8.865   5.995  13.293  0.00  0.00    +0.000 OA
ATOM     24  C   UNL     1       7.924   5.249  13.074  0.00  0.00    +0.000 C 
BRANCH  24  25
ATOM     25  O   UNL     1       7.609   4.792  11.845  0.00  0.00    +0.000 OA
ATOM     26  H   UNL     1       7.404   3.839  11.803  0.00  0.00    +0.000 HD
ENDBRANCH  24  25
ENDBRANCH  17  24
ENDBRANCH  16  20
ENDBRANCH  11  16
ENDBRANCH   1  14
BRANCH   7  27
ATOM     27  O   UNL     1      -0.768  11.689  22.808  0.00  0.00    +0.000 OA
BRANCH  27  28
ATOM     28  C   UNL     1      -2.043  11.461  23.462  0.00  0.00    +0.000 C 
BRANCH  28  29
ATOM     29  C   UNL     1      -3.087  12.582  23.304  0.00  0.00    +0.000 A 
ATOM     30  C   UNL     1      -2.814  13.816  23.866  0.00  0.00    +0.000 A 
ATOM     31  C   UNL     1      -3.855  14.702  24.073  0.00  0.00    +0.000 A 
ATOM     32  C   UNL     1      -5.054  14.528  23.397  0.00  0.00    +0.000 A 
ATOM     33  C   UNL     1      -6.029  15.536  23.476  0.00  0.00    +0.000 A 
ATOM     34  C   UNL     1      -7.117  15.532  22.619  0.00  0.00    +0.000 A 
ATOM     35  C   UNL     1      -7.237  14.493  21.703  0.00  0.00    +0.000 A 
ATOM     36  C   UNL     1      -6.299  13.434  21.705  0.00  0.00    +0.000 A 
ATOM     37  C   UNL     1      -5.189  13.399  22.567  0.00  0.00    +0.000 A 
ATOM     38  N   UNL     1      -4.253  12.389  22.603  0.00  0.00    +0.000 NA
ENDBRANCH  28  29
ENDBRANCH  27  28
ENDBRANCH   7  27
TORSDOF 8
ENDMDL
MODEL 3
REMARK VINA RESULT:      -9.3      7.268      9.964
REMARK  Name = 
REMARK  8 active torsions:
REMARK  status: ('A' for Active; 'I' for Inactive)
REMARK    1  A    between atoms: C_2  and  O_3
REMARK    2  A    between atoms: C_2  and  C_4
REMARK    3  A    between atoms: C_7  and  C_8
REMARK    4  A    between atoms: C_8  and  C_9
REMARK    5  A    between atoms: C_12  and  C_13
REMARK    6  A    between atoms: C_19  and  O_20
REMARK    7  A    between atoms: O_20  and  C_21
REMARK    8  A    between atoms: C_21  and  C_22
REMARK                            x       y       z     vdW  Elec       q    Type
REMARK                         _______ _______ _______ _____ _____    ______ ____
ROOT
ATOM      1  C   UNL     1       1.913   7.793  19.696  0.00  0.00    +0.000 A 
ATOM      2  C   UNL     1       2.101   8.382  18.441  0.00  0.00    +0.000 A 
ATOM      3  C   UNL     1       1.632   9.679  18.201  0.00  0.00    +0.000 A 
ATOM      4  C   UNL     1       1.003  10.447  19.191  0.00  0.00    +0.000 A 
ATOM      5  C   UNL     1       0.485  11.699  18.860  0.00  0.00    +0.000 A 
ATOM      6  C   UNL     1      -0.087  12.517  19.842  0.00  0.00    +0.000 A 
ATOM      7  C   UNL     1      -0.127  12.142  21.189  0.00  0.00    +0.000 A 
ATOM      8  C   UNL     1       0.308  10.844  21.510  0.00  0.00    +0.000 A 
ATOM      9  C   UNL     1       0.860   9.944  20.510  0.00  0.00    +0.000 A 
ATOM     10  C   UNL     1       1.296   8.584  20.706  0.00  0.00    +0.000 A 
ENDROOT
BRANCH   1  14
ATOM     11  C   UNL     1       3.336   4.507  19.893  0.00  0.00    +0.000 A 
ATOM     12  N   UNL     1       2.132   4.260  20.436  0.00  0.00    +0.000 NA
ATOM     13  O   UNL     1       1.503   5.515  20.434  0.00  0.00    +0.000 OA
ATOM     14  C   UNL     1       2.392   6.402  19.872  0.00  0.00    +0.000 A 
ATOM     15  N   UNL     1       3.520   5.822  19.499  0.00  0.00    +0.000 NA
BRANCH  11  16
ATOM     16  C   UNL     1       4.318   3.415  19.610  0.00  0.00    +0.000 C 
BRANCH  16  20
ATOM     17  C   UNL     1       6.313   4.443  15.902  0.00  0.00    +0.000 A 
ATOM     18  C   UNL     1       5.039   3.869  15.881  0.00  0.00    +0.000 A 
ATOM     19  C   UNL     1       4.396   3.534  17.077  0.00  0.00    +0.000 A 
ATOM     20  C   UNL     1       5.024   3.754  18.314  0.00  0.00    +0.000 A 
ATOM     21  C   UNL     1       6.296   4.346  18.325  0.00  0.00    +0.000 A 
ATOM     22  C   UNL     1       6.929   4.709  17.130  0.00  0.00    +0.000 A 
BRANCH  17  24
ATOM     23  O   UNL     1       7.863   5.621  14.529  0.00  0.00    +0.000 OA
ATOM     24  C   UNL     1       6.951   4.813  14.612  0.00  0.00    +0.000 C 
BRANCH  24  25
ATOM     25  O   UNL     1       6.399   4.204  13.543  0.00  0.00    +0.000 OA
ATOM     26  H   UNL     1       6.085   3.295  13.707  0.00  0.00    +0.000 HD
ENDBRANCH  24  25
ENDBRANCH  17  24
ENDBRANCH  16  20
ENDBRANCH  11  16
ENDBRANCH   1  14
BRANCH   7  27
ATOM     27  O   UNL     1      -0.655  13.124  21.985  0.00  0.00    +0.000 OA
BRANCH  27  28
ATOM     28  C   UNL     1      -1.685  12.977  22.996  0.00  0.00    +0.000 C 
BRANCH  28  29
ATOM     29  C   UNL     1      -3.135  12.973  22.480  0.00  0.00    +0.000 A 
ATOM     30  C   UNL     1      -4.146  13.298  23.365  0.00  0.00    +0.000 A 
ATOM     31  C   UNL     1      -5.447  12.943  23.055  0.00  0.00    +0.000 A 
ATOM     32  C   UNL     1      -5.782  12.626  21.748  0.00  0.00    +0.000 A 
ATOM     33  C   UNL     1      -7.137  12.452  21.419  0.00  0.00    +0.000 A 
ATOM     34  C   UNL     1      -7.538  12.398  20.094  0.00  0.00    +0.000 A 
ATOM     35  C   UNL     1      -6.569  12.490  19.102  0.00  0.00    +0.000 A 
ATOM     36  C   UNL     1      -5.201  12.566  19.453  0.00  0.00    +0.000 A 
ATOM     37  C   UNL     1      -4.756  12.612  20.785  0.00  0.00    +0.000 A 
ATOM     38  N   UNL     1      -3.435  12.684  21.170  0.00  0.00    +0.000 NA
ENDBRANCH  28  29
ENDBRANCH  27  28
ENDBRANCH   7  27
TORSDOF 8
ENDMDL
MODEL 4
REMARK VINA RESULT:      -9.3      7.320     10.063
REMARK  Name = 
REMARK  8 active torsions:
REMARK  status: ('A' for Active; 'I' for Inactive)
REMARK    1  A    between atoms: C_2  and  O_3
REMARK    2  A    between atoms: C_2  and  C_4
REMARK    3  A    between atoms: C_7  and  C_8
REMARK    4  A    between atoms: C_8  and  C_9
REMARK    5  A    between atoms: C_12  and  C_13
REMARK    6  A    between atoms: C_19  and  O_20
REMARK    7  A    between atoms: O_20  and  C_21
REMARK    8  A    between atoms: C_21  and  C_22
REMARK                            x       y       z     vdW  Elec       q    Type
REMARK                         _______ _______ _______ _____ _____    ______ ____
ROOT
ATOM      1  C   UNL     1       1.920   7.881  19.624  0.00  0.00    +0.000 A 
ATOM      2  C   UNL     1       2.086   8.461  18.363  0.00  0.00    +0.000 A 
ATOM      3  C   UNL     1       1.562   9.732  18.103  0.00  0.00    +0.000 A 
ATOM      4  C   UNL     1       0.897  10.486  19.080  0.00  0.00    +0.000 A 
ATOM      5  C   UNL     1       0.326  11.709  18.730  0.00  0.00    +0.000 A 
ATOM      6  C   UNL     1      -0.285  12.516  19.698  0.00  0.00    +0.000 A 
ATOM      7  C   UNL     1      -0.314  12.158  21.050  0.00  0.00    +0.000 A 
ATOM      8  C   UNL     1       0.176  10.884  21.391  0.00  0.00    +0.000 A 
ATOM      9  C   UNL     1       0.771   9.995  20.405  0.00  0.00    +0.000 A 
ATOM     10  C   UNL     1       1.265   8.659  20.622  0.00  0.00    +0.000 A 
ENDROOT
BRANCH   1  14
ATOM     11  C   UNL     1       3.456   4.648  19.839  0.00  0.00    +0.000 A 
ATOM     12  N   UNL     1       2.330   4.405  20.531  0.00  0.00    +0.000 NA
ATOM     13  O   UNL     1       1.667   5.642  20.531  0.00  0.00    +0.000 OA
ATOM     14  C   UNL     1       2.458   6.515  19.822  0.00  0.00    +0.000 A 
ATOM     15  N   UNL     1       3.553   5.942  19.354  0.00  0.00    +0.000 NA
BRANCH  11  16
ATOM     16  C   UNL     1       4.433   3.565  19.506  0.00  0.00    +0.000 C 
BRANCH  16  20
ATOM     17  C   UNL     1       6.235   4.466  15.670  0.00  0.00    +0.000 A 
ATOM     18  C   UNL     1       6.946   4.689  16.852  0.00  0.00    +0.000 A 
ATOM     19  C   UNL     1       6.364   4.401  18.090  0.00  0.00    +0.000 A 
ATOM     20  C   UNL     1       5.054   3.901  18.167  0.00  0.00    +0.000 A 
ATOM     21  C   UNL     1       4.354   3.666  16.974  0.00  0.00    +0.000 A 
ATOM     22  C   UNL     1       4.946   3.925  15.732  0.00  0.00    +0.000 A 
BRANCH  17  24
ATOM     23  O   UNL     1       6.575   4.217  13.325  0.00  0.00    +0.000 OA
ATOM     24  C   UNL     1       6.898   4.756  14.371  0.00  0.00    +0.000 C 
BRANCH  24  25
ATOM     25  O   UNL     1       7.915   5.636  14.470  0.00  0.00    +0.000 OA
ATOM     26  H   UNL     1       8.766   5.321  14.111  0.00  0.00    +0.000 HD
ENDBRANCH  24  25
ENDBRANCH  17  24
ENDBRANCH  16  20
ENDBRANCH  11  16
ENDBRANCH   1  14
BRANCH   7  27
ATOM     27  O   UNL     1      -0.886  13.127  21.830  0.00  0.00    +0.000 OA
BRANCH  27  28
ATOM     28  C   UNL     1      -1.982  12.967  22.767  0.00  0.00    +0.000 C 
BRANCH  28  29
ATOM     29  C   UNL     1      -3.392  12.927  22.150  0.00  0.00    +0.000 A 
ATOM     30  C   UNL     1      -4.473  13.199  22.967  0.00  0.00    +0.000 A 
ATOM     31  C   UNL     1      -5.735  12.809  22.559  0.00  0.00    +0.000 A 
ATOM     32  C   UNL     1      -5.967  12.511  21.224  0.00  0.00    +0.000 A 
ATOM     33  C   UNL     1      -7.289  12.300  20.796  0.00  0.00    +0.000 A 
ATOM     34  C   UNL     1      -7.594  12.263  19.446  0.00  0.00    +0.000 A 
ATOM     35  C   UNL     1      -6.561  12.409  18.527  0.00  0.00    +0.000 A 
ATOM     36  C   UNL     1      -5.224  12.521  18.976  0.00  0.00    +0.000 A 
ATOM     37  C   UNL     1      -4.875  12.551  20.337  0.00  0.00    +0.000 A 
ATOM     38  N   UNL     1      -3.588  12.658  20.816  0.00  0.00    +0.000 NA
ENDBRANCH  28  29
ENDBRANCH  27  28
ENDBRANCH   7  27
TORSDOF 8
ENDMDL
MODEL 5
REMARK VINA RESULT:      -9.0      1.897      2.645
REMARK  Name = 
REMARK  8 active torsions:
REMARK  status: ('A' for Active; 'I' for Inactive)
REMARK    1  A    between atoms: C_2  and  O_3
REMARK    2  A    between atoms: C_2  and  C_4
REMARK    3  A    between atoms: C_7  and  C_8
REMARK    4  A    between atoms: C_8  and  C_9
REMARK    5  A    between atoms: C_12  and  C_13
REMARK    6  A    between atoms: C_19  and  O_20
REMARK    7  A    between atoms: O_20  and  C_21
REMARK    8  A    between atoms: C_21  and  C_22
REMARK                            x       y       z     vdW  Elec       q    Type
REMARK                         _______ _______ _______ _____ _____    ______ ____
ROOT
ATOM      1  C   UNL     1       8.638   9.968  18.362  0.00  0.00    +0.000 A 
ATOM      2  C   UNL     1       9.636  10.066  19.337  0.00  0.00    +0.000 A 
ATOM      3  C   UNL     1      10.152  11.319  19.685  0.00  0.00    +0.000 A 
ATOM      4  C   UNL     1       9.680  12.511  19.118  0.00  0.00    +0.000 A 
ATOM      5  C   UNL     1      10.297  13.718  19.448  0.00  0.00    +0.000 A 
ATOM      6  C   UNL     1       9.805  14.931  18.951  0.00  0.00    +0.000 A 
ATOM      7  C   UNL     1       8.662  14.994  18.147  0.00  0.00    +0.000 A 
ATOM      8  C   UNL     1       8.095  13.774  17.736  0.00  0.00    +0.000 A 
ATOM      9  C   UNL     1       8.609  12.491  18.188  0.00  0.00    +0.000 A 
ATOM     10  C   UNL     1       8.143  11.182  17.805  0.00  0.00    +0.000 A 
ENDROOT
BRANCH   1  14
ATOM     11  C   UNL     1       7.282   6.836  17.260  0.00  0.00    +0.000 A 
ATOM     12  N   UNL     1       7.852   6.438  18.410  0.00  0.00    +0.000 NA
ATOM     13  O   UNL     1       8.448   7.608  18.907  0.00  0.00    +0.000 OA
ATOM     14  C   UNL     1       8.166   8.609  18.006  0.00  0.00    +0.000 A 
ATOM     15  N   UNL     1       7.429   8.188  16.994  0.00  0.00    +0.000 NA
BRANCH  11  16
ATOM     16  C   UNL     1       6.442   5.918  16.431  0.00  0.00    +0.000 C 
BRANCH  16  20
ATOM     17  C   UNL     1       2.955   4.912  18.800  0.00  0.00    +0.000 A 
ATOM     18  C   UNL     1       3.930   3.946  18.536  0.00  0.00    +0.000 A 
ATOM     19  C   UNL     1       5.054   4.270  17.769  0.00  0.00    +0.000 A 
ATOM     20  C   UNL     1       5.213   5.561  17.240  0.00  0.00    +0.000 A 
ATOM     21  C   UNL     1       4.236   6.527  17.523  0.00  0.00    +0.000 A 
ATOM     22  C   UNL     1       3.125   6.214  18.316  0.00  0.00    +0.000 A 
BRANCH  17  24
ATOM     23  O   UNL     1       1.573   5.038  20.737  0.00  0.00    +0.000 OA
ATOM     24  C   UNL     1       1.790   4.539  19.644  0.00  0.00    +0.000 C 
BRANCH  24  25
ATOM     25  O   UNL     1       1.022   3.570  19.105  0.00  0.00    +0.000 OA
ATOM     26  H   UNL     1       0.578   2.992  19.753  0.00  0.00    +0.000 HD
ENDBRANCH  24  25
ENDBRANCH  17  24
ENDBRANCH  16  20
ENDBRANCH  11  16
ENDBRANCH   1  14
BRANCH   7  27
ATOM     27  O   UNL     1       8.313  16.283  17.843  0.00  0.00    +0.000 OA
BRANCH  27  28
ATOM     28  C   UNL     1       7.521  17.192  18.650  0.00  0.00    +0.000 C 
BRANCH  28  29
ATOM     29  C   UNL     1       6.147  16.665  19.102  0.00  0.00    +0.000 A 
ATOM     30  C   UNL     1       6.071  15.977  20.299  0.00  0.00    +0.000 A 
ATOM     31  C   UNL     1       4.966  15.181  20.543  0.00  0.00    +0.000 A 
ATOM     32  C   UNL     1       3.807  15.364  19.804  0.00  0.00    +0.000 A 
ATOM     33  C   UNL     1       2.642  14.679  20.189  0.00  0.00    +0.000 A 
ATOM     34  C   UNL     1       1.412  15.026  19.654  0.00  0.00    +0.000 A 
ATOM     35  C   UNL     1       1.363  16.043  18.708  0.00  0.00    +0.000 A 
ATOM     36  C   UNL     1       2.557  16.653  18.260  0.00  0.00    +0.000 A 
ATOM     37  C   UNL     1       3.823  16.320  18.771  0.00  0.00    +0.000 A 
ATOM     38  N   UNL     1       5.010  16.888  18.362  0.00  0.00    +0.000 NA
ENDBRANCH  28  29
ENDBRANCH  27  28
ENDBRANCH   7  27
TORSDOF 8
ENDMDL
MODEL 6
REMARK VINA RESULT:      -9.0      1.011      1.162
REMARK  Name = 
REMARK  8 active torsions:
REMARK  status: ('A' for Active; 'I' for Inactive)
REMARK    1  A    between atoms: C_2  and  O_3
REMARK    2  A    between atoms: C_2  and  C_4
REMARK    3  A    between atoms: C_7  and  C_8
REMARK    4  A    between atoms: C_8  and  C_9
REMARK    5  A    between atoms: C_12  and  C_13
REMARK    6  A    between atoms: C_19  and  O_20
REMARK    7  A    between atoms: O_20  and  C_21
REMARK    8  A    between atoms: C_21  and  C_22
REMARK                            x       y       z     vdW  Elec       q    Type
REMARK                         _______ _______ _______ _____ _____    ______ ____
ROOT
ATOM      1  C   UNL     1       8.796   9.580  18.476  0.00  0.00    +0.000 A 
ATOM      2  C   UNL     1       9.021   9.705  19.850  0.00  0.00    +0.000 A 
ATOM      3  C   UNL     1       9.679  10.834  20.351  0.00  0.00    +0.000 A 
ATOM      4  C   UNL     1      10.099  11.887  19.526  0.00  0.00    +0.000 A 
ATOM      5  C   UNL     1      10.824  12.942  20.079  0.00  0.00    +0.000 A 
ATOM      6  C   UNL     1      11.198  14.041  19.295  0.00  0.00    +0.000 A 
ATOM      7  C   UNL     1      10.831  14.150  17.950  0.00  0.00    +0.000 A 
ATOM      8  C   UNL     1      10.183  13.047  17.366  0.00  0.00    +0.000 A 
ATOM      9  C   UNL     1       9.824  11.865  18.135  0.00  0.00    +0.000 A 
ATOM     10  C   UNL     1       9.202  10.661  17.644  0.00  0.00    +0.000 A 
ENDROOT
BRANCH   1  14
ATOM     11  C   UNL     1       6.999   6.787  17.121  0.00  0.00    +0.000 A 
ATOM     12  N   UNL     1       7.541   6.199  18.201  0.00  0.00    +0.000 NA
ATOM     13  O   UNL     1       8.303   7.221  18.788  0.00  0.00    +0.000 OA
ATOM     14  C   UNL     1       8.135   8.339  18.005  0.00  0.00    +0.000 A 
ATOM     15  N   UNL     1       7.320   8.128  16.987  0.00  0.00    +0.000 NA
BRANCH  11  16
ATOM     16  C   UNL     1       6.019   6.080  16.240  0.00  0.00    +0.000 C 
BRANCH  16  20
ATOM     17  C   UNL     1       2.726   4.818  18.759  0.00  0.00    +0.000 A 
ATOM     18  C   UNL     1       3.484   3.872  18.063  0.00  0.00    +0.000 A 
ATOM     19  C   UNL     1       4.544   4.279  17.248  0.00  0.00    +0.000 A 
ATOM     20  C   UNL     1       4.855   5.641  17.102  0.00  0.00    +0.000 A 
ATOM     21  C   UNL     1       4.099   6.582  17.817  0.00  0.00    +0.000 A 
ATOM     22  C   UNL     1       3.055   6.175  18.657  0.00  0.00    +0.000 A 
BRANCH  17  24
ATOM     23  O   UNL     1       1.233   4.975  20.609  0.00  0.00    +0.000 OA
ATOM     24  C   UNL     1       1.626   4.346  19.639  0.00  0.00    +0.000 C 
BRANCH  24  25
ATOM     25  O   UNL     1       1.136   3.140  19.288  0.00  0.00    +0.000 OA
ATOM     26  H   UNL     1       1.725   2.607  18.723  0.00  0.00    +0.000 HD
ENDBRANCH  24  25
ENDBRANCH  17  24
ENDBRANCH  16  20
ENDBRANCH  11  16
ENDBRANCH   1  14
BRANCH   7  27
ATOM     27  O   UNL     1      11.230  15.339  17.399  0.00  0.00    +0.000 OA
BRANCH  27  28
ATOM     28  C   UNL     1      10.400  16.488  17.091  0.00  0.00    +0.000 C 
BRANCH  28  29
ATOM     29  C   UNL     1       9.195  16.713  18.023  0.00  0.00    +0.000 A 
ATOM     30  C   UNL     1       9.329  17.617  19.061  0.00  0.00    +0.000 A 
ATOM     31  C   UNL     1       8.434  17.564  20.114  0.00  0.00    +0.000 A 
ATOM     32  C   UNL     1       7.226  16.901  19.959  0.00  0.00    +0.000 A 
ATOM     33  C   UNL     1       6.255  17.017  20.969  0.00  0.00    +0.000 A 
ATOM     34  C   UNL     1       4.953  16.600  20.745  0.00  0.00    +0.000 A 
ATOM     35  C   UNL     1       4.638  16.038  19.513  0.00  0.00    +0.000 A 
ATOM     36  C   UNL     1       5.650  15.839  18.545  0.00  0.00    +0.000 A 
ATOM     37  C   UNL     1       6.983  16.239  18.741  0.00  0.00    +0.000 A 
ATOM     38  N   UNL     1       7.999  16.064  17.827  0.00  0.00    +0.000 NA
ENDBRANCH  28  29
ENDBRANCH  27  28
ENDBRANCH   7  27
TORSDOF 8
ENDMDL
MODEL 7
REMARK VINA RESULT:      -9.0      7.351     12.248
REMARK  Name = 
REMARK  8 active torsions:
REMARK  status: ('A' for Active; 'I' for Inactive)
REMARK    1  A    between atoms: C_2  and  O_3
REMARK    2  A    between atoms: C_2  and  C_4
REMARK    3  A    between atoms: C_7  and  C_8
REMARK    4  A    between atoms: C_8  and  C_9
REMARK    5  A    between atoms: C_12  and  C_13
REMARK    6  A    between atoms: C_19  and  O_20
REMARK    7  A    between atoms: O_20  and  C_21
REMARK    8  A    between atoms: C_21  and  C_22
REMARK                            x       y       z     vdW  Elec       q    Type
REMARK                         _______ _______ _______ _____ _____    ______ ____
ROOT
ATOM      1  C   UNL     1       0.693  10.126  20.303  0.00  0.00    +0.000 A 
ATOM      2  C   UNL     1       0.923  10.529  18.984  0.00  0.00    +0.000 A 
ATOM      3  C   UNL     1       1.631   9.694  18.112  0.00  0.00    +0.000 A 
ATOM      4  C   UNL     1       2.098   8.429  18.495  0.00  0.00    +0.000 A 
ATOM      5  C   UNL     1       2.870   7.685  17.603  0.00  0.00    +0.000 A 
ATOM      6  C   UNL     1       3.293   6.391  17.930  0.00  0.00    +0.000 A 
ATOM      7  C   UNL     1       2.931   5.775  19.133  0.00  0.00    +0.000 A 
ATOM      8  C   UNL     1       2.234   6.556  20.073  0.00  0.00    +0.000 A 
ATOM      9  C   UNL     1       1.823   7.922  19.791  0.00  0.00    +0.000 A 
ATOM     10  C   UNL     1       1.147   8.831  20.682  0.00  0.00    +0.000 A 
ENDROOT
BRANCH   1  14
ATOM     11  C   UNL     1      -1.007  12.664  22.183  0.00  0.00    +0.000 A 
ATOM     12  N   UNL     1      -0.748  11.791  23.172  0.00  0.00    +0.000 NA
ATOM     13  O   UNL     1      -0.104  10.730  22.517  0.00  0.00    +0.000 OA
ATOM     14  C   UNL     1      -0.024  11.075  21.188  0.00  0.00    +0.000 A 
ATOM     15  N   UNL     1      -0.540  12.265  20.941  0.00  0.00    +0.000 NA
BRANCH  11  16
ATOM     16  C   UNL     1      -1.612  14.006  22.446  0.00  0.00    +0.000 C 
BRANCH  16  20
ATOM     17  C   UNL     1      -5.739  13.354  23.600  0.00  0.00    +0.000 A 
ATOM     18  C   UNL     1      -5.118  12.496  22.688  0.00  0.00    +0.000 A 
ATOM     19  C   UNL     1      -3.787  12.708  22.313  0.00  0.00    +0.000 A 
ATOM     20  C   UNL     1      -3.060  13.791  22.833  0.00  0.00    +0.000 A 
ATOM     21  C   UNL     1      -3.687  14.638  23.759  0.00  0.00    +0.000 A 
ATOM     22  C   UNL     1      -5.010  14.411  24.159  0.00  0.00    +0.000 A 
BRANCH  17  24
ATOM     23  O   UNL     1      -7.705  12.020  23.768  0.00  0.00    +0.000 OA
ATOM     24  C   UNL     1      -7.144  13.080  23.997  0.00  0.00    +0.000 C 
BRANCH  24  25
ATOM     25  O   UNL     1      -7.749  14.126  24.594  0.00  0.00    +0.000 OA
ATOM     26  H   UNL     1      -8.700  14.217  24.397  0.00  0.00    +0.000 HD
ENDBRANCH  24  25
ENDBRANCH  17  24
ENDBRANCH  16  20
ENDBRANCH  11  16
ENDBRANCH   1  14
BRANCH   7  27
ATOM     27  O   UNL     1       3.384   4.485  19.211  0.00  0.00    +0.000 OA
BRANCH  27  28
ATOM     28  C   UNL     1       4.763   4.035  19.203  0.00  0.00    +0.000 C 
BRANCH  28  29
ATOM     29  C   UNL     1       5.511   4.190  17.866  0.00  0.00    +0.000 A 
ATOM     30  C   UNL     1       6.781   4.736  17.885  0.00  0.00    +0.000 A 
ATOM     31  C   UNL     1       7.314   5.231  16.709  0.00  0.00    +0.000 A 
ATOM     32  C   UNL     1       6.770   4.851  15.492  0.00  0.00    +0.000 A 
ATOM     33  C   UNL     1       7.437   5.213  14.309  0.00  0.00    +0.000 A 
ATOM     34  C   UNL     1       7.084   4.639  13.098  0.00  0.00    +0.000 A 
ATOM     35  C   UNL     1       6.039   3.723  13.077  0.00  0.00    +0.000 A 
ATOM     36  C   UNL     1       5.315   3.447  14.260  0.00  0.00    +0.000 A 
ATOM     37  C   UNL     1       5.636   4.017  15.503  0.00  0.00    +0.000 A 
ATOM     38  N   UNL     1       4.958   3.776  16.678  0.00  0.00    +0.000 NA
ENDBRANCH  28  29
ENDBRANCH  27  28
ENDBRANCH   7  27
TORSDOF 8
ENDMDL
MODEL 8
REMARK VINA RESULT:      -9.0      4.578      7.684
REMARK  Name = 
REMARK  8 active torsions:
REMARK  status: ('A' for Active; 'I' for Inactive)
REMARK    1  A    between atoms: C_2  and  O_3
REMARK    2  A    between atoms: C_2  and  C_4
REMARK    3  A    between atoms: C_7  and  C_8
REMARK    4  A    between atoms: C_8  and  C_9
REMARK    5  A    between atoms: C_12  and  C_13
REMARK    6  A    between atoms: C_19  and  O_20
REMARK    7  A    between atoms: O_20  and  C_21
REMARK    8  A    between atoms: C_21  and  C_22
REMARK                            x       y       z     vdW  Elec       q    Type
REMARK                         _______ _______ _______ _____ _____    ______ ____
ROOT
ATOM      1  C   UNL     1       1.928   7.809  19.484  0.00  0.00    +0.000 A 
ATOM      2  C   UNL     1       1.928   8.343  18.192  0.00  0.00    +0.000 A 
ATOM      3  C   UNL     1       1.299   9.568  17.943  0.00  0.00    +0.000 A 
ATOM      4  C   UNL     1       0.690  10.321  18.957  0.00  0.00    +0.000 A 
ATOM      5  C   UNL     1       0.008  11.492  18.625  0.00  0.00    +0.000 A 
ATOM      6  C   UNL     1      -0.552  12.300  19.622  0.00  0.00    +0.000 A 
ATOM      7  C   UNL     1      -0.420  11.998  20.981  0.00  0.00    +0.000 A 
ATOM      8  C   UNL     1       0.183  10.772  21.314  0.00  0.00    +0.000 A 
ATOM      9  C   UNL     1       0.731   9.880  20.304  0.00  0.00    +0.000 A 
ATOM     10  C   UNL     1       1.330   8.586  20.516  0.00  0.00    +0.000 A 
ENDROOT
BRANCH   1  14
ATOM     11  C   UNL     1       3.739   4.722  19.715  0.00  0.00    +0.000 A 
ATOM     12  N   UNL     1       2.566   4.330  20.242  0.00  0.00    +0.000 NA
ATOM     13  O   UNL     1       1.789   5.499  20.225  0.00  0.00    +0.000 OA
ATOM     14  C   UNL     1       2.571   6.487  19.673  0.00  0.00    +0.000 A 
ATOM     15  N   UNL     1       3.766   6.049  19.319  0.00  0.00    +0.000 NA
BRANCH  11  16
ATOM     16  C   UNL     1       4.852   3.758  19.451  0.00  0.00    +0.000 C 
BRANCH  16  20
ATOM     17  C   UNL     1       6.380   4.480  15.460  0.00  0.00    +0.000 A 
ATOM     18  C   UNL     1       7.179   4.735  16.578  0.00  0.00    +0.000 A 
ATOM     19  C   UNL     1       6.686   4.505  17.866  0.00  0.00    +0.000 A 
ATOM     20  C   UNL     1       5.378   4.031  18.057  0.00  0.00    +0.000 A 
ATOM     21  C   UNL     1       4.589   3.763  16.929  0.00  0.00    +0.000 A 
ATOM     22  C   UNL     1       5.091   3.965  15.637  0.00  0.00    +0.000 A 
BRANCH  17  24
ATOM     23  O   UNL     1       6.579   4.096  13.117  0.00  0.00    +0.000 OA
ATOM     24  C   UNL     1       6.950   4.708  14.107  0.00  0.00    +0.000 C 
BRANCH  24  25
ATOM     25  O   UNL     1       7.941   5.623  14.086  0.00  0.00    +0.000 OA
ATOM     26  H   UNL     1       7.659   6.536  14.278  0.00  0.00    +0.000 HD
ENDBRANCH  24  25
ENDBRANCH  17  24
ENDBRANCH  16  20
ENDBRANCH  11  16
ENDBRANCH   1  14
BRANCH   7  27
ATOM     27  O   UNL     1      -0.971  12.963  21.782  0.00  0.00    +0.000 OA
BRANCH  27  28
ATOM     28  C   UNL     1      -0.290  14.078  22.411  0.00  0.00    +0.000 C 
BRANCH  28  29
ATOM     29  C   UNL     1       0.949  14.611  21.670  0.00  0.00    +0.000 A 
ATOM     30  C   UNL     1       0.760  15.532  20.655  0.00  0.00    +0.000 A 
ATOM     31  C   UNL     1       1.776  15.737  19.740  0.00  0.00    +0.000 A 
ATOM     32  C   UNL     1       3.068  15.334  20.041  0.00  0.00    +0.000 A 
ATOM     33  C   UNL     1       4.115  15.716  19.185  0.00  0.00    +0.000 A 
ATOM     34  C   UNL     1       5.435  15.567  19.577  0.00  0.00    +0.000 A 
ATOM     35  C   UNL     1       5.699  15.005  20.820  0.00  0.00    +0.000 A 
ATOM     36  C   UNL     1       4.636  14.536  21.626  0.00  0.00    +0.000 A 
ATOM     37  C   UNL     1       3.286  14.659  21.257  0.00  0.00    +0.000 A 
ATOM     38  N   UNL     1       2.221  14.216  22.011  0.00  0.00    +0.000 NA
ENDBRANCH  28  29
ENDBRANCH  27  28
ENDBRANCH   7  27
TORSDOF 8
ENDMDL
MODEL 9
REMARK VINA RESULT:      -8.9      1.649      2.261
REMARK  Name = 
REMARK  8 active torsions:
REMARK  status: ('A' for Active; 'I' for Inactive)
REMARK    1  A    between atoms: C_2  and  O_3
REMARK    2  A    between atoms: C_2  and  C_4
REMARK    3  A    between atoms: C_7  and  C_8
REMARK    4  A    between atoms: C_8  and  C_9
REMARK    5  A    between atoms: C_12  and  C_13
REMARK    6  A    between atoms: C_19  and  O_20
REMARK    7  A    between atoms: O_20  and  C_21
REMARK    8  A    between atoms: C_21  and  C_22
REMARK                            x       y       z     vdW  Elec       q    Type
REMARK                         _______ _______ _______ _____ _____    ______ ____
ROOT
ATOM      1  C   UNL     1       8.408   9.411  18.279  0.00  0.00    +0.000 A 
ATOM      2  C   UNL     1       9.200   9.327  19.429  0.00  0.00    +0.000 A 
ATOM      3  C   UNL     1       9.842  10.468  19.920  0.00  0.00    +0.000 A 
ATOM      4  C   UNL     1       9.696  11.729  19.324  0.00  0.00    +0.000 A 
ATOM      5  C   UNL     1      10.432  12.808  19.814  0.00  0.00    +0.000 A 
ATOM      6  C   UNL     1      10.257  14.092  19.284  0.00  0.00    +0.000 A 
ATOM      7  C   UNL     1       9.318  14.359  18.282  0.00  0.00    +0.000 A 
ATOM      8  C   UNL     1       8.644  13.259  17.720  0.00  0.00    +0.000 A 
ATOM      9  C   UNL     1       8.838  11.902  18.208  0.00  0.00    +0.000 A 
ATOM     10  C   UNL     1       8.241  10.696  17.690  0.00  0.00    +0.000 A 
ENDROOT
BRANCH   1  14
ATOM     11  C   UNL     1       6.695   6.583  16.889  0.00  0.00    +0.000 A 
ATOM     12  N   UNL     1       7.334   5.978  17.905  0.00  0.00    +0.000 NA
ATOM     13  O   UNL     1       8.071   7.015  18.498  0.00  0.00    +0.000 OA
ATOM     14  C   UNL     1       7.791   8.157  17.785  0.00  0.00    +0.000 A 
ATOM     15  N   UNL     1       6.930   7.945  16.805  0.00  0.00    +0.000 NA
BRANCH  11  16
ATOM     16  C   UNL     1       5.707   5.861  16.030  0.00  0.00    +0.000 C 
BRANCH  16  20
ATOM     17  C   UNL     1       2.483   4.565  18.621  0.00  0.00    +0.000 A 
ATOM     18  C   UNL     1       3.242   3.626  17.918  0.00  0.00    +0.000 A 
ATOM     19  C   UNL     1       4.280   4.044  17.079  0.00  0.00    +0.000 A 
ATOM     20  C   UNL     1       4.566   5.410  16.918  0.00  0.00    +0.000 A 
ATOM     21  C   UNL     1       3.809   6.343  17.641  0.00  0.00    +0.000 A 
ATOM     22  C   UNL     1       2.788   5.927  18.504  0.00  0.00    +0.000 A 
BRANCH  17  24
ATOM     23  O   UNL     1       1.116   4.642  20.571  0.00  0.00    +0.000 OA
ATOM     24  C   UNL     1       1.408   4.082  19.526  0.00  0.00    +0.000 C 
BRANCH  24  25
ATOM     25  O   UNL     1       0.818   2.946  19.103  0.00  0.00    +0.000 OA
ATOM     26  H   UNL     1       0.172   3.064  18.381  0.00  0.00    +0.000 HD
ENDBRANCH  24  25
ENDBRANCH  17  24
ENDBRANCH  16  20
ENDBRANCH  11  16
ENDBRANCH   1  14
BRANCH   7  27
ATOM     27  O   UNL     1       9.256  15.691  17.971  0.00  0.00    +0.000 OA
BRANCH  27  28
ATOM     28  C   UNL     1       8.067  16.516  17.873  0.00  0.00    +0.000 C 
BRANCH  28  29
ATOM     29  C   UNL     1       6.878  16.085  18.751  0.00  0.00    +0.000 A 
ATOM     30  C   UNL     1       6.916  16.388  20.099  0.00  0.00    +0.000 A 
ATOM     31  C   UNL     1       6.078  15.705  20.962  0.00  0.00    +0.000 A 
ATOM     32  C   UNL     1       4.977  15.027  20.462  0.00  0.00    +0.000 A 
ATOM     33  C   UNL     1       4.038  14.499  21.364  0.00  0.00    +0.000 A 
ATOM     34  C   UNL     1       2.805  14.053  20.917  0.00  0.00    +0.000 A 
ATOM     35  C   UNL     1       2.531  14.112  19.556  0.00  0.00    +0.000 A 
ATOM     36  C   UNL     1       3.525  14.554  18.652  0.00  0.00    +0.000 A 
ATOM     37  C   UNL     1       4.790  15.004  19.067  0.00  0.00    +0.000 A 
ATOM     38  N   UNL     1       5.786  15.441  18.221  0.00  0.00    +0.000 NA
ENDBRANCH  28  29
ENDBRANCH  27  28
ENDBRANCH   7  27
TORSDOF 8
ENDMDL
