MODEL 1
REMARK VINA RESULT:      -9.2      0.000      0.000
REMARK  Name = 
REMARK  9 active torsions:
REMARK  status: ('A' for Active; 'I' for Inactive)
REMARK    1  A    between atoms: C_4  and  C_5
REMARK    2  A    between atoms: C_5  and  C_6
REMARK    3  A    between atoms: C_6  and  N_7
REMARK    4  A    between atoms: N_7  and  C_8
REMARK    5  A    between atoms: C_8  and  C_9
REMARK    6  A    between atoms: C_13  and  C_14
REMARK    7  A    between atoms: C_14  and  O_15
REMARK    8  A    between atoms: O_15  and  C_16
REMARK    9  A    between atoms: C_19  and  C_20
REMARK                            x       y       z     vdW  Elec       q    Type
REMARK                         _______ _______ _______ _____ _____    ______ ____
ROOT
ATOM      1  O   UNL     1       4.394   3.240  17.660  0.00  0.00    +0.000 OA
ENDROOT
BRANCH   1   2
ATOM      2  C   UNL     1       5.303   3.772  16.810  0.00  0.00    +0.000 A 
ATOM      3  N   UNL     1       5.275   3.571  15.523  0.00  0.00    +0.000 NA
ATOM      4  N   UNL     1       6.221   4.294  14.828  0.00  0.00    +0.000 N 
ATOM      5  C   UNL     1       6.566   4.232  13.485  0.00  0.00    +0.000 A 
ATOM      6  N   UNL     1       7.589   5.053  13.283  0.00  0.00    +0.000 NA
ATOM      7  N   UNL     1       7.873   5.711  14.452  0.00  0.00    +0.000 NA
ATOM      8  C   UNL     1       7.045   5.264  15.360  0.00  0.00    +0.000 A 
ATOM      9  C   UNL     1       6.994   5.540  16.775  0.00  0.00    +0.000 A 
ATOM     10  C   UNL     1       7.737   6.557  17.372  0.00  0.00    +0.000 A 
ATOM     11  C   UNL     1       7.806   6.630  18.762  0.00  0.00    +0.000 A 
ATOM     12  C   UNL     1       7.156   5.671  19.544  0.00  0.00    +0.000 A 
ATOM     13  C   UNL     1       6.347   4.700  18.947  0.00  0.00    +0.000 A 
ATOM     14  C   UNL     1       6.225   4.670  17.558  0.00  0.00    +0.000 A 
BRANCH   5  15
ATOM     15  C   UNL     1       5.952   3.402  12.445  0.00  0.00    +0.000 A 
ATOM     16  C   UNL     1       6.577   2.275  11.898  0.00  0.00    +0.000 A 
ATOM     17  C   UNL     1       5.933   1.497  10.929  0.00  0.00    +0.000 A 
ATOM     18  C   UNL     1       4.650   1.833  10.502  0.00  0.00    +0.000 A 
ATOM     19  C   UNL     1       4.007   2.941  11.044  0.00  0.00    +0.000 A 
ATOM     20  C   UNL     1       4.653   3.718  12.008  0.00  0.00    +0.000 A 
ENDBRANCH   5  15
ENDBRANCH   1   2
BRANCH   1  21
ATOM     21  C   UNL     1       3.008   3.601  17.504  0.00  0.00    +0.000 C 
BRANCH  21  26
ATOM     22  C   UNL     1       1.972   6.203  19.929  0.00  0.00    +0.000 A 
ATOM     23  C   UNL     1       1.459   5.473  20.996  0.00  0.00    +0.000 A 
ATOM     24  C   UNL     1       1.460   4.088  20.924  0.00  0.00    +0.000 A 
ATOM     25  C   UNL     1       1.966   3.463  19.788  0.00  0.00    +0.000 A 
ATOM     26  C   UNL     1       2.464   4.251  18.755  0.00  0.00    +0.000 A 
ATOM     27  N   UNL     1       2.466   5.607  18.807  0.00  0.00    +0.000 NA
BRANCH  22  28
ATOM     28  C   UNL     1       2.020   7.718  19.995  0.00  0.00    +0.000 C 
BRANCH  28  29
ATOM     29  N   UNL     1       1.539   8.289  21.266  0.00  0.00    +0.000 NA
ATOM     30  H   UNL     1       1.232   7.518  21.862  0.00  0.00    +0.000 HD
BRANCH  29  31
ATOM     31  C   UNL     1       0.399   9.194  21.049  0.00  0.00    +0.000 C 
BRANCH  31  32
ATOM     32  C   UNL     1       0.687  10.152  19.884  0.00  0.00    +0.000 C 
BRANCH  32  36
ATOM     33  C   UNL     1      -2.822  11.106  17.554  0.00  0.00    +0.000 A 
ATOM     34  C   UNL     1      -2.601  11.737  18.778  0.00  0.00    +0.000 A 
ATOM     35  C   UNL     1      -1.467  11.423  19.532  0.00  0.00    +0.000 A 
ATOM     36  C   UNL     1      -0.545  10.475  19.071  0.00  0.00    +0.000 A 
ATOM     37  C   UNL     1      -0.772   9.857  17.833  0.00  0.00    +0.000 A 
ATOM     38  C   UNL     1      -1.910  10.167  17.082  0.00  0.00    +0.000 A 
ENDBRANCH  32  36
ENDBRANCH  31  32
ENDBRANCH  29  31
ENDBRANCH  28  29
ENDBRANCH  22  28
ENDBRANCH  21  26
ENDBRANCH   1  21
TORSDOF 9
ENDMDL
MODEL 2
REMARK VINA RESULT:      -9.2      0.932      1.517
REMARK  Name = 
REMARK  9 active torsions:
REMARK  status: ('A' for Active; 'I' for Inactive)
REMARK    1  A    between atoms: C_4  and  C_5
REMARK    2  A    between atoms: C_5  and  C_6
REMARK    3  A    between atoms: C_6  and  N_7
REMARK    4  A    between atoms: N_7  and  C_8
REMARK    5  A    between atoms: C_8  and  C_9
REMARK    6  A    between atoms: C_13  and  C_14
REMARK    7  A    between atoms: C_14  and  O_15
REMARK    8  A    between atoms: O_15  and  C_16
REMARK    9  A    between atoms: C_19  and  C_20
REMARK                            x       y       z     vdW  Elec       q    Type
REMARK                         _______ _______ _______ _____ _____    ______ ____
ROOT
ATOM      1  O   UNL     1       4.109   3.312  17.737  0.00  0.00    +0.000 OA
ENDROOT
BRANCH   1   2
ATOM      2  C   UNL     1       5.060   3.790  16.901  0.00  0.00    +0.000 A 
ATOM      3  N   UNL     1       5.036   3.597  15.613  0.00  0.00    +0.000 NA
ATOM      4  N   UNL     1       6.034   4.264  14.934  0.00  0.00    +0.000 N 
ATOM      5  C   UNL     1       6.391   4.186  13.595  0.00  0.00    +0.000 A 
ATOM      6  N   UNL     1       7.466   4.943  13.410  0.00  0.00    +0.000 NA
ATOM      7  N   UNL     1       7.775   5.577  14.586  0.00  0.00    +0.000 NA
ATOM      8  C   UNL     1       6.910   5.178  15.481  0.00  0.00    +0.000 A 
ATOM      9  C   UNL     1       6.858   5.450  16.897  0.00  0.00    +0.000 A 
ATOM     10  C   UNL     1       7.655   6.415  17.509  0.00  0.00    +0.000 A 
ATOM     11  C   UNL     1       7.711   6.477  18.900  0.00  0.00    +0.000 A 
ATOM     12  C   UNL     1       6.993   5.556  19.669  0.00  0.00    +0.000 A 
ATOM     13  C   UNL     1       6.132   4.641  19.057  0.00  0.00    +0.000 A 
ATOM     14  C   UNL     1       6.027   4.625  17.666  0.00  0.00    +0.000 A 
BRANCH   5  15
ATOM     15  C   UNL     1       5.739   3.401  12.543  0.00  0.00    +0.000 A 
ATOM     16  C   UNL     1       4.500   3.744  11.991  0.00  0.00    +0.000 A 
ATOM     17  C   UNL     1       3.935   2.978  10.964  0.00  0.00    +0.000 A 
ATOM     18  C   UNL     1       4.609   1.863  10.472  0.00  0.00    +0.000 A 
ATOM     19  C   UNL     1       5.849   1.514  10.999  0.00  0.00    +0.000 A 
ATOM     20  C   UNL     1       6.408   2.278  12.025  0.00  0.00    +0.000 A 
ENDBRANCH   5  15
ENDBRANCH   1   2
BRANCH   1  21
ATOM     21  C   UNL     1       2.759   3.795  17.598  0.00  0.00    +0.000 C 
BRANCH  21  26
ATOM     22  C   UNL     1       2.275   7.261  18.813  0.00  0.00    +0.000 A 
ATOM     23  C   UNL     1       1.986   7.100  20.163  0.00  0.00    +0.000 A 
ATOM     24  C   UNL     1       1.958   5.819  20.694  0.00  0.00    +0.000 A 
ATOM     25  C   UNL     1       2.212   4.729  19.867  0.00  0.00    +0.000 A 
ATOM     26  C   UNL     1       2.492   4.959  18.524  0.00  0.00    +0.000 A 
ATOM     27  N   UNL     1       2.519   6.205  17.986  0.00  0.00    +0.000 NA
BRANCH  22  28
ATOM     28  C   UNL     1       2.350   8.652  18.210  0.00  0.00    +0.000 C 
BRANCH  28  29
ATOM     29  N   UNL     1       1.428   9.630  18.816  0.00  0.00    +0.000 NA
ATOM     30  H   UNL     1       1.145   9.273  19.730  0.00  0.00    +0.000 HD
BRANCH  29  31
ATOM     31  C   UNL     1       0.223   9.811  17.991  0.00  0.00    +0.000 C 
BRANCH  31  32
ATOM     32  C   UNL     1      -0.663  10.924  18.569  0.00  0.00    +0.000 C 
BRANCH  32  36
ATOM     33  C   UNL     1      -4.556  11.134  16.713  0.00  0.00    +0.000 A 
ATOM     34  C   UNL     1      -4.350  11.694  17.973  0.00  0.00    +0.000 A 
ATOM     35  C   UNL     1      -3.091  11.620  18.573  0.00  0.00    +0.000 A 
ATOM     36  C   UNL     1      -2.026  10.986  17.921  0.00  0.00    +0.000 A 
ATOM     37  C   UNL     1      -2.243  10.438  16.649  0.00  0.00    +0.000 A 
ATOM     38  C   UNL     1      -3.506  10.505  16.051  0.00  0.00    +0.000 A 
ENDBRANCH  32  36
ENDBRANCH  31  32
ENDBRANCH  29  31
ENDBRANCH  28  29
ENDBRANCH  22  28
ENDBRANCH  21  26
ENDBRANCH   1  21
TORSDOF 9
ENDMDL
MODEL 3
REMARK VINA RESULT:      -9.2      1.035      1.872
REMARK  Name = 
REMARK  9 active torsions:
REMARK  status: ('A' for Active; 'I' for Inactive)
REMARK    1  A    between atoms: C_4  and  C_5
REMARK    2  A    between atoms: C_5  and  C_6
REMARK    3  A    between atoms: C_6  and  N_7
REMARK    4  A    between atoms: N_7  and  C_8
REMARK    5  A    between atoms: C_8  and  C_9
REMARK    6  A    between atoms: C_13  and  C_14
REMARK    7  A    between atoms: C_14  and  O_15
REMARK    8  A    between atoms: O_15  and  C_16
REMARK    9  A    between atoms: C_19  and  C_20
REMARK                            x       y       z     vdW  Elec       q    Type
REMARK                         _______ _______ _______ _____ _____    ______ ____
ROOT
ATOM      1  O   UNL     1       4.245   3.200  17.657  0.00  0.00    +0.000 OA
ENDROOT
BRANCH   1   2
ATOM      2  C   UNL     1       5.180   3.723  16.830  0.00  0.00    +0.000 A 
ATOM      3  N   UNL     1       5.168   3.543  15.539  0.00  0.00    +0.000 NA
ATOM      4  N   UNL     1       6.142   4.254  14.871  0.00  0.00    +0.000 N 
ATOM      5  C   UNL     1       6.506   4.204  13.533  0.00  0.00    +0.000 A 
ATOM      6  N   UNL     1       7.552   5.003  13.360  0.00  0.00    +0.000 NA
ATOM      7  N   UNL     1       7.833   5.636  14.543  0.00  0.00    +0.000 NA
ATOM      8  C   UNL     1       6.980   5.195  15.431  0.00  0.00    +0.000 A 
ATOM      9  C   UNL     1       6.912   5.451  16.850  0.00  0.00    +0.000 A 
ATOM     10  C   UNL     1       7.670   6.439  17.474  0.00  0.00    +0.000 A 
ATOM     11  C   UNL     1       7.718   6.489  18.866  0.00  0.00    +0.000 A 
ATOM     12  C   UNL     1       7.033   5.533  19.623  0.00  0.00    +0.000 A 
ATOM     13  C   UNL     1       6.211   4.592  18.998  0.00  0.00    +0.000 A 
ATOM     14  C   UNL     1       6.111   4.586  17.606  0.00  0.00    +0.000 A 
BRANCH   5  15
ATOM     15  C   UNL     1       5.889   3.406  12.470  0.00  0.00    +0.000 A 
ATOM     16  C   UNL     1       6.493   2.269  11.919  0.00  0.00    +0.000 A 
ATOM     17  C   UNL     1       5.847   1.522  10.928  0.00  0.00    +0.000 A 
ATOM     18  C   UNL     1       4.582   1.899  10.482  0.00  0.00    +0.000 A 
ATOM     19  C   UNL     1       3.960   3.018  11.026  0.00  0.00    +0.000 A 
ATOM     20  C   UNL     1       4.609   3.764  12.013  0.00  0.00    +0.000 A 
ENDBRANCH   5  15
ENDBRANCH   1   2
BRANCH   1  21
ATOM     21  C   UNL     1       2.868   3.580  17.472  0.00  0.00    +0.000 C 
BRANCH  21  26
ATOM     22  C   UNL     1       2.088   6.568  19.519  0.00  0.00    +0.000 A 
ATOM     23  C   UNL     1       1.472   6.042  20.649  0.00  0.00    +0.000 A 
ATOM     24  C   UNL     1       1.315   4.667  20.748  0.00  0.00    +0.000 A 
ATOM     25  C   UNL     1       1.769   3.850  19.717  0.00  0.00    +0.000 A 
ATOM     26  C   UNL     1       2.376   4.440  18.613  0.00  0.00    +0.000 A 
ATOM     27  N   UNL     1       2.533   5.783  18.497  0.00  0.00    +0.000 NA
BRANCH  22  28
ATOM     28  C   UNL     1       2.309   8.064  19.399  0.00  0.00    +0.000 C 
BRANCH  28  29
ATOM     29  N   UNL     1       1.720   8.673  18.191  0.00  0.00    +0.000 NA
ATOM     30  H   UNL     1       2.464   8.788  17.502  0.00  0.00    +0.000 HD
BRANCH  29  31
ATOM     31  C   UNL     1       1.145   9.996  18.485  0.00  0.00    +0.000 C 
BRANCH  31  32
ATOM     32  C   UNL     1      -0.327   9.862  18.902  0.00  0.00    +0.000 C 
BRANCH  32  36
ATOM     33  C   UNL     1      -0.965  10.900  23.045  0.00  0.00    +0.000 A 
ATOM     34  C   UNL     1      -0.498   9.632  22.705  0.00  0.00    +0.000 A 
ATOM     35  C   UNL     1      -0.296   9.297  21.364  0.00  0.00    +0.000 A 
ATOM     36  C   UNL     1      -0.562  10.225  20.350  0.00  0.00    +0.000 A 
ATOM     37  C   UNL     1      -1.020  11.502  20.705  0.00  0.00    +0.000 A 
ATOM     38  C   UNL     1      -1.228  11.834  22.048  0.00  0.00    +0.000 A 
ENDBRANCH  32  36
ENDBRANCH  31  32
ENDBRANCH  29  31
ENDBRANCH  28  29
ENDBRANCH  22  28
ENDBRANCH  21  26
ENDBRANCH   1  21
TORSDOF 9
ENDMDL
MODEL 4
REMARK VINA RESULT:      -9.1      0.768      1.417
REMARK  Name = 
REMARK  9 active torsions:
REMARK  status: ('A' for Active; 'I' for Inactive)
REMARK    1  A    between atoms: C_4  and  C_5
REMARK    2  A    between atoms: C_5  and  C_6
REMARK    3  A    between atoms: C_6  and  N_7
REMARK    4  A    between atoms: N_7  and  C_8
REMARK    5  A    between atoms: C_8  and  C_9
REMARK    6  A    between atoms: C_13  and  C_14
REMARK    7  A    between atoms: C_14  and  O_15
REMARK    8  A    between atoms: O_15  and  C_16
REMARK    9  A    between atoms: C_19  and  C_20
REMARK                            x       y       z     vdW  Elec       q    Type
REMARK                         _______ _______ _______ _____ _____    ______ ____
ROOT
ATOM      1  O   UNL     1       4.298   3.277  17.771  0.00  0.00    +0.000 OA
ENDROOT
BRANCH   1   2
ATOM      2  C   UNL     1       5.215   3.784  16.914  0.00  0.00    +0.000 A 
ATOM      3  N   UNL     1       5.169   3.588  15.627  0.00  0.00    +0.000 NA
ATOM      4  N   UNL     1       6.129   4.286  14.925  0.00  0.00    +0.000 N 
ATOM      5  C   UNL     1       6.459   4.217  13.578  0.00  0.00    +0.000 A 
ATOM      6  N   UNL     1       7.504   5.008  13.369  0.00  0.00    +0.000 NA
ATOM      7  N   UNL     1       7.818   5.655  14.537  0.00  0.00    +0.000 NA
ATOM      8  C   UNL     1       6.986   5.230  15.452  0.00  0.00    +0.000 A 
ATOM      9  C   UNL     1       6.956   5.503  16.868  0.00  0.00    +0.000 A 
ATOM     10  C   UNL     1       7.734   6.495  17.461  0.00  0.00    +0.000 A 
ATOM     11  C   UNL     1       7.818   6.562  18.850  0.00  0.00    +0.000 A 
ATOM     12  C   UNL     1       7.147   5.619  19.636  0.00  0.00    +0.000 A 
ATOM     13  C   UNL     1       6.305   4.674  19.044  0.00  0.00    +0.000 A 
ATOM     14  C   UNL     1       6.170   4.652  17.656  0.00  0.00    +0.000 A 
BRANCH   5  15
ATOM     15  C   UNL     1       5.811   3.409  12.542  0.00  0.00    +0.000 A 
ATOM     16  C   UNL     1       4.545   3.704  12.024  0.00  0.00    +0.000 A 
ATOM     17  C   UNL     1       3.983   2.917  11.011  0.00  0.00    +0.000 A 
ATOM     18  C   UNL     1       4.688   1.831  10.498  0.00  0.00    +0.000 A 
ATOM     19  C   UNL     1       5.954   1.530  10.990  0.00  0.00    +0.000 A 
ATOM     20  C   UNL     1       6.510   2.314  12.004  0.00  0.00    +0.000 A 
ENDBRANCH   5  15
ENDBRANCH   1   2
BRANCH   1  21
ATOM     21  C   UNL     1       2.930   3.712  17.658  0.00  0.00    +0.000 C 
BRANCH  21  26
ATOM     22  C   UNL     1       2.000   6.651  19.714  0.00  0.00    +0.000 A 
ATOM     23  C   UNL     1       1.747   6.108  20.969  0.00  0.00    +0.000 A 
ATOM     24  C   UNL     1       1.895   4.741  21.150  0.00  0.00    +0.000 A 
ATOM     25  C   UNL     1       2.283   3.946  20.076  0.00  0.00    +0.000 A 
ATOM     26  C   UNL     1       2.519   4.551  18.846  0.00  0.00    +0.000 A 
ATOM     27  N   UNL     1       2.375   5.886  18.649  0.00  0.00    +0.000 NA
BRANCH  22  28
ATOM     28  C   UNL     1       1.885   8.147  19.493  0.00  0.00    +0.000 C 
BRANCH  28  29
ATOM     29  N   UNL     1       1.964   8.564  18.080  0.00  0.00    +0.000 NA
ATOM     30  H   UNL     1       2.935   8.466  17.777  0.00  0.00    +0.000 HD
BRANCH  29  31
ATOM     31  C   UNL     1       1.562   9.969  17.914  0.00  0.00    +0.000 C 
BRANCH  31  32
ATOM     32  C   UNL     1       0.577  10.381  19.018  0.00  0.00    +0.000 C 
BRANCH  32  36
ATOM     33  C   UNL     1      -3.454  10.918  17.566  0.00  0.00    +0.000 A 
ATOM     34  C   UNL     1      -2.611   9.985  16.964  0.00  0.00    +0.000 A 
ATOM     35  C   UNL     1      -1.306   9.816  17.432  0.00  0.00    +0.000 A 
ATOM     36  C   UNL     1      -0.830  10.580  18.506  0.00  0.00    +0.000 A 
ATOM     37  C   UNL     1      -1.691  11.506  19.111  0.00  0.00    +0.000 A 
ATOM     38  C   UNL     1      -2.996  11.679  18.637  0.00  0.00    +0.000 A 
ENDBRANCH  32  36
ENDBRANCH  31  32
ENDBRANCH  29  31
ENDBRANCH  28  29
ENDBRANCH  22  28
ENDBRANCH  21  26
ENDBRANCH   1  21
TORSDOF 9
ENDMDL
MODEL 5
REMARK VINA RESULT:      -9.1      3.866     11.727
REMARK  Name = 
REMARK  9 active torsions:
REMARK  status: ('A' for Active; 'I' for Inactive)
REMARK    1  A    between atoms: C_4  and  C_5
REMARK    2  A    between atoms: C_5  and  C_6
REMARK    3  A    between atoms: C_6  and  N_7
REMARK    4  A    between atoms: N_7  and  C_8
REMARK    5  A    between atoms: C_8  and  C_9
REMARK    6  A    between atoms: C_13  and  C_14
REMARK    7  A    between atoms: C_14  and  O_15
REMARK    8  A    between atoms: O_15  and  C_16
REMARK    9  A    between atoms: C_19  and  C_20
REMARK                            x       y       z     vdW  Elec       q    Type
REMARK                         _______ _______ _______ _____ _____    ______ ____
ROOT
ATOM      1  O   UNL     1      -0.215  10.698  18.687  0.00  0.00    +0.000 OA
ENDROOT
BRANCH   1   2
ATOM      2  C   UNL     1      -1.479  11.138  18.895  0.00  0.00    +0.000 A 
ATOM      3  N   UNL     1      -1.819  11.861  19.923  0.00  0.00    +0.000 NA
ATOM      4  N   UNL     1      -3.126  12.298  19.885  0.00  0.00    +0.000 N 
ATOM      5  C   UNL     1      -3.860  12.965  20.857  0.00  0.00    +0.000 A 
ATOM      6  N   UNL     1      -5.102  13.106  20.411  0.00  0.00    +0.000 NA
ATOM      7  N   UNL     1      -5.179  12.613  19.134  0.00  0.00    +0.000 NA
ATOM      8  C   UNL     1      -3.996  12.148  18.826  0.00  0.00    +0.000 A 
ATOM      9  C   UNL     1      -3.567  11.424  17.653  0.00  0.00    +0.000 A 
ATOM     10  C   UNL     1      -4.360  11.299  16.514  0.00  0.00    +0.000 A 
ATOM     11  C   UNL     1      -3.978  10.412  15.509  0.00  0.00    +0.000 A 
ATOM     12  C   UNL     1      -2.824   9.638  15.662  0.00  0.00    +0.000 A 
ATOM     13  C   UNL     1      -1.989   9.822  16.767  0.00  0.00    +0.000 A 
ATOM     14  C   UNL     1      -2.338  10.758  17.740  0.00  0.00    +0.000 A 
BRANCH   5  15
ATOM     15  C   UNL     1      -3.392  13.428  22.166  0.00  0.00    +0.000 A 
ATOM     16  C   UNL     1      -2.228  14.186  22.337  0.00  0.00    +0.000 A 
ATOM     17  C   UNL     1      -1.841  14.632  23.606  0.00  0.00    +0.000 A 
ATOM     18  C   UNL     1      -2.621  14.330  24.720  0.00  0.00    +0.000 A 
ATOM     19  C   UNL     1      -3.789  13.589  24.569  0.00  0.00    +0.000 A 
ATOM     20  C   UNL     1      -4.170  13.143  23.302  0.00  0.00    +0.000 A 
ENDBRANCH   5  15
ENDBRANCH   1   2
BRANCH   1  21
ATOM     21  C   UNL     1       0.653  10.528  19.824  0.00  0.00    +0.000 C 
BRANCH  21  26
ATOM     22  C   UNL     1       2.462   7.405  18.985  0.00  0.00    +0.000 A 
ATOM     23  C   UNL     1       2.164   6.557  20.045  0.00  0.00    +0.000 A 
ATOM     24  C   UNL     1       1.340   7.017  21.061  0.00  0.00    +0.000 A 
ATOM     25  C   UNL     1       0.837   8.314  21.000  0.00  0.00    +0.000 A 
ATOM     26  C   UNL     1       1.174   9.111  19.912  0.00  0.00    +0.000 A 
ATOM     27  N   UNL     1       1.983   8.679  18.912  0.00  0.00    +0.000 NA
BRANCH  22  28
ATOM     28  C   UNL     1       3.330   6.918  17.840  0.00  0.00    +0.000 C 
BRANCH  28  29
ATOM     29  N   UNL     1       4.122   5.712  18.144  0.00  0.00    +0.000 NA
ATOM     30  H   UNL     1       5.107   5.982  18.177  0.00  0.00    +0.000 HD
BRANCH  29  31
ATOM     31  C   UNL     1       3.954   4.685  17.104  0.00  0.00    +0.000 C 
BRANCH  31  32
ATOM     32  C   UNL     1       3.947   3.282  17.730  0.00  0.00    +0.000 C 
BRANCH  32  36
ATOM     33  C   UNL     1       1.267   2.936  21.098  0.00  0.00    +0.000 A 
ATOM     34  C   UNL     1       0.759   3.167  19.820  0.00  0.00    +0.000 A 
ATOM     35  C   UNL     1       1.629   3.283  18.733  0.00  0.00    +0.000 A 
ATOM     36  C   UNL     1       3.013   3.172  18.913  0.00  0.00    +0.000 A 
ATOM     37  C   UNL     1       3.510   2.927  20.200  0.00  0.00    +0.000 A 
ATOM     38  C   UNL     1       2.639   2.817  21.290  0.00  0.00    +0.000 A 
ENDBRANCH  32  36
ENDBRANCH  31  32
ENDBRANCH  29  31
ENDBRANCH  28  29
ENDBRANCH  22  28
ENDBRANCH  21  26
ENDBRANCH   1  21
TORSDOF 9
ENDMDL
MODEL 6
REMARK VINA RESULT:      -9.0      1.060      1.553
REMARK  Name = 
REMARK  9 active torsions:
REMARK  status: ('A' for Active; 'I' for Inactive)
REMARK    1  A    between atoms: C_4  and  C_5
REMARK    2  A    between atoms: C_5  and  C_6
REMARK    3  A    between atoms: C_6  and  N_7
REMARK    4  A    between atoms: N_7  and  C_8
REMARK    5  A    between atoms: C_8  and  C_9
REMARK    6  A    between atoms: C_13  and  C_14
REMARK    7  A    between atoms: C_14  and  O_15
REMARK    8  A    between atoms: O_15  and  C_16
REMARK    9  A    between atoms: C_19  and  C_20
REMARK                            x       y       z     vdW  Elec       q    Type
REMARK                         _______ _______ _______ _____ _____    ______ ____
ROOT
ATOM      1  O   UNL     1       4.116   3.464  17.674  0.00  0.00    +0.000 OA
ENDROOT
BRANCH   1   2
ATOM      2  C   UNL     1       5.086   3.912  16.842  0.00  0.00    +0.000 A 
ATOM      3  N   UNL     1       5.075   3.697  15.557  0.00  0.00    +0.000 NA
ATOM      4  N   UNL     1       6.092   4.334  14.880  0.00  0.00    +0.000 N 
ATOM      5  C   UNL     1       6.465   4.227  13.547  0.00  0.00    +0.000 A 
ATOM      6  N   UNL     1       7.555   4.962  13.363  0.00  0.00    +0.000 NA
ATOM      7  N   UNL     1       7.861   5.611  14.532  0.00  0.00    +0.000 NA
ATOM      8  C   UNL     1       6.977   5.242  15.423  0.00  0.00    +0.000 A 
ATOM      9  C   UNL     1       6.912   5.540  16.833  0.00  0.00    +0.000 A 
ATOM     10  C   UNL     1       7.718   6.502  17.438  0.00  0.00    +0.000 A 
ATOM     11  C   UNL     1       7.757   6.587  18.828  0.00  0.00    +0.000 A 
ATOM     12  C   UNL     1       7.014   5.692  19.604  0.00  0.00    +0.000 A 
ATOM     13  C   UNL     1       6.145   4.781  18.996  0.00  0.00    +0.000 A 
ATOM     14  C   UNL     1       6.057   4.743  17.605  0.00  0.00    +0.000 A 
BRANCH   5  15
ATOM     15  C   UNL     1       5.813   3.435  12.500  0.00  0.00    +0.000 A 
ATOM     16  C   UNL     1       6.354   2.249  11.991  0.00  0.00    +0.000 A 
ATOM     17  C   UNL     1       5.675   1.512  11.014  0.00  0.00    +0.000 A 
ATOM     18  C   UNL     1       4.441   1.950  10.540  0.00  0.00    +0.000 A 
ATOM     19  C   UNL     1       3.881   3.120  11.043  0.00  0.00    +0.000 A 
ATOM     20  C   UNL     1       4.562   3.855  12.016  0.00  0.00    +0.000 A 
ENDBRANCH   5  15
ENDBRANCH   1   2
BRANCH   1  21
ATOM     21  C   UNL     1       2.778   3.971  17.511  0.00  0.00    +0.000 C 
BRANCH  21  26
ATOM     22  C   UNL     1       2.408   7.431  18.782  0.00  0.00    +0.000 A 
ATOM     23  C   UNL     1       2.004   7.257  20.101  0.00  0.00    +0.000 A 
ATOM     24  C   UNL     1       1.856   5.968  20.591  0.00  0.00    +0.000 A 
ATOM     25  C   UNL     1       2.108   4.884  19.756  0.00  0.00    +0.000 A 
ATOM     26  C   UNL     1       2.509   5.128  18.446  0.00  0.00    +0.000 A 
ATOM     27  N   UNL     1       2.654   6.381  17.947  0.00  0.00    +0.000 NA
BRANCH  22  28
ATOM     28  C   UNL     1       2.616   8.828  18.227  0.00  0.00    +0.000 C 
BRANCH  28  29
ATOM     29  N   UNL     1       1.511   9.320  17.383  0.00  0.00    +0.000 NA
ATOM     30  H   UNL     1       1.723  10.284  17.117  0.00  0.00    +0.000 HD
BRANCH  29  31
ATOM     31  C   UNL     1       0.234   9.308  18.114  0.00  0.00    +0.000 C 
BRANCH  31  32
ATOM     32  C   UNL     1      -0.295  10.738  18.297  0.00  0.00    +0.000 C 
BRANCH  32  36
ATOM     33  C   UNL     1      -4.442  11.124  17.156  0.00  0.00    +0.000 A 
ATOM     34  C   UNL     1      -3.545  10.457  16.323  0.00  0.00    +0.000 A 
ATOM     35  C   UNL     1      -2.203  10.338  16.692  0.00  0.00    +0.000 A 
ATOM     36  C   UNL     1      -1.744  10.884  17.896  0.00  0.00    +0.000 A 
ATOM     37  C   UNL     1      -2.658  11.541  18.732  0.00  0.00    +0.000 A 
ATOM     38  C   UNL     1      -4.000  11.667  18.359  0.00  0.00    +0.000 A 
ENDBRANCH  32  36
ENDBRANCH  31  32
ENDBRANCH  29  31
ENDBRANCH  28  29
ENDBRANCH  22  28
ENDBRANCH  21  26
ENDBRANCH   1  21
TORSDOF 9
ENDMDL
MODEL 7
REMARK VINA RESULT:      -9.0      1.240      2.097
REMARK  Name = 
REMARK  9 active torsions:
REMARK  status: ('A' for Active; 'I' for Inactive)
REMARK    1  A    between atoms: C_4  and  C_5
REMARK    2  A    between atoms: C_5  and  C_6
REMARK    3  A    between atoms: C_6  and  N_7
REMARK    4  A    between atoms: N_7  and  C_8
REMARK    5  A    between atoms: C_8  and  C_9
REMARK    6  A    between atoms: C_13  and  C_14
REMARK    7  A    between atoms: C_14  and  O_15
REMARK    8  A    between atoms: O_15  and  C_16
REMARK    9  A    between atoms: C_19  and  C_20
REMARK                            x       y       z     vdW  Elec       q    Type
REMARK                         _______ _______ _______ _____ _____    ______ ____
ROOT
ATOM      1  O   UNL     1       4.340   3.448  17.810  0.00  0.00    +0.000 OA
ENDROOT
BRANCH   1   2
ATOM      2  C   UNL     1       5.256   3.925  16.934  0.00  0.00    +0.000 A 
ATOM      3  N   UNL     1       5.192   3.707  15.651  0.00  0.00    +0.000 NA
ATOM      4  N   UNL     1       6.155   4.376  14.927  0.00  0.00    +0.000 N 
ATOM      5  C   UNL     1       6.470   4.278  13.578  0.00  0.00    +0.000 A 
ATOM      6  N   UNL     1       7.525   5.048  13.343  0.00  0.00    +0.000 NA
ATOM      7  N   UNL     1       7.863   5.710  14.496  0.00  0.00    +0.000 NA
ATOM      8  C   UNL     1       7.034   5.315  15.427  0.00  0.00    +0.000 A 
ATOM      9  C   UNL     1       7.024   5.613  16.839  0.00  0.00    +0.000 A 
ATOM     10  C   UNL     1       7.824   6.603  17.405  0.00  0.00    +0.000 A 
ATOM     11  C   UNL     1       7.925   6.693  18.792  0.00  0.00    +0.000 A 
ATOM     12  C   UNL     1       7.248   5.776  19.601  0.00  0.00    +0.000 A 
ATOM     13  C   UNL     1       6.383   4.834  19.036  0.00  0.00    +0.000 A 
ATOM     14  C   UNL     1       6.232   4.790  17.650  0.00  0.00    +0.000 A 
BRANCH   5  15
ATOM     15  C   UNL     1       5.797   3.463  12.563  0.00  0.00    +0.000 A 
ATOM     16  C   UNL     1       4.532   3.773  12.049  0.00  0.00    +0.000 A 
ATOM     17  C   UNL     1       3.947   2.978  11.056  0.00  0.00    +0.000 A 
ATOM     18  C   UNL     1       4.625   1.867  10.560  0.00  0.00    +0.000 A 
ATOM     19  C   UNL     1       5.888   1.550  11.049  0.00  0.00    +0.000 A 
ATOM     20  C   UNL     1       6.469   2.343  12.042  0.00  0.00    +0.000 A 
ENDBRANCH   5  15
ENDBRANCH   1   2
BRANCH   1  21
ATOM     21  C   UNL     1       2.959   3.818  17.637  0.00  0.00    +0.000 C 
BRANCH  21  26
ATOM     22  C   UNL     1       2.195   7.204  18.933  0.00  0.00    +0.000 A 
ATOM     23  C   UNL     1       1.828   6.976  20.255  0.00  0.00    +0.000 A 
ATOM     24  C   UNL     1       1.839   5.676  20.739  0.00  0.00    +0.000 A 
ATOM     25  C   UNL     1       2.209   4.634  19.894  0.00  0.00    +0.000 A 
ATOM     26  C   UNL     1       2.565   4.930  18.582  0.00  0.00    +0.000 A 
ATOM     27  N   UNL     1       2.555   6.195  18.090  0.00  0.00    +0.000 NA
BRANCH  22  28
ATOM     28  C   UNL     1       2.230   8.618  18.385  0.00  0.00    +0.000 C 
BRANCH  28  29
ATOM     29  N   UNL     1       0.927   9.121  17.911  0.00  0.00    +0.000 NA
ATOM     30  H   UNL     1       0.994   9.269  16.902  0.00  0.00    +0.000 HD
BRANCH  29  31
ATOM     31  C   UNL     1       0.584  10.402  18.549  0.00  0.00    +0.000 C 
BRANCH  31  32
ATOM     32  C   UNL     1       1.101  10.438  19.994  0.00  0.00    +0.000 C 
BRANCH  32  36
ATOM     33  C   UNL     1      -1.887  11.701  22.845  0.00  0.00    +0.000 A 
ATOM     34  C   UNL     1      -1.037  10.638  23.146  0.00  0.00    +0.000 A 
ATOM     35  C   UNL     1      -0.074  10.228  22.220  0.00  0.00    +0.000 A 
ATOM     36  C   UNL     1       0.047  10.876  20.985  0.00  0.00    +0.000 A 
ATOM     37  C   UNL     1      -0.805  11.952  20.699  0.00  0.00    +0.000 A 
ATOM     38  C   UNL     1      -1.773  12.357  21.623  0.00  0.00    +0.000 A 
ENDBRANCH  32  36
ENDBRANCH  31  32
ENDBRANCH  29  31
ENDBRANCH  28  29
ENDBRANCH  22  28
ENDBRANCH  21  26
ENDBRANCH   1  21
TORSDOF 9
ENDMDL
MODEL 8
REMARK VINA RESULT:      -8.9      1.061      2.081
REMARK  Name = 
REMARK  9 active torsions:
REMARK  status: ('A' for Active; 'I' for Inactive)
REMARK    1  A    between atoms: C_4  and  C_5
REMARK    2  A    between atoms: C_5  and  C_6
REMARK    3  A    between atoms: C_6  and  N_7
REMARK    4  A    between atoms: N_7  and  C_8
REMARK    5  A    between atoms: C_8  and  C_9
REMARK    6  A    between atoms: C_13  and  C_14
REMARK    7  A    between atoms: C_14  and  O_15
REMARK    8  A    between atoms: O_15  and  C_16
REMARK    9  A    between atoms: C_19  and  C_20
REMARK                            x       y       z     vdW  Elec       q    Type
REMARK                         _______ _______ _______ _____ _____    ______ ____
ROOT
ATOM      1  O   UNL     1       4.173   3.267  17.765  0.00  0.00    +0.000 OA
ENDROOT
BRANCH   1   2
ATOM      2  C   UNL     1       5.114   3.761  16.927  0.00  0.00    +0.000 A 
ATOM      3  N   UNL     1       5.083   3.576  15.637  0.00  0.00    +0.000 NA
ATOM      4  N   UNL     1       6.069   4.257  14.957  0.00  0.00    +0.000 N 
ATOM      5  C   UNL     1       6.419   4.192  13.615  0.00  0.00    +0.000 A 
ATOM      6  N   UNL     1       7.485   4.961  13.428  0.00  0.00    +0.000 NA
ATOM      7  N   UNL     1       7.796   5.590  14.606  0.00  0.00    +0.000 NA
ATOM      8  C   UNL     1       6.940   5.176  15.505  0.00  0.00    +0.000 A 
ATOM      9  C   UNL     1       6.894   5.438  16.923  0.00  0.00    +0.000 A 
ATOM     10  C   UNL     1       7.686   6.407  17.536  0.00  0.00    +0.000 A 
ATOM     11  C   UNL     1       7.750   6.460  18.927  0.00  0.00    +0.000 A 
ATOM     12  C   UNL     1       7.046   5.527  19.694  0.00  0.00    +0.000 A 
ATOM     13  C   UNL     1       6.191   4.607  19.081  0.00  0.00    +0.000 A 
ATOM     14  C   UNL     1       6.076   4.600  17.691  0.00  0.00    +0.000 A 
BRANCH   5  15
ATOM     15  C   UNL     1       5.768   3.408  12.561  0.00  0.00    +0.000 A 
ATOM     16  C   UNL     1       4.521   3.741  12.021  0.00  0.00    +0.000 A 
ATOM     17  C   UNL     1       3.957   2.976  10.993  0.00  0.00    +0.000 A 
ATOM     18  C   UNL     1       4.640   1.873  10.487  0.00  0.00    +0.000 A 
ATOM     19  C   UNL     1       5.888   1.534  11.002  0.00  0.00    +0.000 A 
ATOM     20  C   UNL     1       6.446   2.296  12.030  0.00  0.00    +0.000 A 
ENDBRANCH   5  15
ENDBRANCH   1   2
BRANCH   1  21
ATOM     21  C   UNL     1       2.815   3.730  17.631  0.00  0.00    +0.000 C 
BRANCH  21  26
ATOM     22  C   UNL     1       2.271   7.156  18.931  0.00  0.00    +0.000 A 
ATOM     23  C   UNL     1       1.972   6.956  20.274  0.00  0.00    +0.000 A 
ATOM     24  C   UNL     1       1.957   5.661  20.771  0.00  0.00    +0.000 A 
ATOM     25  C   UNL     1       2.233   4.596  19.918  0.00  0.00    +0.000 A 
ATOM     26  C   UNL     1       2.523   4.866  18.585  0.00  0.00    +0.000 A 
ATOM     27  N   UNL     1       2.538   6.125  18.080  0.00  0.00    +0.000 NA
BRANCH  22  28
ATOM     28  C   UNL     1       2.333   8.563  18.366  0.00  0.00    +0.000 C 
BRANCH  28  29
ATOM     29  N   UNL     1       1.484   9.542  19.070  0.00  0.00    +0.000 NA
ATOM     30  H   UNL     1       0.999   9.053  19.825  0.00  0.00    +0.000 HD
BRANCH  29  31
ATOM     31  C   UNL     1       0.477  10.123  18.168  0.00  0.00    +0.000 C 
BRANCH  31  32
ATOM     32  C   UNL     1      -0.878  10.243  18.881  0.00  0.00    +0.000 C 
BRANCH  32  36
ATOM     33  C   UNL     1      -0.543  10.331  23.185  0.00  0.00    +0.000 A 
ATOM     34  C   UNL     1      -0.728  11.516  22.473  0.00  0.00    +0.000 A 
ATOM     35  C   UNL     1      -0.831  11.485  21.080  0.00  0.00    +0.000 A 
ATOM     36  C   UNL     1      -0.750  10.271  20.386  0.00  0.00    +0.000 A 
ATOM     37  C   UNL     1      -0.577   9.086  21.114  0.00  0.00    +0.000 A 
ATOM     38  C   UNL     1      -0.466   9.118  22.508  0.00  0.00    +0.000 A 
ENDBRANCH  32  36
ENDBRANCH  31  32
ENDBRANCH  29  31
ENDBRANCH  28  29
ENDBRANCH  22  28
ENDBRANCH  21  26
ENDBRANCH   1  21
TORSDOF 9
ENDMDL
MODEL 9
REMARK VINA RESULT:      -8.8      3.778     10.173
REMARK  Name = 
REMARK  9 active torsions:
REMARK  status: ('A' for Active; 'I' for Inactive)
REMARK    1  A    between atoms: C_4  and  C_5
REMARK    2  A    between atoms: C_5  and  C_6
REMARK    3  A    between atoms: C_6  and  N_7
REMARK    4  A    between atoms: N_7  and  C_8
REMARK    5  A    between atoms: C_8  and  C_9
REMARK    6  A    between atoms: C_13  and  C_14
REMARK    7  A    between atoms: C_14  and  O_15
REMARK    8  A    between atoms: O_15  and  C_16
REMARK    9  A    between atoms: C_19  and  C_20
REMARK                            x       y       z     vdW  Elec       q    Type
REMARK                         _______ _______ _______ _____ _____    ______ ____
ROOT
ATOM      1  O   UNL     1       0.599   9.925  18.586  0.00  0.00    +0.000 OA
ENDROOT
BRANCH   1   2
ATOM      2  C   UNL     1       0.703  10.953  19.461  0.00  0.00    +0.000 A 
ATOM      3  N   UNL     1       1.101  12.143  19.114  0.00  0.00    +0.000 NA
ATOM      4  N   UNL     1       1.026  13.071  20.130  0.00  0.00    +0.000 N 
ATOM      5  C   UNL     1       1.483  14.381  20.163  0.00  0.00    +0.000 A 
ATOM      6  N   UNL     1       1.267  14.864  21.380  0.00  0.00    +0.000 NA
ATOM      7  N   UNL     1       0.606  13.921  22.125  0.00  0.00    +0.000 NA
ATOM      8  C   UNL     1       0.455  12.865  21.369  0.00  0.00    +0.000 A 
ATOM      9  C   UNL     1      -0.069  11.562  21.701  0.00  0.00    +0.000 A 
ATOM     10  C   UNL     1      -0.729  11.299  22.899  0.00  0.00    +0.000 A 
ATOM     11  C   UNL     1      -1.017   9.980  23.247  0.00  0.00    +0.000 A 
ATOM     12  C   UNL     1      -0.617   8.934  22.410  0.00  0.00    +0.000 A 
ATOM     13  C   UNL     1      -0.027   9.204  21.172  0.00  0.00    +0.000 A 
ATOM     14  C   UNL     1       0.199  10.528  20.795  0.00  0.00    +0.000 A 
BRANCH   5  15
ATOM     15  C   UNL     1       2.120  15.130  19.076  0.00  0.00    +0.000 A 
ATOM     16  C   UNL     1       1.550  16.271  18.498  0.00  0.00    +0.000 A 
ATOM     17  C   UNL     1       2.215  16.969  17.483  0.00  0.00    +0.000 A 
ATOM     18  C   UNL     1       3.464  16.538  17.040  0.00  0.00    +0.000 A 
ATOM     19  C   UNL     1       4.052  15.414  17.612  0.00  0.00    +0.000 A 
ATOM     20  C   UNL     1       3.385  14.717  18.621  0.00  0.00    +0.000 A 
ENDBRANCH   5  15
ENDBRANCH   1   2
BRANCH   1  21
ATOM     21  C   UNL     1       1.740   9.593  17.772  0.00  0.00    +0.000 C 
BRANCH  21  26
ATOM     22  C   UNL     1       3.926   6.602  17.832  0.00  0.00    +0.000 A 
ATOM     23  C   UNL     1       3.619   5.994  19.044  0.00  0.00    +0.000 A 
ATOM     24  C   UNL     1       2.662   6.575  19.862  0.00  0.00    +0.000 A 
ATOM     25  C   UNL     1       2.038   7.752  19.457  0.00  0.00    +0.000 A 
ATOM     26  C   UNL     1       2.391   8.309  18.233  0.00  0.00    +0.000 A 
ATOM     27  N   UNL     1       3.329   7.757  17.422  0.00  0.00    +0.000 NA
BRANCH  22  28
ATOM     28  C   UNL     1       4.940   5.970  16.897  0.00  0.00    +0.000 C 
BRANCH  28  29
ATOM     29  N   UNL     1       5.146   4.525  17.107  0.00  0.00    +0.000 NA
ATOM     30  H   UNL     1       5.867   4.211  16.454  0.00  0.00    +0.000 HD
BRANCH  29  31
ATOM     31  C   UNL     1       3.914   3.765  16.844  0.00  0.00    +0.000 C 
BRANCH  31  32
ATOM     32  C   UNL     1       3.860   2.507  17.723  0.00  0.00    +0.000 C 
BRANCH  32  36
ATOM     33  C   UNL     1       1.198   2.955  21.093  0.00  0.00    +0.000 A 
ATOM     34  C   UNL     1       2.563   2.767  21.300  0.00  0.00    +0.000 A 
ATOM     35  C   UNL     1       3.422   2.617  20.208  0.00  0.00    +0.000 A 
ATOM     36  C   UNL     1       2.924   2.653  18.900  0.00  0.00    +0.000 A 
ATOM     37  C   UNL     1       1.551   2.856  18.705  0.00  0.00    +0.000 A 
ATOM     38  C   UNL     1       0.690   2.999  19.799  0.00  0.00    +0.000 A 
ENDBRANCH  32  36
ENDBRANCH  31  32
ENDBRANCH  29  31
ENDBRANCH  28  29
ENDBRANCH  22  28
ENDBRANCH  21  26
ENDBRANCH   1  21
TORSDOF 9
ENDMDL
