MODEL 1
REMARK VINA RESULT:      -7.0      0.000      0.000
REMARK  Name = 
REMARK  9 active torsions:
REMARK  status: ('A' for Active; 'I' for Inactive)
REMARK    1  A    between atoms: C_1  and  C_2
REMARK    2  A    between atoms: C_2  and  C_3
REMARK    3  A    between atoms: N_5  and  C_6
REMARK    4  A    between atoms: C_6  and  C_7
REMARK    5  A    between atoms: N_9  and  C_10
REMARK    6  A    between atoms: N_9  and  C_11
REMARK    7  A    between atoms: C_11  and  C_12
REMARK    8  A    between atoms: C_16  and  O_17
REMARK    9  A    between atoms: O_17  and  C_18
REMARK                            x       y       z     vdW  Elec       q    Type
REMARK                         _______ _______ _______ _____ _____    ______ ____
ROOT
ATOM      1  C   UNL     1       6.177   5.472  15.536  0.00  0.00    +0.000 C 
ATOM      2  O   UNL     1       5.189   6.082  15.109  0.00  0.00    +0.000 OA
ATOM      3  N   UNL     1       6.412   5.317  16.898  0.00  0.00    +0.000 N 
ATOM      4  C   UNL     1       7.492   4.520  17.468  0.00  0.00    +0.000 C 
ENDROOT
BRANCH   1   5
ATOM      5  C   UNL     1       7.105   4.770  14.546  0.00  0.00    +0.000 C 
BRANCH   5   8
ATOM      6  C   UNL     1       6.510   3.645  12.437  0.00  0.00    +0.000 C 
ATOM      7  O   UNL     1       7.330   4.290  11.791  0.00  0.00    +0.000 OA
ATOM      8  N   UNL     1       6.369   3.766  13.800  0.00  0.00    +0.000 N 
ATOM      9  H   UNL     1       5.593   3.317  14.265  0.00  0.00    +0.000 HD
BRANCH   6  11
ATOM     10  C   UNL     1       4.221   3.238  11.479  0.00  0.00    +0.000 C 
ATOM     11  C   UNL     1       5.570   2.628  11.825  0.00  0.00    +0.000 C 
ENDBRANCH   6  11
ENDBRANCH   5   8
ENDBRANCH   1   5
BRANCH   3  12
ATOM     12  C   UNL     1       5.607   6.107  17.831  0.00  0.00    +0.000 C 
BRANCH  12  13
ATOM     13  C   UNL     1       4.358   5.366  18.254  0.00  0.00    +0.000 A 
ATOM     14  C   UNL     1       3.116   5.700  17.696  0.00  0.00    +0.000 A 
ATOM     15  C   UNL     1       1.951   5.090  18.155  0.00  0.00    +0.000 A 
ATOM     16  C   UNL     1       2.016   4.151  19.183  0.00  0.00    +0.000 A 
ATOM     17  C   UNL     1       3.245   3.795  19.744  0.00  0.00    +0.000 A 
ATOM     18  C   UNL     1       4.413   4.391  19.264  0.00  0.00    +0.000 A 
BRANCH  17  19
ATOM     19  O   UNL     1       3.170   2.878  20.757  0.00  0.00    +0.000 OA
ATOM     20  C   UNL     1       2.026   2.942  21.598  0.00  0.00    +0.000 C 
ENDBRANCH  17  19
ENDBRANCH  12  13
ENDBRANCH   3  12
TORSDOF 6
ENDMDL
MODEL 2
REMARK VINA RESULT:      -7.0      1.365      1.586
REMARK  Name = 
REMARK  9 active torsions:
REMARK  status: ('A' for Active; 'I' for Inactive)
REMARK    1  A    between atoms: C_1  and  C_2
REMARK    2  A    between atoms: C_2  and  C_3
REMARK    3  A    between atoms: N_5  and  C_6
REMARK    4  A    between atoms: C_6  and  C_7
REMARK    5  A    between atoms: N_9  and  C_10
REMARK    6  A    between atoms: N_9  and  C_11
REMARK    7  A    between atoms: C_11  and  C_12
REMARK    8  A    between atoms: C_16  and  O_17
REMARK    9  A    between atoms: O_17  and  C_18
REMARK                            x       y       z     vdW  Elec       q    Type
REMARK                         _______ _______ _______ _____ _____    ______ ____
ROOT
ATOM      1  C   UNL     1       5.849   5.566  15.619  0.00  0.00    +0.000 C 
ATOM      2  O   UNL     1       5.246   6.324  14.850  0.00  0.00    +0.000 OA
ATOM      3  N   UNL     1       5.530   5.486  16.970  0.00  0.00    +0.000 N 
ATOM      4  C   UNL     1       6.123   4.539  17.908  0.00  0.00    +0.000 C 
ENDROOT
BRANCH   1   5
ATOM      5  C   UNL     1       6.897   4.608  15.054  0.00  0.00    +0.000 C 
BRANCH   5   8
ATOM      6  C   UNL     1       6.477   3.737  12.789  0.00  0.00    +0.000 C 
ATOM      7  O   UNL     1       7.273   4.518  12.275  0.00  0.00    +0.000 OA
ATOM      8  N   UNL     1       6.270   3.665  14.147  0.00  0.00    +0.000 N 
ATOM      9  H   UNL     1       5.510   3.105  14.509  0.00  0.00    +0.000 HD
BRANCH   6  11
ATOM     10  C   UNL     1       4.345   3.368  11.507  0.00  0.00    +0.000 C 
ATOM     11  C   UNL     1       5.641   2.749  12.002  0.00  0.00    +0.000 C 
ENDBRANCH   6  11
ENDBRANCH   5   8
ENDBRANCH   1   5
BRANCH   3  12
ATOM     12  C   UNL     1       4.634   6.499  17.530  0.00  0.00    +0.000 C 
BRANCH  12  13
ATOM     13  C   UNL     1       3.471   5.870  18.263  0.00  0.00    +0.000 A 
ATOM     14  C   UNL     1       3.158   6.272  19.569  0.00  0.00    +0.000 A 
ATOM     15  C   UNL     1       2.152   5.626  20.283  0.00  0.00    +0.000 A 
ATOM     16  C   UNL     1       1.460   4.563  19.704  0.00  0.00    +0.000 A 
ATOM     17  C   UNL     1       1.747   4.156  18.399  0.00  0.00    +0.000 A 
ATOM     18  C   UNL     1       2.739   4.823  17.678  0.00  0.00    +0.000 A 
BRANCH  17  19
ATOM     19  O   UNL     1       1.010   3.091  17.955  0.00  0.00    +0.000 OA
ATOM     20  C   UNL     1       0.759   2.049  18.889  0.00  0.00    +0.000 C 
ENDBRANCH  17  19
ENDBRANCH  12  13
ENDBRANCH   3  12
TORSDOF 6
ENDMDL
MODEL 3
REMARK VINA RESULT:      -6.9      1.450      1.697
REMARK  Name = 
REMARK  9 active torsions:
REMARK  status: ('A' for Active; 'I' for Inactive)
REMARK    1  A    between atoms: C_1  and  C_2
REMARK    2  A    between atoms: C_2  and  C_3
REMARK    3  A    between atoms: N_5  and  C_6
REMARK    4  A    between atoms: C_6  and  C_7
REMARK    5  A    between atoms: N_9  and  C_10
REMARK    6  A    between atoms: N_9  and  C_11
REMARK    7  A    between atoms: C_11  and  C_12
REMARK    8  A    between atoms: C_16  and  O_17
REMARK    9  A    between atoms: O_17  and  C_18
REMARK                            x       y       z     vdW  Elec       q    Type
REMARK                         _______ _______ _______ _____ _____    ______ ____
ROOT
ATOM      1  C   UNL     1       6.996   4.860  16.026  0.00  0.00    +0.000 C 
ATOM      2  O   UNL     1       7.844   4.150  16.580  0.00  0.00    +0.000 OA
ATOM      3  N   UNL     1       6.067   5.598  16.753  0.00  0.00    +0.000 N 
ATOM      4  C   UNL     1       5.115   6.537  16.171  0.00  0.00    +0.000 C 
ENDROOT
BRANCH   1   5
ATOM      5  C   UNL     1       7.038   5.025  14.507  0.00  0.00    +0.000 C 
BRANCH   5   8
ATOM      6  C   UNL     1       6.435   3.689  12.528  0.00  0.00    +0.000 C 
ATOM      7  O   UNL     1       7.263   4.254  11.819  0.00  0.00    +0.000 OA
ATOM      8  N   UNL     1       6.293   3.955  13.870  0.00  0.00    +0.000 N 
ATOM      9  H   UNL     1       5.511   3.566  14.378  0.00  0.00    +0.000 HD
BRANCH   6  11
ATOM     10  C   UNL     1       4.249   3.224  11.376  0.00  0.00    +0.000 C 
ATOM     11  C   UNL     1       5.485   2.623  12.024  0.00  0.00    +0.000 C 
ENDBRANCH   6  11
ENDBRANCH   5   8
ENDBRANCH   1   5
BRANCH   3  12
ATOM     12  C   UNL     1       5.939   5.326  18.186  0.00  0.00    +0.000 C 
BRANCH  12  13
ATOM     13  C   UNL     1       4.511   5.005  18.566  0.00  0.00    +0.000 A 
ATOM     14  C   UNL     1       3.769   5.902  19.347  0.00  0.00    +0.000 A 
ATOM     15  C   UNL     1       2.490   5.565  19.783  0.00  0.00    +0.000 A 
ATOM     16  C   UNL     1       1.947   4.324  19.452  0.00  0.00    +0.000 A 
ATOM     17  C   UNL     1       2.664   3.422  18.664  0.00  0.00    +0.000 A 
ATOM     18  C   UNL     1       3.936   3.773  18.209  0.00  0.00    +0.000 A 
BRANCH  17  19
ATOM     19  O   UNL     1       2.027   2.234  18.428  0.00  0.00    +0.000 OA
ATOM     20  C   UNL     1       0.643   2.171  18.748  0.00  0.00    +0.000 C 
ENDBRANCH  17  19
ENDBRANCH  12  13
ENDBRANCH   3  12
TORSDOF 6
ENDMDL
MODEL 4
REMARK VINA RESULT:      -6.7      1.336      1.601
REMARK  Name = 
REMARK  9 active torsions:
REMARK  status: ('A' for Active; 'I' for Inactive)
REMARK    1  A    between atoms: C_1  and  C_2
REMARK    2  A    between atoms: C_2  and  C_3
REMARK    3  A    between atoms: N_5  and  C_6
REMARK    4  A    between atoms: C_6  and  C_7
REMARK    5  A    between atoms: N_9  and  C_10
REMARK    6  A    between atoms: N_9  and  C_11
REMARK    7  A    between atoms: C_11  and  C_12
REMARK    8  A    between atoms: C_16  and  O_17
REMARK    9  A    between atoms: O_17  and  C_18
REMARK                            x       y       z     vdW  Elec       q    Type
REMARK                         _______ _______ _______ _____ _____    ______ ____
ROOT
ATOM      1  C   UNL     1       6.998   4.813  15.997  0.00  0.00    +0.000 C 
ATOM      2  O   UNL     1       7.791   4.120  16.644  0.00  0.00    +0.000 OA
ATOM      3  N   UNL     1       6.001   5.561  16.615  0.00  0.00    +0.000 N 
ATOM      4  C   UNL     1       5.106   6.482  15.925  0.00  0.00    +0.000 C 
ENDROOT
BRANCH   1   5
ATOM      5  C   UNL     1       7.184   4.945  14.486  0.00  0.00    +0.000 C 
BRANCH   5   8
ATOM      6  C   UNL     1       6.458   3.775  12.444  0.00  0.00    +0.000 C 
ATOM      7  O   UNL     1       7.363   4.261  11.771  0.00  0.00    +0.000 OA
ATOM      8  N   UNL     1       6.325   4.002  13.794  0.00  0.00    +0.000 N 
ATOM      9  H   UNL     1       5.491   3.693  14.274  0.00  0.00    +0.000 HD
BRANCH   6  11
ATOM     10  C   UNL     1       5.982   1.554  11.365  0.00  0.00    +0.000 C 
ATOM     11  C   UNL     1       5.393   2.856  11.883  0.00  0.00    +0.000 C 
ENDBRANCH   6  11
ENDBRANCH   5   8
ENDBRANCH   1   5
BRANCH   3  12
ATOM     12  C   UNL     1       5.738   5.320  18.035  0.00  0.00    +0.000 C 
BRANCH  12  13
ATOM     13  C   UNL     1       4.432   4.586  18.241  0.00  0.00    +0.000 A 
ATOM     14  C   UNL     1       3.853   3.865  17.188  0.00  0.00    +0.000 A 
ATOM     15  C   UNL     1       2.602   3.272  17.344  0.00  0.00    +0.000 A 
ATOM     16  C   UNL     1       1.915   3.405  18.549  0.00  0.00    +0.000 A 
ATOM     17  C   UNL     1       2.480   4.109  19.615  0.00  0.00    +0.000 A 
ATOM     18  C   UNL     1       3.744   4.680  19.463  0.00  0.00    +0.000 A 
BRANCH  17  19
ATOM     19  O   UNL     1       1.695   4.182  20.734  0.00  0.00    +0.000 OA
ATOM     20  C   UNL     1       1.865   3.160  21.708  0.00  0.00    +0.000 C 
ENDBRANCH  17  19
ENDBRANCH  12  13
ENDBRANCH   3  12
TORSDOF 6
ENDMDL
MODEL 5
REMARK VINA RESULT:      -6.7      1.082      1.151
REMARK  Name = 
REMARK  9 active torsions:
REMARK  status: ('A' for Active; 'I' for Inactive)
REMARK    1  A    between atoms: C_1  and  C_2
REMARK    2  A    between atoms: C_2  and  C_3
REMARK    3  A    between atoms: N_5  and  C_6
REMARK    4  A    between atoms: C_6  and  C_7
REMARK    5  A    between atoms: N_9  and  C_10
REMARK    6  A    between atoms: N_9  and  C_11
REMARK    7  A    between atoms: C_11  and  C_12
REMARK    8  A    between atoms: C_16  and  O_17
REMARK    9  A    between atoms: O_17  and  C_18
REMARK                            x       y       z     vdW  Elec       q    Type
REMARK                         _______ _______ _______ _____ _____    ______ ____
ROOT
ATOM      1  C   UNL     1       6.268   5.430  15.486  0.00  0.00    +0.000 C 
ATOM      2  O   UNL     1       5.281   6.075  15.112  0.00  0.00    +0.000 OA
ATOM      3  N   UNL     1       6.588   5.291  16.832  0.00  0.00    +0.000 N 
ATOM      4  C   UNL     1       7.669   4.458  17.347  0.00  0.00    +0.000 C 
ENDROOT
BRANCH   1   5
ATOM      5  C   UNL     1       7.097   4.669  14.452  0.00  0.00    +0.000 C 
BRANCH   5   8
ATOM      6  C   UNL     1       6.429   3.520  12.378  0.00  0.00    +0.000 C 
ATOM      7  O   UNL     1       7.359   4.003  11.739  0.00  0.00    +0.000 OA
ATOM      8  N   UNL     1       6.253   3.738  13.725  0.00  0.00    +0.000 N 
ATOM      9  H   UNL     1       5.401   3.433  14.176  0.00  0.00    +0.000 HD
BRANCH   6  11
ATOM     10  C   UNL     1       4.142   3.388  11.342  0.00  0.00    +0.000 C 
ATOM     11  C   UNL     1       5.375   2.614  11.776  0.00  0.00    +0.000 C 
ENDBRANCH   6  11
ENDBRANCH   5   8
ENDBRANCH   1   5
BRANCH   3  12
ATOM     12  C   UNL     1       5.883   6.133  17.800  0.00  0.00    +0.000 C 
BRANCH  12  13
ATOM     13  C   UNL     1       4.472   5.644  18.038  0.00  0.00    +0.000 A 
ATOM     14  C   UNL     1       3.434   6.560  18.256  0.00  0.00    +0.000 A 
ATOM     15  C   UNL     1       2.154   6.113  18.575  0.00  0.00    +0.000 A 
ATOM     16  C   UNL     1       1.904   4.746  18.693  0.00  0.00    +0.000 A 
ATOM     17  C   UNL     1       2.922   3.816  18.467  0.00  0.00    +0.000 A 
ATOM     18  C   UNL     1       4.197   4.268  18.123  0.00  0.00    +0.000 A 
BRANCH  17  19
ATOM     19  O   UNL     1       2.551   2.509  18.632  0.00  0.00    +0.000 OA
ATOM     20  C   UNL     1       3.587   1.536  18.590  0.00  0.00    +0.000 C 
ENDBRANCH  17  19
ENDBRANCH  12  13
ENDBRANCH   3  12
TORSDOF 6
ENDMDL
MODEL 6
REMARK VINA RESULT:      -6.6      2.569      4.328
REMARK  Name = 
REMARK  9 active torsions:
REMARK  status: ('A' for Active; 'I' for Inactive)
REMARK    1  A    between atoms: C_1  and  C_2
REMARK    2  A    between atoms: C_2  and  C_3
REMARK    3  A    between atoms: N_5  and  C_6
REMARK    4  A    between atoms: C_6  and  C_7
REMARK    5  A    between atoms: N_9  and  C_10
REMARK    6  A    between atoms: N_9  and  C_11
REMARK    7  A    between atoms: C_11  and  C_12
REMARK    8  A    between atoms: C_16  and  O_17
REMARK    9  A    between atoms: O_17  and  C_18
REMARK                            x       y       z     vdW  Elec       q    Type
REMARK                         _______ _______ _______ _____ _____    ______ ____
ROOT
ATOM      1  C   UNL     1       5.897   5.055  16.167  0.00  0.00    +0.000 C 
ATOM      2  O   UNL     1       5.412   5.183  15.036  0.00  0.00    +0.000 OA
ATOM      3  N   UNL     1       5.170   4.511  17.220  0.00  0.00    +0.000 N 
ATOM      4  C   UNL     1       5.711   4.231  18.545  0.00  0.00    +0.000 C 
ENDROOT
BRANCH   1   5
ATOM      5  C   UNL     1       7.369   5.397  16.390  0.00  0.00    +0.000 C 
BRANCH   5   8
ATOM      6  C   UNL     1       7.819   7.390  17.766  0.00  0.00    +0.000 C 
ATOM      7  O   UNL     1       8.063   6.720  18.765  0.00  0.00    +0.000 OA
ATOM      8  N   UNL     1       7.529   6.831  16.542  0.00  0.00    +0.000 N 
ATOM      9  H   UNL     1       7.203   7.419  15.787  0.00  0.00    +0.000 HD
BRANCH   6  11
ATOM     10  C   UNL     1       8.850   9.482  18.706  0.00  0.00    +0.000 C 
ATOM     11  C   UNL     1       7.823   8.905  17.747  0.00  0.00    +0.000 C 
ENDBRANCH   6  11
ENDBRANCH   5   8
ENDBRANCH   1   5
BRANCH   3  12
ATOM     12  C   UNL     1       3.729   4.322  17.039  0.00  0.00    +0.000 C 
BRANCH  12  13
ATOM     13  C   UNL     1       2.946   4.853  18.219  0.00  0.00    +0.000 A 
ATOM     14  C   UNL     1       2.954   6.224  18.512  0.00  0.00    +0.000 A 
ATOM     15  C   UNL     1       2.317   6.704  19.654  0.00  0.00    +0.000 A 
ATOM     16  C   UNL     1       1.678   5.817  20.519  0.00  0.00    +0.000 A 
ATOM     17  C   UNL     1       1.646   4.449  20.237  0.00  0.00    +0.000 A 
ATOM     18  C   UNL     1       2.265   3.975  19.079  0.00  0.00    +0.000 A 
BRANCH  17  19
ATOM     19  O   UNL     1       1.004   3.686  21.174  0.00  0.00    +0.000 OA
ATOM     20  C   UNL     1       1.680   2.519  21.627  0.00  0.00    +0.000 C 
ENDBRANCH  17  19
ENDBRANCH  12  13
ENDBRANCH   3  12
TORSDOF 6
ENDMDL
MODEL 7
REMARK VINA RESULT:      -6.6      1.653      2.258
REMARK  Name = 
REMARK  9 active torsions:
REMARK  status: ('A' for Active; 'I' for Inactive)
REMARK    1  A    between atoms: C_1  and  C_2
REMARK    2  A    between atoms: C_2  and  C_3
REMARK    3  A    between atoms: N_5  and  C_6
REMARK    4  A    between atoms: C_6  and  C_7
REMARK    5  A    between atoms: N_9  and  C_10
REMARK    6  A    between atoms: N_9  and  C_11
REMARK    7  A    between atoms: C_11  and  C_12
REMARK    8  A    between atoms: C_16  and  O_17
REMARK    9  A    between atoms: O_17  and  C_18
REMARK                            x       y       z     vdW  Elec       q    Type
REMARK                         _______ _______ _______ _____ _____    ______ ____
ROOT
ATOM      1  C   UNL     1       6.396   5.055  18.034  0.00  0.00    +0.000 C 
ATOM      2  O   UNL     1       6.669   4.333  19.000  0.00  0.00    +0.000 OA
ATOM      3  N   UNL     1       5.357   5.978  18.077  0.00  0.00    +0.000 N 
ATOM      4  C   UNL     1       5.052   6.934  17.019  0.00  0.00    +0.000 C 
ENDROOT
BRANCH   1   5
ATOM      5  C   UNL     1       7.295   5.018  16.798  0.00  0.00    +0.000 C 
BRANCH   5   8
ATOM      6  C   UNL     1       6.840   4.570  14.420  0.00  0.00    +0.000 C 
ATOM      7  O   UNL     1       7.618   5.441  14.044  0.00  0.00    +0.000 OA
ATOM      8  N   UNL     1       6.659   4.248  15.745  0.00  0.00    +0.000 N 
ATOM      9  H   UNL     1       5.912   3.622  16.012  0.00  0.00    +0.000 HD
BRANCH   6  11
ATOM     10  C   UNL     1       6.631   3.614  12.103  0.00  0.00    +0.000 C 
ATOM     11  C   UNL     1       5.998   3.732  13.480  0.00  0.00    +0.000 C 
ENDBRANCH   6  11
ENDBRANCH   5   8
ENDBRANCH   1   5
BRANCH   3  12
ATOM     12  C   UNL     1       4.418   5.909  19.198  0.00  0.00    +0.000 C 
BRANCH  12  13
ATOM     13  C   UNL     1       3.337   4.879  18.956  0.00  0.00    +0.000 A 
ATOM     14  C   UNL     1       2.947   4.559  17.648  0.00  0.00    +0.000 A 
ATOM     15  C   UNL     1       1.884   3.687  17.424  0.00  0.00    +0.000 A 
ATOM     16  C   UNL     1       1.195   3.139  18.504  0.00  0.00    +0.000 A 
ATOM     17  C   UNL     1       1.576   3.434  19.815  0.00  0.00    +0.000 A 
ATOM     18  C   UNL     1       2.657   4.289  20.035  0.00  0.00    +0.000 A 
BRANCH  17  19
ATOM     19  O   UNL     1       0.807   2.847  20.782  0.00  0.00    +0.000 OA
ATOM     20  C   UNL     1       1.451   2.521  22.007  0.00  0.00    +0.000 C 
ENDBRANCH  17  19
ENDBRANCH  12  13
ENDBRANCH   3  12
TORSDOF 6
ENDMDL
MODEL 8
REMARK VINA RESULT:      -6.4      1.777      2.315
REMARK  Name = 
REMARK  9 active torsions:
REMARK  status: ('A' for Active; 'I' for Inactive)
REMARK    1  A    between atoms: C_1  and  C_2
REMARK    2  A    between atoms: C_2  and  C_3
REMARK    3  A    between atoms: N_5  and  C_6
REMARK    4  A    between atoms: C_6  and  C_7
REMARK    5  A    between atoms: N_9  and  C_10
REMARK    6  A    between atoms: N_9  and  C_11
REMARK    7  A    between atoms: C_11  and  C_12
REMARK    8  A    between atoms: C_16  and  O_17
REMARK    9  A    between atoms: O_17  and  C_18
REMARK                            x       y       z     vdW  Elec       q    Type
REMARK                         _______ _______ _______ _____ _____    ______ ____
ROOT
ATOM      1  C   UNL     1       5.738   6.398  16.612  0.00  0.00    +0.000 C 
ATOM      2  O   UNL     1       5.132   7.020  15.732  0.00  0.00    +0.000 OA
ATOM      3  N   UNL     1       5.184   6.175  17.868  0.00  0.00    +0.000 N 
ATOM      4  C   UNL     1       5.793   5.360  18.912  0.00  0.00    +0.000 C 
ENDROOT
BRANCH   1   5
ATOM      5  C   UNL     1       7.084   5.756  16.280  0.00  0.00    +0.000 C 
BRANCH   5   8
ATOM      6  C   UNL     1       6.546   4.350  14.330  0.00  0.00    +0.000 C 
ATOM      7  O   UNL     1       5.822   3.608  14.988  0.00  0.00    +0.000 OA
ATOM      8  N   UNL     1       7.159   5.462  14.861  0.00  0.00    +0.000 N 
ATOM      9  H   UNL     1       7.850   5.960  14.317  0.00  0.00    +0.000 HD
BRANCH   6  11
ATOM     10  C   UNL     1       5.905   3.132  12.226  0.00  0.00    +0.000 C 
ATOM     11  C   UNL     1       6.842   4.147  12.859  0.00  0.00    +0.000 C 
ENDBRANCH   6  11
ENDBRANCH   5   8
ENDBRANCH   1   5
BRANCH   3  12
ATOM     12  C   UNL     1       3.968   6.909  18.226  0.00  0.00    +0.000 C 
BRANCH  12  13
ATOM     13  C   UNL     1       2.909   5.989  18.789  0.00  0.00    +0.000 A 
ATOM     14  C   UNL     1       2.329   6.259  20.036  0.00  0.00    +0.000 A 
ATOM     15  C   UNL     1       1.427   5.362  20.603  0.00  0.00    +0.000 A 
ATOM     16  C   UNL     1       1.107   4.181  19.935  0.00  0.00    +0.000 A 
ATOM     17  C   UNL     1       1.664   3.899  18.685  0.00  0.00    +0.000 A 
ATOM     18  C   UNL     1       2.548   4.813  18.109  0.00  0.00    +0.000 A 
BRANCH  17  19
ATOM     19  O   UNL     1       1.283   2.701  18.145  0.00  0.00    +0.000 OA
ATOM     20  C   UNL     1       2.322   1.800  17.782  0.00  0.00    +0.000 C 
ENDBRANCH  17  19
ENDBRANCH  12  13
ENDBRANCH   3  12
TORSDOF 6
ENDMDL
MODEL 9
REMARK VINA RESULT:      -6.3      3.017      4.953
REMARK  Name = 
REMARK  9 active torsions:
REMARK  status: ('A' for Active; 'I' for Inactive)
REMARK    1  A    between atoms: C_1  and  C_2
REMARK    2  A    between atoms: C_2  and  C_3
REMARK    3  A    between atoms: N_5  and  C_6
REMARK    4  A    between atoms: C_6  and  C_7
REMARK    5  A    between atoms: N_9  and  C_10
REMARK    6  A    between atoms: N_9  and  C_11
REMARK    7  A    between atoms: C_11  and  C_12
REMARK    8  A    between atoms: C_16  and  O_17
REMARK    9  A    between atoms: O_17  and  C_18
REMARK                            x       y       z     vdW  Elec       q    Type
REMARK                         _______ _______ _______ _____ _____    ______ ____
ROOT
ATOM      1  C   UNL     1       6.262   4.336  17.748  0.00  0.00    +0.000 C 
ATOM      2  O   UNL     1       6.255   4.189  18.975  0.00  0.00    +0.000 OA
ATOM      3  N   UNL     1       5.113   4.174  16.981  0.00  0.00    +0.000 N 
ATOM      4  C   UNL     1       5.025   4.439  15.550  0.00  0.00    +0.000 C 
ENDROOT
BRANCH   1   5
ATOM      5  C   UNL     1       7.539   4.821  17.062  0.00  0.00    +0.000 C 
BRANCH   5   8
ATOM      6  C   UNL     1       7.860   7.115  17.900  0.00  0.00    +0.000 C 
ATOM      7  O   UNL     1       8.344   6.725  18.959  0.00  0.00    +0.000 OA
ATOM      8  N   UNL     1       7.493   6.261  16.886  0.00  0.00    +0.000 N 
ATOM      9  H   UNL     1       6.976   6.617  16.094  0.00  0.00    +0.000 HD
BRANCH   6  11
ATOM     10  C   UNL     1       8.546   9.490  18.358  0.00  0.00    +0.000 C 
ATOM     11  C   UNL     1       7.625   8.574  17.570  0.00  0.00    +0.000 C 
ENDBRANCH   6  11
ENDBRANCH   5   8
ENDBRANCH   1   5
BRANCH   3  12
ATOM     12  C   UNL     1       3.938   3.574  17.617  0.00  0.00    +0.000 C 
BRANCH  12  13
ATOM     13  C   UNL     1       3.301   4.519  18.611  0.00  0.00    +0.000 A 
ATOM     14  C   UNL     1       2.893   4.052  19.868  0.00  0.00    +0.000 A 
ATOM     15  C   UNL     1       2.215   4.894  20.747  0.00  0.00    +0.000 A 
ATOM     16  C   UNL     1       1.928   6.206  20.371  0.00  0.00    +0.000 A 
ATOM     17  C   UNL     1       2.337   6.694  19.129  0.00  0.00    +0.000 A 
ATOM     18  C   UNL     1       3.038   5.855  18.261  0.00  0.00    +0.000 A 
BRANCH  17  19
ATOM     19  O   UNL     1       1.977   7.990  18.875  0.00  0.00    +0.000 OA
ATOM     20  C   UNL     1       2.621   8.635  17.784  0.00  0.00    +0.000 C 
ENDBRANCH  17  19
ENDBRANCH  12  13
ENDBRANCH   3  12
TORSDOF 6
ENDMDL
