MODEL 1
REMARK VINA RESULT:      -7.5      0.000      0.000
REMARK  Name = 
REMARK  8 active torsions:
REMARK  status: ('A' for Active; 'I' for Inactive)
REMARK    1  A    between atoms: C_1  and  O_2
REMARK    2  A    between atoms: O_2  and  C_3
REMARK    3  A    between atoms: C_3  and  C_5
REMARK    4  A    between atoms: C_5  and  C_6
REMARK    5  A    between atoms: C_6  and  N_7
REMARK    6  A    between atoms: C_6  and  C_11
REMARK    7  A    between atoms: C_8  and  C_9
REMARK    8  A    between atoms: C_17  and  C_18
REMARK                            x       y       z     vdW  Elec       q    Type
REMARK                         _______ _______ _______ _____ _____    ______ ____
ROOT
ATOM      1  C   UNL     1       5.295   4.848  17.680  0.00  0.00    +0.000 C 
ENDROOT
BRANCH   1   2
ATOM      2  C   UNL     1       3.968   4.956  18.468  0.00  0.00    +0.000 C 
ATOM      3  O   UNL     1       3.573   6.053  18.876  0.00  0.00    +0.000 OA
ATOM      4  N   UNL     1       3.170   3.836  18.594  0.00  0.00    +0.000 N 
ATOM      5  C   UNL     1       3.533   2.449  18.374  0.00  0.00    +0.000 C 
ATOM      6  C   UNL     1       2.219   1.823  17.953  0.00  0.00    +0.000 C 
ATOM      7  C   UNL     1       1.182   2.542  18.811  0.00  0.00    +0.000 C 
ATOM      8  C   UNL     1       1.784   3.932  19.110  0.00  0.00    +0.000 C 
BRANCH   8   9
ATOM      9  C   UNL     1       1.617   4.350  20.595  0.00  0.00    +0.000 C 
ATOM     10  F   UNL     1       1.109   5.594  20.734  0.00  0.00    +0.000 F 
ATOM     11  F   UNL     1       0.805   3.492  21.254  0.00  0.00    +0.000 F 
ATOM     12  F   UNL     1       2.800   4.341  21.260  0.00  0.00    +0.000 F 
ENDBRANCH   8   9
ENDBRANCH   1   2
BRANCH   1  13
ATOM     13  N   UNL     1       6.126   6.027  17.899  0.00  0.00    +0.000 N 
ATOM     14  C   UNL     1       7.408   5.896  18.383  0.00  0.00    +0.000 C 
ATOM     15  C   UNL     1       8.150   7.198  18.506  0.00  0.00    +0.000 C 
ATOM     16  O   UNL     1       7.913   4.816  18.669  0.00  0.00    +0.000 OA
ATOM     17  H   UNL     1       5.675   6.934  17.956  0.00  0.00    +0.000 HD
ENDBRANCH   1  13
BRANCH   1  18
ATOM     18  C   UNL     1       4.931   4.707  16.203  0.00  0.00    +0.000 C 
BRANCH  18  19
ATOM     19  C   UNL     1       5.528   5.815  15.378  0.00  0.00    +0.000 C 
ATOM     20  O   UNL     1       5.045   6.935  15.299  0.00  0.00    +0.000 OA
BRANCH  19  22
ATOM     21  C   UNL     1       6.523   4.100  14.080  0.00  0.00    +0.000 C 
ATOM     22  O   UNL     1       6.633   5.378  14.715  0.00  0.00    +0.000 OA
ENDBRANCH  19  22
ENDBRANCH  18  19
ENDBRANCH   1  18
TORSDOF 6
ENDMDL
MODEL 2
REMARK VINA RESULT:      -7.4      1.356      1.775
REMARK  Name = 
REMARK  8 active torsions:
REMARK  status: ('A' for Active; 'I' for Inactive)
REMARK    1  A    between atoms: C_1  and  O_2
REMARK    2  A    between atoms: O_2  and  C_3
REMARK    3  A    between atoms: C_3  and  C_5
REMARK    4  A    between atoms: C_5  and  C_6
REMARK    5  A    between atoms: C_6  and  N_7
REMARK    6  A    between atoms: C_6  and  C_11
REMARK    7  A    between atoms: C_8  and  C_9
REMARK    8  A    between atoms: C_17  and  C_18
REMARK                            x       y       z     vdW  Elec       q    Type
REMARK                         _______ _______ _______ _____ _____    ______ ____
ROOT
ATOM      1  C   UNL     1       5.733   5.813  16.821  0.00  0.00    +0.000 C 
ENDROOT
BRANCH   1   2
ATOM      2  C   UNL     1       4.391   5.907  17.585  0.00  0.00    +0.000 C 
ATOM      3  O   UNL     1       3.915   7.009  17.875  0.00  0.00    +0.000 OA
ATOM      4  N   UNL     1       3.671   4.753  17.820  0.00  0.00    +0.000 N 
ATOM      5  C   UNL     1       4.132   3.379  17.746  0.00  0.00    +0.000 C 
ATOM      6  C   UNL     1       2.870   2.623  17.383  0.00  0.00    +0.000 C 
ATOM      7  C   UNL     1       1.774   3.352  18.156  0.00  0.00    +0.000 C 
ATOM      8  C   UNL     1       2.274   4.803  18.313  0.00  0.00    +0.000 C 
BRANCH   8   9
ATOM      9  C   UNL     1       2.058   5.358  19.746  0.00  0.00    +0.000 C 
ATOM     10  F   UNL     1       3.119   5.148  20.556  0.00  0.00    +0.000 F 
ATOM     11  F   UNL     1       1.811   6.689  19.721  0.00  0.00    +0.000 F 
ATOM     12  F   UNL     1       0.990   4.786  20.356  0.00  0.00    +0.000 F 
ENDBRANCH   8   9
ENDBRANCH   1   2
BRANCH   1  13
ATOM     13  N   UNL     1       6.466   7.071  16.902  0.00  0.00    +0.000 N 
ATOM     14  C   UNL     1       7.493   7.224  17.805  0.00  0.00    +0.000 C 
ATOM     15  C   UNL     1       8.179   8.560  17.731  0.00  0.00    +0.000 C 
ATOM     16  O   UNL     1       7.838   6.345  18.588  0.00  0.00    +0.000 OA
ATOM     17  H   UNL     1       6.048   7.903  16.497  0.00  0.00    +0.000 HD
ENDBRANCH   1  13
BRANCH   1  18
ATOM     18  C   UNL     1       5.402   5.469  15.370  0.00  0.00    +0.000 C 
BRANCH  18  19
ATOM     19  C   UNL     1       6.582   4.861  14.662  0.00  0.00    +0.000 C 
ATOM     20  O   UNL     1       7.660   5.425  14.540  0.00  0.00    +0.000 OA
BRANCH  19  22
ATOM     21  C   UNL     1       6.071   3.578  12.737  0.00  0.00    +0.000 C 
ATOM     22  O   UNL     1       6.262   3.640  14.154  0.00  0.00    +0.000 OA
ENDBRANCH  19  22
ENDBRANCH  18  19
ENDBRANCH   1  18
TORSDOF 6
ENDMDL
MODEL 3
REMARK VINA RESULT:      -7.3      0.878      1.226
REMARK  Name = 
REMARK  8 active torsions:
REMARK  status: ('A' for Active; 'I' for Inactive)
REMARK    1  A    between atoms: C_1  and  O_2
REMARK    2  A    between atoms: O_2  and  C_3
REMARK    3  A    between atoms: C_3  and  C_5
REMARK    4  A    between atoms: C_5  and  C_6
REMARK    5  A    between atoms: C_6  and  N_7
REMARK    6  A    between atoms: C_6  and  C_11
REMARK    7  A    between atoms: C_8  and  C_9
REMARK    8  A    between atoms: C_17  and  C_18
REMARK                            x       y       z     vdW  Elec       q    Type
REMARK                         _______ _______ _______ _____ _____    ______ ____
ROOT
ATOM      1  C   UNL     1       5.506   5.235  17.364  0.00  0.00    +0.000 C 
ENDROOT
BRANCH   1   2
ATOM      2  C   UNL     1       4.149   5.347  18.100  0.00  0.00    +0.000 C 
ATOM      3  O   UNL     1       3.715   6.452  18.440  0.00  0.00    +0.000 OA
ATOM      4  N   UNL     1       3.374   4.215  18.253  0.00  0.00    +0.000 N 
ATOM      5  C   UNL     1       3.777   2.828  18.114  0.00  0.00    +0.000 C 
ATOM      6  C   UNL     1       2.493   2.150  17.680  0.00  0.00    +0.000 C 
ATOM      7  C   UNL     1       1.410   2.884  18.466  0.00  0.00    +0.000 C 
ATOM      8  C   UNL     1       1.969   4.301  18.716  0.00  0.00    +0.000 C 
BRANCH   8   9
ATOM      9  C   UNL     1       1.740   4.786  20.172  0.00  0.00    +0.000 C 
ATOM     10  F   UNL     1       0.665   4.210  20.754  0.00  0.00    +0.000 F 
ATOM     11  F   UNL     1       2.820   4.530  20.947  0.00  0.00    +0.000 F 
ATOM     12  F   UNL     1       1.538   6.126  20.235  0.00  0.00    +0.000 F 
ENDBRANCH   8   9
ENDBRANCH   1   2
BRANCH   1  13
ATOM     13  N   UNL     1       6.358   6.378  17.669  0.00  0.00    +0.000 N 
ATOM     14  C   UNL     1       7.510   6.213  18.404  0.00  0.00    +0.000 C 
ATOM     15  C   UNL     1       8.303   7.477  18.591  0.00  0.00    +0.000 C 
ATOM     16  O   UNL     1       7.874   5.130  18.851  0.00  0.00    +0.000 OA
ATOM     17  H   UNL     1       5.969   7.311  17.580  0.00  0.00    +0.000 HD
ENDBRANCH   1  13
BRANCH   1  18
ATOM     18  C   UNL     1       5.201   5.169  15.868  0.00  0.00    +0.000 C 
BRANCH  18  19
ATOM     19  C   UNL     1       6.420   4.791  15.071  0.00  0.00    +0.000 C 
ATOM     20  O   UNL     1       7.419   5.492  14.992  0.00  0.00    +0.000 OA
BRANCH  19  22
ATOM     21  C   UNL     1       6.162   3.659  13.006  0.00  0.00    +0.000 C 
ATOM     22  O   UNL     1       6.231   3.603  14.435  0.00  0.00    +0.000 OA
ENDBRANCH  19  22
ENDBRANCH  18  19
ENDBRANCH   1  18
TORSDOF 6
ENDMDL
MODEL 4
REMARK VINA RESULT:      -7.3      0.925      2.898
REMARK  Name = 
REMARK  8 active torsions:
REMARK  status: ('A' for Active; 'I' for Inactive)
REMARK    1  A    between atoms: C_1  and  O_2
REMARK    2  A    between atoms: O_2  and  C_3
REMARK    3  A    between atoms: C_3  and  C_5
REMARK    4  A    between atoms: C_5  and  C_6
REMARK    5  A    between atoms: C_6  and  N_7
REMARK    6  A    between atoms: C_6  and  C_11
REMARK    7  A    between atoms: C_8  and  C_9
REMARK    8  A    between atoms: C_17  and  C_18
REMARK                            x       y       z     vdW  Elec       q    Type
REMARK                         _______ _______ _______ _____ _____    ______ ____
ROOT
ATOM      1  C   UNL     1       5.042   5.632  18.098  0.00  0.00    +0.000 C 
ENDROOT
BRANCH   1   2
ATOM      2  C   UNL     1       3.688   5.285  18.764  0.00  0.00    +0.000 C 
ATOM      3  O   UNL     1       2.886   6.180  19.048  0.00  0.00    +0.000 OA
ATOM      4  N   UNL     1       3.336   3.959  18.914  0.00  0.00    +0.000 N 
ATOM      5  C   UNL     1       4.192   2.790  18.838  0.00  0.00    +0.000 C 
ATOM      6  C   UNL     1       3.242   1.710  18.363  0.00  0.00    +0.000 C 
ATOM      7  C   UNL     1       1.932   2.041  19.073  0.00  0.00    +0.000 C 
ATOM      8  C   UNL     1       1.962   3.567  19.305  0.00  0.00    +0.000 C 
BRANCH   8   9
ATOM      9  C   UNL     1       1.500   3.963  20.733  0.00  0.00    +0.000 C 
ATOM     10  F   UNL     1       2.527   4.320  21.535  0.00  0.00    +0.000 F 
ATOM     11  F   UNL     1       0.625   4.995  20.693  0.00  0.00    +0.000 F 
ATOM     12  F   UNL     1       0.858   2.946  21.359  0.00  0.00    +0.000 F 
ENDBRANCH   8   9
ENDBRANCH   1   2
BRANCH   1  13
ATOM     13  N   UNL     1       5.252   4.828  16.900  0.00  0.00    +0.000 N 
ATOM     14  C   UNL     1       5.367   5.429  15.667  0.00  0.00    +0.000 C 
ATOM     15  C   UNL     1       5.629   4.469  14.540  0.00  0.00    +0.000 C 
ATOM     16  O   UNL     1       5.285   6.641  15.499  0.00  0.00    +0.000 OA
ATOM     17  H   UNL     1       5.041   3.836  16.938  0.00  0.00    +0.000 HD
ENDBRANCH   1  13
BRANCH   1  18
ATOM     18  C   UNL     1       6.134   5.362  19.132  0.00  0.00    +0.000 C 
BRANCH  18  19
ATOM     19  C   UNL     1       7.506   5.436  18.519  0.00  0.00    +0.000 C 
ATOM     20  O   UNL     1       8.037   4.500  17.937  0.00  0.00    +0.000 OA
BRANCH  19  22
ATOM     21  C   UNL     1       7.820   7.654  17.748  0.00  0.00    +0.000 C 
ATOM     22  O   UNL     1       8.069   6.654  18.742  0.00  0.00    +0.000 OA
ENDBRANCH  19  22
ENDBRANCH  18  19
ENDBRANCH   1  18
TORSDOF 6
ENDMDL
MODEL 5
REMARK VINA RESULT:      -7.3      1.676      3.480
REMARK  Name = 
REMARK  8 active torsions:
REMARK  status: ('A' for Active; 'I' for Inactive)
REMARK    1  A    between atoms: C_1  and  O_2
REMARK    2  A    between atoms: O_2  and  C_3
REMARK    3  A    between atoms: C_3  and  C_5
REMARK    4  A    between atoms: C_5  and  C_6
REMARK    5  A    between atoms: C_6  and  N_7
REMARK    6  A    between atoms: C_6  and  C_11
REMARK    7  A    between atoms: C_8  and  C_9
REMARK    8  A    between atoms: C_17  and  C_18
REMARK                            x       y       z     vdW  Elec       q    Type
REMARK                         _______ _______ _______ _____ _____    ______ ____
ROOT
ATOM      1  C   UNL     1       5.004   5.142  17.476  0.00  0.00    +0.000 C 
ENDROOT
BRANCH   1   2
ATOM      2  C   UNL     1       4.026   4.178  18.190  0.00  0.00    +0.000 C 
ATOM      3  O   UNL     1       4.225   2.959  18.166  0.00  0.00    +0.000 OA
ATOM      4  N   UNL     1       3.009   4.704  18.961  0.00  0.00    +0.000 N 
ATOM      5  C   UNL     1       2.492   6.059  18.957  0.00  0.00    +0.000 C 
ATOM      6  C   UNL     1       1.986   6.228  20.376  0.00  0.00    +0.000 C 
ATOM      7  C   UNL     1       1.412   4.856  20.722  0.00  0.00    +0.000 C 
ATOM      8  C   UNL     1       2.206   3.847  19.865  0.00  0.00    +0.000 C 
BRANCH   8   9
ATOM      9  C   UNL     1       1.295   2.784  19.195  0.00  0.00    +0.000 C 
ATOM     10  F   UNL     1       1.087   3.025  17.882  0.00  0.00    +0.000 F 
ATOM     11  F   UNL     1       1.825   1.545  19.313  0.00  0.00    +0.000 F 
ATOM     12  F   UNL     1       0.069   2.730  19.775  0.00  0.00    +0.000 F 
ENDBRANCH   8   9
ENDBRANCH   1   2
BRANCH   1  13
ATOM     13  N   UNL     1       5.613   4.500  16.318  0.00  0.00    +0.000 N 
ATOM     14  C   UNL     1       5.723   5.174  15.123  0.00  0.00    +0.000 C 
ATOM     15  C   UNL     1       6.418   4.394  14.042  0.00  0.00    +0.000 C 
ATOM     16  O   UNL     1       5.313   6.318  14.955  0.00  0.00    +0.000 OA
ATOM     17  H   UNL     1       5.701   3.489  16.314  0.00  0.00    +0.000 HD
ENDBRANCH   1  13
BRANCH   1  18
ATOM     18  C   UNL     1       6.067   5.542  18.498  0.00  0.00    +0.000 C 
BRANCH  18  19
ATOM     19  C   UNL     1       7.457   5.330  17.961  0.00  0.00    +0.000 C 
ATOM     20  O   UNL     1       8.135   4.345  18.214  0.00  0.00    +0.000 OA
BRANCH  19  22
ATOM     21  C   UNL     1       7.737   7.679  17.827  0.00  0.00    +0.000 C 
ATOM     22  O   UNL     1       7.849   6.393  17.208  0.00  0.00    +0.000 OA
ENDBRANCH  19  22
ENDBRANCH  18  19
ENDBRANCH   1  18
TORSDOF 6
ENDMDL
MODEL 6
REMARK VINA RESULT:      -7.2      1.817      3.631
REMARK  Name = 
REMARK  8 active torsions:
REMARK  status: ('A' for Active; 'I' for Inactive)
REMARK    1  A    between atoms: C_1  and  O_2
REMARK    2  A    between atoms: O_2  and  C_3
REMARK    3  A    between atoms: C_3  and  C_5
REMARK    4  A    between atoms: C_5  and  C_6
REMARK    5  A    between atoms: C_6  and  N_7
REMARK    6  A    between atoms: C_6  and  C_11
REMARK    7  A    between atoms: C_8  and  C_9
REMARK    8  A    between atoms: C_17  and  C_18
REMARK                            x       y       z     vdW  Elec       q    Type
REMARK                         _______ _______ _______ _____ _____    ______ ____
ROOT
ATOM      1  C   UNL     1       5.352   4.555  17.153  0.00  0.00    +0.000 C 
ENDROOT
BRANCH   1   2
ATOM      2  C   UNL     1       4.282   3.880  18.045  0.00  0.00    +0.000 C 
ATOM      3  O   UNL     1       4.335   2.667  18.270  0.00  0.00    +0.000 OA
ATOM      4  N   UNL     1       3.351   4.669  18.690  0.00  0.00    +0.000 N 
ATOM      5  C   UNL     1       2.998   6.048  18.409  0.00  0.00    +0.000 C 
ATOM      6  C   UNL     1       2.546   6.559  19.762  0.00  0.00    +0.000 C 
ATOM      7  C   UNL     1       1.821   5.365  20.377  0.00  0.00    +0.000 C 
ATOM      8  C   UNL     1       2.471   4.116  19.746  0.00  0.00    +0.000 C 
BRANCH   8   9
ATOM      9  C   UNL     1       1.427   3.057  19.303  0.00  0.00    +0.000 C 
ATOM     10  F   UNL     1       1.842   1.789  19.517  0.00  0.00    +0.000 F 
ATOM     11  F   UNL     1       0.254   3.227  19.956  0.00  0.00    +0.000 F 
ATOM     12  F   UNL     1       1.141   3.149  17.980  0.00  0.00    +0.000 F 
ENDBRANCH   8   9
ENDBRANCH   1   2
BRANCH   1  13
ATOM     13  N   UNL     1       5.417   3.914  15.845  0.00  0.00    +0.000 N 
ATOM     14  C   UNL     1       5.906   4.599  14.757  0.00  0.00    +0.000 C 
ATOM     15  C   UNL     1       5.954   3.785  13.493  0.00  0.00    +0.000 C 
ATOM     16  O   UNL     1       6.290   5.763  14.810  0.00  0.00    +0.000 OA
ATOM     17  H   UNL     1       4.860   3.082  15.685  0.00  0.00    +0.000 HD
ENDBRANCH   1  13
BRANCH   1  18
ATOM     18  C   UNL     1       6.687   4.436  17.885  0.00  0.00    +0.000 C 
BRANCH  18  19
ATOM     19  C   UNL     1       6.918   5.601  18.809  0.00  0.00    +0.000 C 
ATOM     20  O   UNL     1       7.318   5.483  19.959  0.00  0.00    +0.000 OA
BRANCH  19  22
ATOM     21  C   UNL     1       7.657   7.498  17.597  0.00  0.00    +0.000 C 
ATOM     22  O   UNL     1       6.582   6.772  18.201  0.00  0.00    +0.000 OA
ENDBRANCH  19  22
ENDBRANCH  18  19
ENDBRANCH   1  18
TORSDOF 6
ENDMDL
MODEL 7
REMARK VINA RESULT:      -7.1      1.837      3.607
REMARK  Name = 
REMARK  8 active torsions:
REMARK  status: ('A' for Active; 'I' for Inactive)
REMARK    1  A    between atoms: C_1  and  O_2
REMARK    2  A    between atoms: O_2  and  C_3
REMARK    3  A    between atoms: C_3  and  C_5
REMARK    4  A    between atoms: C_5  and  C_6
REMARK    5  A    between atoms: C_6  and  N_7
REMARK    6  A    between atoms: C_6  and  C_11
REMARK    7  A    between atoms: C_8  and  C_9
REMARK    8  A    between atoms: C_17  and  C_18
REMARK                            x       y       z     vdW  Elec       q    Type
REMARK                         _______ _______ _______ _____ _____    ______ ____
ROOT
ATOM      1  C   UNL     1       5.852   5.501  17.767  0.00  0.00    +0.000 C 
ENDROOT
BRANCH   1   2
ATOM      2  C   UNL     1       4.963   4.761  18.795  0.00  0.00    +0.000 C 
ATOM      3  O   UNL     1       5.381   3.749  19.367  0.00  0.00    +0.000 OA
ATOM      4  N   UNL     1       3.754   5.319  19.160  0.00  0.00    +0.000 N 
ATOM      5  C   UNL     1       3.007   6.361  18.480  0.00  0.00    +0.000 C 
ATOM      6  C   UNL     1       2.253   7.025  19.614  0.00  0.00    +0.000 C 
ATOM      7  C   UNL     1       1.889   5.865  20.537  0.00  0.00    +0.000 C 
ATOM      8  C   UNL     1       2.982   4.799  20.313  0.00  0.00    +0.000 C 
BRANCH   8   9
ATOM      9  C   UNL     1       2.403   3.366  20.179  0.00  0.00    +0.000 C 
ATOM     10  F   UNL     1       1.157   3.255  20.689  0.00  0.00    +0.000 F 
ATOM     11  F   UNL     1       2.358   2.978  18.883  0.00  0.00    +0.000 F 
ATOM     12  F   UNL     1       3.166   2.448  20.823  0.00  0.00    +0.000 F 
ENDBRANCH   8   9
ENDBRANCH   1   2
BRANCH   1  13
ATOM     13  N   UNL     1       6.163   4.638  16.633  0.00  0.00    +0.000 N 
ATOM     14  C   UNL     1       5.827   5.019  15.354  0.00  0.00    +0.000 C 
ATOM     15  C   UNL     1       6.258   4.044  14.293  0.00  0.00    +0.000 C 
ATOM     16  O   UNL     1       5.247   6.068  15.094  0.00  0.00    +0.000 OA
ATOM     17  H   UNL     1       6.370   3.660  16.810  0.00  0.00    +0.000 HD
ENDBRANCH   1  13
BRANCH   1  18
ATOM     18  C   UNL     1       7.128   5.920  18.496  0.00  0.00    +0.000 C 
BRANCH  18  19
ATOM     19  C   UNL     1       7.809   7.068  17.802  0.00  0.00    +0.000 C 
ATOM     20  O   UNL     1       7.834   7.204  16.587  0.00  0.00    +0.000 OA
BRANCH  19  22
ATOM     21  C   UNL     1       8.502   9.268  18.343  0.00  0.00    +0.000 C 
ATOM     22  O   UNL     1       8.415   7.886  18.705  0.00  0.00    +0.000 OA
ENDBRANCH  19  22
ENDBRANCH  18  19
ENDBRANCH   1  18
TORSDOF 6
ENDMDL
MODEL 8
REMARK VINA RESULT:      -7.0      0.647      1.099
REMARK  Name = 
REMARK  8 active torsions:
REMARK  status: ('A' for Active; 'I' for Inactive)
REMARK    1  A    between atoms: C_1  and  O_2
REMARK    2  A    between atoms: O_2  and  C_3
REMARK    3  A    between atoms: C_3  and  C_5
REMARK    4  A    between atoms: C_5  and  C_6
REMARK    5  A    between atoms: C_6  and  N_7
REMARK    6  A    between atoms: C_6  and  C_11
REMARK    7  A    between atoms: C_8  and  C_9
REMARK    8  A    between atoms: C_17  and  C_18
REMARK                            x       y       z     vdW  Elec       q    Type
REMARK                         _______ _______ _______ _____ _____    ______ ____
ROOT
ATOM      1  C   UNL     1       5.221   5.180  17.562  0.00  0.00    +0.000 C 
ENDROOT
BRANCH   1   2
ATOM      2  C   UNL     1       3.910   5.185  18.384  0.00  0.00    +0.000 C 
ATOM      3  O   UNL     1       3.466   6.242  18.841  0.00  0.00    +0.000 OA
ATOM      4  N   UNL     1       3.177   4.019  18.484  0.00  0.00    +0.000 N 
ATOM      5  C   UNL     1       3.610   2.663  18.203  0.00  0.00    +0.000 C 
ATOM      6  C   UNL     1       2.322   1.981  17.788  0.00  0.00    +0.000 C 
ATOM      7  C   UNL     1       1.269   2.610  18.696  0.00  0.00    +0.000 C 
ATOM      8  C   UNL     1       1.802   4.019  19.034  0.00  0.00    +0.000 C 
BRANCH   8   9
ATOM      9  C   UNL     1       1.648   4.372  20.537  0.00  0.00    +0.000 C 
ATOM     10  F   UNL     1       2.830   4.401  21.192  0.00  0.00    +0.000 F 
ATOM     11  F   UNL     1       1.054   5.578  20.696  0.00  0.00    +0.000 F 
ATOM     12  F   UNL     1       0.868   3.476  21.191  0.00  0.00    +0.000 F 
ENDBRANCH   8   9
ENDBRANCH   1   2
BRANCH   1  13
ATOM     13  N   UNL     1       6.163   6.165  18.082  0.00  0.00    +0.000 N 
ATOM     14  C   UNL     1       7.436   5.789  18.444  0.00  0.00    +0.000 C 
ATOM     15  C   UNL     1       8.299   6.928  18.914  0.00  0.00    +0.000 C 
ATOM     16  O   UNL     1       7.844   4.635  18.373  0.00  0.00    +0.000 OA
ATOM     17  H   UNL     1       5.800   7.048  18.427  0.00  0.00    +0.000 HD
ENDBRANCH   1  13
BRANCH   1  18
ATOM     18  C   UNL     1       4.847   5.496  16.115  0.00  0.00    +0.000 C 
BRANCH  18  19
ATOM     19  C   UNL     1       5.939   5.095  15.161  0.00  0.00    +0.000 C 
ATOM     20  O   UNL     1       6.970   5.734  15.006  0.00  0.00    +0.000 OA
BRANCH  19  22
ATOM     21  C   UNL     1       6.266   3.751  13.237  0.00  0.00    +0.000 C 
ATOM     22  O   UNL     1       5.595   3.966  14.483  0.00  0.00    +0.000 OA
ENDBRANCH  19  22
ENDBRANCH  18  19
ENDBRANCH   1  18
TORSDOF 6
ENDMDL
MODEL 9
REMARK VINA RESULT:      -7.0      1.506      2.191
REMARK  Name = 
REMARK  8 active torsions:
REMARK  status: ('A' for Active; 'I' for Inactive)
REMARK    1  A    between atoms: C_1  and  O_2
REMARK    2  A    between atoms: O_2  and  C_3
REMARK    3  A    between atoms: C_3  and  C_5
REMARK    4  A    between atoms: C_5  and  C_6
REMARK    5  A    between atoms: C_6  and  N_7
REMARK    6  A    between atoms: C_6  and  C_11
REMARK    7  A    between atoms: C_8  and  C_9
REMARK    8  A    between atoms: C_17  and  C_18
REMARK                            x       y       z     vdW  Elec       q    Type
REMARK                         _______ _______ _______ _____ _____    ______ ____
ROOT
ATOM      1  C   UNL     1       5.391   4.053  17.357  0.00  0.00    +0.000 C 
ENDROOT
BRANCH   1   2
ATOM      2  C   UNL     1       4.248   3.556  18.275  0.00  0.00    +0.000 C 
ATOM      3  O   UNL     1       4.198   2.372  18.621  0.00  0.00    +0.000 OA
ATOM      4  N   UNL     1       3.366   4.476  18.805  0.00  0.00    +0.000 N 
ATOM      5  C   UNL     1       3.132   5.842  18.377  0.00  0.00    +0.000 C 
ATOM      6  C   UNL     1       2.686   6.521  19.656  0.00  0.00    +0.000 C 
ATOM      7  C   UNL     1       1.853   5.455  20.363  0.00  0.00    +0.000 C 
ATOM      8  C   UNL     1       2.418   4.102  19.881  0.00  0.00    +0.000 C 
BRANCH   8   9
ATOM      9  C   UNL     1       1.305   3.086  19.511  0.00  0.00    +0.000 C 
ATOM     10  F   UNL     1       1.032   3.067  18.188  0.00  0.00    +0.000 F 
ATOM     11  F   UNL     1       1.647   1.831  19.885  0.00  0.00    +0.000 F 
ATOM     12  F   UNL     1       0.136   3.364  20.141  0.00  0.00    +0.000 F 
ENDBRANCH   8   9
ENDBRANCH   1   2
BRANCH   1  13
ATOM     13  N   UNL     1       6.093   5.177  17.964  0.00  0.00    +0.000 N 
ATOM     14  C   UNL     1       7.461   5.149  18.110  0.00  0.00    +0.000 C 
ATOM     15  C   UNL     1       8.038   6.402  18.708  0.00  0.00    +0.000 C 
ATOM     16  O   UNL     1       8.156   4.199  17.764  0.00  0.00    +0.000 OA
ATOM     17  H   UNL     1       5.559   5.841  18.517  0.00  0.00    +0.000 HD
ENDBRANCH   1  13
BRANCH   1  18
ATOM     18  C   UNL     1       4.755   4.463  16.029  0.00  0.00    +0.000 C 
BRANCH  18  19
ATOM     19  C   UNL     1       5.533   5.563  15.360  0.00  0.00    +0.000 C 
ATOM     20  O   UNL     1       5.207   6.741  15.397  0.00  0.00    +0.000 OA
BRANCH  19  22
ATOM     21  C   UNL     1       6.316   4.022  13.739  0.00  0.00    +0.000 C 
ATOM     22  O   UNL     1       6.602   5.056  14.687  0.00  0.00    +0.000 OA
ENDBRANCH  19  22
ENDBRANCH  18  19
ENDBRANCH   1  18
TORSDOF 6
ENDMDL
