MODEL 1
REMARK VINA RESULT:      -6.8      0.000      0.000
REMARK  Name = 
REMARK  3 active torsions:
REMARK  status: ('A' for Active; 'I' for Inactive)
REMARK    1  A    between atoms: C_1  and  C_2
REMARK    2  A    between atoms: C_5  and  C_6
REMARK    3  A    between atoms: C_11  and  C_13
REMARK                            x       y       z     vdW  Elec       q    Type
REMARK                         _______ _______ _______ _____ _____    ______ ____
ROOT
ATOM      1  C   UNL     1       2.286   8.132  19.041  0.00  0.00    +0.000 C 
ATOM      2  C   UNL     1       1.520   8.675  17.815  0.00  0.00    +0.000 C 
ATOM      3  C   UNL     1       0.732   9.944  18.159  0.00  0.00    +0.000 C 
ATOM      4  C   UNL     1      -0.180   9.685  19.354  0.00  0.00    +0.000 C 
ATOM      5  N   UNL     1       0.625   9.243  20.490  0.00  0.00    +0.000 N 
ATOM      6  C   UNL     1       0.895   9.989  21.651  0.00  0.00    +0.000 C 
ATOM      7  O   UNL     1       1.458   9.475  22.618  0.00  0.00    +0.000 OA
ATOM      8  C   UNL     1       1.338   7.979  20.251  0.00  0.00    +0.000 C 
ENDROOT
BRANCH   6   9
ATOM      9  C   UNL     1       0.495  11.409  21.708  0.00  0.00    +0.000 A 
ATOM     10  N   UNL     1       1.262  12.400  21.203  0.00  0.00    +0.000 NA
ATOM     11  O   UNL     1       0.600  13.588  21.444  0.00  0.00    +0.000 OA
ATOM     12  C   UNL     1      -0.523  13.319  22.134  0.00  0.00    +0.000 A 
ATOM     13  C   UNL     1      -0.642  11.972  22.356  0.00  0.00    +0.000 A 
ATOM     14  C   UNL     1      -1.766  11.399  23.142  0.00  0.00    +0.000 C 
ATOM     15  C   UNL     1      -2.893  12.445  23.332  0.00  0.00    +0.000 C 
ATOM     16  C   UNL     1      -2.362  13.863  23.651  0.00  0.00    +0.000 C 
ATOM     17  C   UNL     1      -1.434  14.402  22.543  0.00  0.00    +0.000 C 
ENDBRANCH   6   9
BRANCH   1  22
ATOM     18  C   UNL     1       4.060   3.109  18.971  0.00  0.00    +0.000 C 
ATOM     19  C   UNL     1       3.772   4.539  18.690  0.00  0.00    +0.000 A 
ATOM     20  C   UNL     1       4.212   5.336  17.655  0.00  0.00    +0.000 A 
ATOM     21  N   UNL     1       3.754   6.641  17.664  0.00  0.00    +0.000 NA
ATOM     22  C   UNL     1       2.961   6.829  18.698  0.00  0.00    +0.000 A 
ATOM     23  S   UNL     1       2.757   5.457  19.722  0.00  0.00    +0.000 S 
ENDBRANCH   1  22
TORSDOF 2
ENDMDL
MODEL 2
REMARK VINA RESULT:      -6.8      0.847      1.017
REMARK  Name = 
REMARK  3 active torsions:
REMARK  status: ('A' for Active; 'I' for Inactive)
REMARK    1  A    between atoms: C_1  and  C_2
REMARK    2  A    between atoms: C_5  and  C_6
REMARK    3  A    between atoms: C_11  and  C_13
REMARK                            x       y       z     vdW  Elec       q    Type
REMARK                         _______ _______ _______ _____ _____    ______ ____
ROOT
ATOM      1  C   UNL     1       2.285   8.090  19.099  0.00  0.00    +0.000 C 
ATOM      2  C   UNL     1       1.553   8.648  17.859  0.00  0.00    +0.000 C 
ATOM      3  C   UNL     1       0.779   9.928  18.191  0.00  0.00    +0.000 C 
ATOM      4  C   UNL     1      -0.162   9.682  19.366  0.00  0.00    +0.000 C 
ATOM      5  N   UNL     1       0.613   9.224  20.516  0.00  0.00    +0.000 N 
ATOM      6  C   UNL     1       0.871   9.963  21.685  0.00  0.00    +0.000 C 
ATOM      7  O   UNL     1       1.406   9.437  22.662  0.00  0.00    +0.000 OA
ATOM      8  C   UNL     1       1.310   7.949  20.289  0.00  0.00    +0.000 C 
ENDROOT
BRANCH   6   9
ATOM      9  C   UNL     1       0.492  11.389  21.738  0.00  0.00    +0.000 A 
ATOM     10  N   UNL     1       1.280  12.368  21.239  0.00  0.00    +0.000 NA
ATOM     11  O   UNL     1       0.634  13.566  21.474  0.00  0.00    +0.000 OA
ATOM     12  C   UNL     1      -0.499  13.315  22.154  0.00  0.00    +0.000 A 
ATOM     13  C   UNL     1      -0.641  11.970  22.375  0.00  0.00    +0.000 A 
ATOM     14  C   UNL     1      -1.780  11.415  23.152  0.00  0.00    +0.000 C 
ATOM     15  C   UNL     1      -2.892  12.479  23.332  0.00  0.00    +0.000 C 
ATOM     16  C   UNL     1      -2.342  13.888  23.654  0.00  0.00    +0.000 C 
ATOM     17  C   UNL     1      -1.397  14.412  22.555  0.00  0.00    +0.000 C 
ENDBRANCH   6   9
BRANCH   1  22
ATOM     18  C   UNL     1       5.208   4.192  16.943  0.00  0.00    +0.000 C 
ATOM     19  C   UNL     1       4.274   5.009  17.761  0.00  0.00    +0.000 A 
ATOM     20  C   UNL     1       3.478   4.633  18.822  0.00  0.00    +0.000 A 
ATOM     21  N   UNL     1       2.718   5.640  19.390  0.00  0.00    +0.000 NA
ATOM     22  C   UNL     1       2.946   6.777  18.766  0.00  0.00    +0.000 A 
ATOM     23  S   UNL     1       4.057   6.680  17.451  0.00  0.00    +0.000 S 
ENDBRANCH   1  22
TORSDOF 2
ENDMDL
MODEL 3
REMARK VINA RESULT:      -6.7      2.846      8.490
REMARK  Name = 
REMARK  3 active torsions:
REMARK  status: ('A' for Active; 'I' for Inactive)
REMARK    1  A    between atoms: C_1  and  C_2
REMARK    2  A    between atoms: C_5  and  C_6
REMARK    3  A    between atoms: C_11  and  C_13
REMARK                            x       y       z     vdW  Elec       q    Type
REMARK                         _______ _______ _______ _____ _____    ______ ____
ROOT
ATOM      1  C   UNL     1       0.319   8.979  20.217  0.00  0.00    +0.000 C 
ATOM      2  C   UNL     1       0.672   9.749  18.925  0.00  0.00    +0.000 C 
ATOM      3  C   UNL     1       1.432   8.864  17.931  0.00  0.00    +0.000 C 
ATOM      4  C   UNL     1       2.657   8.254  18.604  0.00  0.00    +0.000 C 
ATOM      5  N   UNL     1       2.235   7.487  19.773  0.00  0.00    +0.000 N 
ATOM      6  C   UNL     1       2.247   6.086  19.890  0.00  0.00    +0.000 C 
ATOM      7  O   UNL     1       2.014   5.538  20.968  0.00  0.00    +0.000 OA
ATOM      8  C   UNL     1       1.575   8.301  20.806  0.00  0.00    +0.000 C 
ENDROOT
BRANCH   6   9
ATOM      9  C   UNL     1       2.545   5.263  18.701  0.00  0.00    +0.000 A 
ATOM     10  N   UNL     1       1.636   4.429  18.149  0.00  0.00    +0.000 NA
ATOM     11  O   UNL     1       2.251   3.810  17.078  0.00  0.00    +0.000 OA
ATOM     12  C   UNL     1       3.529   4.226  17.021  0.00  0.00    +0.000 A 
ATOM     13  C   UNL     1       3.790   5.122  18.024  0.00  0.00    +0.000 A 
ATOM     14  C   UNL     1       5.143   5.704  18.229  0.00  0.00    +0.000 C 
ATOM     15  C   UNL     1       6.044   5.446  16.995  0.00  0.00    +0.000 C 
ATOM     16  C   UNL     1       5.888   4.022  16.412  0.00  0.00    +0.000 C 
ATOM     17  C   UNL     1       4.439   3.724  15.977  0.00  0.00    +0.000 C 
ENDBRANCH   6   9
BRANCH   1  22
ATOM     18  C   UNL     1      -2.049  13.078  22.660  0.00  0.00    +0.000 C 
ATOM     19  C   UNL     1      -1.396  11.789  22.315  0.00  0.00    +0.000 A 
ATOM     20  C   UNL     1      -1.114  10.705  23.118  0.00  0.00    +0.000 A 
ATOM     21  N   UNL     1      -0.502   9.634  22.491  0.00  0.00    +0.000 NA
ATOM     22  C   UNL     1      -0.330   9.904  21.213  0.00  0.00    +0.000 A 
ATOM     23  S   UNL     1      -0.866  11.466  20.718  0.00  0.00    +0.000 S 
ENDBRANCH   1  22
TORSDOF 2
ENDMDL
MODEL 4
REMARK VINA RESULT:      -6.7      1.400      1.586
REMARK  Name = 
REMARK  3 active torsions:
REMARK  status: ('A' for Active; 'I' for Inactive)
REMARK    1  A    between atoms: C_1  and  C_2
REMARK    2  A    between atoms: C_5  and  C_6
REMARK    3  A    between atoms: C_11  and  C_13
REMARK                            x       y       z     vdW  Elec       q    Type
REMARK                         _______ _______ _______ _____ _____    ______ ____
ROOT
ATOM      1  C   UNL     1       1.551   8.871  19.678  0.00  0.00    +0.000 C 
ATOM      2  C   UNL     1       0.976   9.518  18.399  0.00  0.00    +0.000 C 
ATOM      3  C   UNL     1       0.187  10.793  18.719  0.00  0.00    +0.000 C 
ATOM      4  C   UNL     1      -0.887  10.497  19.761  0.00  0.00    +0.000 C 
ATOM      5  N   UNL     1      -0.257   9.954  20.962  0.00  0.00    +0.000 N 
ATOM      6  C   UNL     1      -0.126  10.616  22.196  0.00  0.00    +0.000 C 
ATOM      7  O   UNL     1       0.285  10.021  23.193  0.00  0.00    +0.000 OA
ATOM      8  C   UNL     1       0.443   8.680  20.737  0.00  0.00    +0.000 C 
ENDROOT
BRANCH   6   9
ATOM      9  C   UNL     1      -0.487  12.044  22.294  0.00  0.00    +0.000 A 
ATOM     10  N   UNL     1       0.358  13.033  21.925  0.00  0.00    +0.000 NA
ATOM     11  O   UNL     1      -0.289  14.229  22.166  0.00  0.00    +0.000 OA
ATOM     12  C   UNL     1      -1.485  13.963  22.724  0.00  0.00    +0.000 A 
ATOM     13  C   UNL     1      -1.666  12.611  22.855  0.00  0.00    +0.000 A 
ATOM     14  C   UNL     1      -2.880  12.038  23.491  0.00  0.00    +0.000 C 
ATOM     15  C   UNL     1      -3.989  13.112  23.627  0.00  0.00    +0.000 C 
ATOM     16  C   UNL     1      -3.451  14.491  24.077  0.00  0.00    +0.000 C 
ATOM     17  C   UNL     1      -2.399  15.055  23.100  0.00  0.00    +0.000 C 
ENDBRANCH   6   9
BRANCH   1  22
ATOM     18  C   UNL     1       4.305   4.939  17.369  0.00  0.00    +0.000 C 
ATOM     19  C   UNL     1       3.474   5.780  18.268  0.00  0.00    +0.000 A 
ATOM     20  C   UNL     1       2.893   5.464  19.477  0.00  0.00    +0.000 A 
ATOM     21  N   UNL     1       2.178   6.480  20.085  0.00  0.00    +0.000 NA
ATOM     22  C   UNL     1       2.226   7.566  19.343  0.00  0.00    +0.000 A 
ATOM     23  S   UNL     1       3.104   7.404  17.867  0.00  0.00    +0.000 S 
ENDBRANCH   1  22
TORSDOF 2
ENDMDL
MODEL 5
REMARK VINA RESULT:      -6.7      2.888      3.806
REMARK  Name = 
REMARK  3 active torsions:
REMARK  status: ('A' for Active; 'I' for Inactive)
REMARK    1  A    between atoms: C_1  and  C_2
REMARK    2  A    between atoms: C_5  and  C_6
REMARK    3  A    between atoms: C_11  and  C_13
REMARK                            x       y       z     vdW  Elec       q    Type
REMARK                         _______ _______ _______ _____ _____    ______ ____
ROOT
ATOM      1  C   UNL     1       1.943   6.124  19.388  0.00  0.00    +0.000 C 
ATOM      2  C   UNL     1       1.449   6.100  20.852  0.00  0.00    +0.000 C 
ATOM      3  C   UNL     1       0.657   7.365  21.200  0.00  0.00    +0.000 C 
ATOM      4  C   UNL     1       1.484   8.606  20.880  0.00  0.00    +0.000 C 
ATOM      5  N   UNL     1       1.853   8.589  19.467  0.00  0.00    +0.000 N 
ATOM      6  C   UNL     1       1.340   9.439  18.470  0.00  0.00    +0.000 C 
ATOM      7  O   UNL     1       1.822   9.449  17.337  0.00  0.00    +0.000 OA
ATOM      8  C   UNL     1       2.691   7.442  19.088  0.00  0.00    +0.000 C 
ENDROOT
BRANCH   6   9
ATOM      9  C   UNL     1       0.208  10.331  18.791  0.00  0.00    +0.000 A 
ATOM     10  N   UNL     1       0.235  11.192  19.833  0.00  0.00    +0.000 NA
ATOM     11  O   UNL     1      -0.982  11.845  19.850  0.00  0.00    +0.000 OA
ATOM     12  C   UNL     1      -1.750  11.344  18.865  0.00  0.00    +0.000 A 
ATOM     13  C   UNL     1      -1.075  10.372  18.174  0.00  0.00    +0.000 A 
ATOM     14  C   UNL     1      -1.707   9.612  17.065  0.00  0.00    +0.000 C 
ATOM     15  C   UNL     1      -3.016  10.300  16.603  0.00  0.00    +0.000 C 
ATOM     16  C   UNL     1      -3.877  10.825  17.777  0.00  0.00    +0.000 C 
ATOM     17  C   UNL     1      -3.117  11.848  18.646  0.00  0.00    +0.000 C 
ENDBRANCH   6   9
BRANCH   1  22
ATOM     18  C   UNL     1       3.791   1.251  18.284  0.00  0.00    +0.000 C 
ATOM     19  C   UNL     1       3.632   2.690  18.621  0.00  0.00    +0.000 A 
ATOM     20  C   UNL     1       4.594   3.649  18.848  0.00  0.00    +0.000 A 
ATOM     21  N   UNL     1       4.124   4.919  19.132  0.00  0.00    +0.000 NA
ATOM     22  C   UNL     1       2.807   4.921  19.111  0.00  0.00    +0.000 A 
ATOM     23  S   UNL     1       2.078   3.394  18.781  0.00  0.00    +0.000 S 
ENDBRANCH   1  22
TORSDOF 2
ENDMDL
MODEL 6
REMARK VINA RESULT:      -6.4      2.807      7.933
REMARK  Name = 
REMARK  3 active torsions:
REMARK  status: ('A' for Active; 'I' for Inactive)
REMARK    1  A    between atoms: C_1  and  C_2
REMARK    2  A    between atoms: C_5  and  C_6
REMARK    3  A    between atoms: C_11  and  C_13
REMARK                            x       y       z     vdW  Elec       q    Type
REMARK                         _______ _______ _______ _____ _____    ______ ____
ROOT
ATOM      1  C   UNL     1      -0.549  10.137  19.854  0.00  0.00    +0.000 C 
ATOM      2  C   UNL     1      -0.521  10.426  18.337  0.00  0.00    +0.000 C 
ATOM      3  C   UNL     1       0.297   9.376  17.578  0.00  0.00    +0.000 C 
ATOM      4  C   UNL     1       1.695   9.266  18.181  0.00  0.00    +0.000 C 
ATOM      5  N   UNL     1       1.585   8.924  19.596  0.00  0.00    +0.000 N 
ATOM      6  C   UNL     1       1.917   7.685  20.174  0.00  0.00    +0.000 C 
ATOM      7  O   UNL     1       1.933   7.542  21.398  0.00  0.00    +0.000 OA
ATOM      8  C   UNL     1       0.884   9.939  20.396  0.00  0.00    +0.000 C 
ENDROOT
BRANCH   6   9
ATOM      9  C   UNL     1       2.252   6.544  19.300  0.00  0.00    +0.000 A 
ATOM     10  N   UNL     1       2.966   6.688  18.161  0.00  0.00    +0.000 NA
ATOM     11  O   UNL     1       3.074   5.435  17.589  0.00  0.00    +0.000 OA
ATOM     12  C   UNL     1       2.387   4.560  18.346  0.00  0.00    +0.000 A 
ATOM     13  C   UNL     1       1.825   5.192  19.424  0.00  0.00    +0.000 A 
ATOM     14  C   UNL     1       0.965   4.471  20.399  0.00  0.00    +0.000 C 
ATOM     15  C   UNL     1       1.105   2.938  20.227  0.00  0.00    +0.000 C 
ATOM     16  C   UNL     1       1.148   2.491  18.746  0.00  0.00    +0.000 C 
ATOM     17  C   UNL     1       2.317   3.136  17.975  0.00  0.00    +0.000 C 
ENDBRANCH   6   9
BRANCH   1  22
ATOM     18  C   UNL     1      -2.429  13.537  23.500  0.00  0.00    +0.000 C 
ATOM     19  C   UNL     1      -2.127  12.776  22.260  0.00  0.00    +0.000 A 
ATOM     20  C   UNL     1      -2.603  12.959  20.980  0.00  0.00    +0.000 A 
ATOM     21  N   UNL     1      -2.118  12.082  20.026  0.00  0.00    +0.000 NA
ATOM     22  C   UNL     1      -1.268  11.244  20.582  0.00  0.00    +0.000 A 
ATOM     23  S   UNL     1      -1.040  11.452  22.278  0.00  0.00    +0.000 S 
ENDBRANCH   1  22
TORSDOF 2
ENDMDL
MODEL 7
REMARK VINA RESULT:      -6.4      1.439      1.862
REMARK  Name = 
REMARK  3 active torsions:
REMARK  status: ('A' for Active; 'I' for Inactive)
REMARK    1  A    between atoms: C_1  and  C_2
REMARK    2  A    between atoms: C_5  and  C_6
REMARK    3  A    between atoms: C_11  and  C_13
REMARK                            x       y       z     vdW  Elec       q    Type
REMARK                         _______ _______ _______ _____ _____    ______ ____
ROOT
ATOM      1  C   UNL     1       1.245   9.470  19.754  0.00  0.00    +0.000 C 
ATOM      2  C   UNL     1       0.695  10.235  18.530  0.00  0.00    +0.000 C 
ATOM      3  C   UNL     1      -0.086  11.485  18.950  0.00  0.00    +0.000 C 
ATOM      4  C   UNL     1      -1.177  11.110  19.948  0.00  0.00    +0.000 C 
ATOM      5  N   UNL     1      -0.571  10.456  21.104  0.00  0.00    +0.000 N 
ATOM      6  C   UNL     1      -0.450  11.004  22.394  0.00  0.00    +0.000 C 
ATOM      7  O   UNL     1      -0.060  10.319  23.340  0.00  0.00    +0.000 OA
ATOM      8  C   UNL     1       0.120   9.199  20.777  0.00  0.00    +0.000 C 
ENDROOT
BRANCH   6   9
ATOM      9  C   UNL     1      -0.799  12.422  22.613  0.00  0.00    +0.000 A 
ATOM     10  N   UNL     1       0.088  13.425  22.423  0.00  0.00    +0.000 NA
ATOM     11  O   UNL     1      -0.561  14.604  22.736  0.00  0.00    +0.000 OA
ATOM     12  C   UNL     1      -1.803  14.308  23.160  0.00  0.00    +0.000 A 
ATOM     13  C   UNL     1      -2.013  12.954  23.131  0.00  0.00    +0.000 A 
ATOM     14  C   UNL     1      -3.285  12.345  23.599  0.00  0.00    +0.000 C 
ATOM     15  C   UNL     1      -4.387  13.424  23.756  0.00  0.00    +0.000 C 
ATOM     16  C   UNL     1      -3.870  14.735  24.394  0.00  0.00    +0.000 C 
ATOM     17  C   UNL     1      -2.731  15.374  23.574  0.00  0.00    +0.000 C 
ENDBRANCH   6   9
BRANCH   1  22
ATOM     18  C   UNL     1       3.190   4.522  19.419  0.00  0.00    +0.000 C 
ATOM     19  C   UNL     1       2.805   5.938  19.184  0.00  0.00    +0.000 A 
ATOM     20  C   UNL     1       3.050   6.744  18.094  0.00  0.00    +0.000 A 
ATOM     21  N   UNL     1       2.546   8.030  18.171  0.00  0.00    +0.000 NA
ATOM     22  C   UNL     1       1.912   8.193  19.313  0.00  0.00    +0.000 A 
ATOM     23  S   UNL     1       1.923   6.821  20.357  0.00  0.00    +0.000 S 
ENDBRANCH   1  22
TORSDOF 2
ENDMDL
MODEL 8
REMARK VINA RESULT:      -6.3      2.721      8.388
REMARK  Name = 
REMARK  3 active torsions:
REMARK  status: ('A' for Active; 'I' for Inactive)
REMARK    1  A    between atoms: C_1  and  C_2
REMARK    2  A    between atoms: C_5  and  C_6
REMARK    3  A    between atoms: C_11  and  C_13
REMARK                            x       y       z     vdW  Elec       q    Type
REMARK                         _______ _______ _______ _____ _____    ______ ____
ROOT
ATOM      1  C   UNL     1       0.298   9.310  19.548  0.00  0.00    +0.000 C 
ATOM      2  C   UNL     1       0.792   9.930  18.222  0.00  0.00    +0.000 C 
ATOM      3  C   UNL     1       1.632   8.934  17.414  0.00  0.00    +0.000 C 
ATOM      4  C   UNL     1       2.772   8.394  18.271  0.00  0.00    +0.000 C 
ATOM      5  N   UNL     1       2.221   7.765  19.468  0.00  0.00    +0.000 N 
ATOM      6  C   UNL     1       2.195   6.385  19.738  0.00  0.00    +0.000 C 
ATOM      7  O   UNL     1       1.845   5.962  20.840  0.00  0.00    +0.000 OA
ATOM      8  C   UNL     1       1.476   8.693  20.333  0.00  0.00    +0.000 C 
ENDROOT
BRANCH   6   9
ATOM      9  C   UNL     1       2.596   5.433  18.683  0.00  0.00    +0.000 A 
ATOM     10  N   UNL     1       1.771   4.463  18.229  0.00  0.00    +0.000 NA
ATOM     11  O   UNL     1       2.468   3.754  17.271  0.00  0.00    +0.000 OA
ATOM     12  C   UNL     1       3.714   4.256  17.189  0.00  0.00    +0.000 A 
ATOM     13  C   UNL     1       3.872   5.299  18.064  0.00  0.00    +0.000 A 
ATOM     14  C   UNL     1       5.169   6.007  18.220  0.00  0.00    +0.000 C 
ATOM     15  C   UNL     1       6.131   5.654  17.058  0.00  0.00    +0.000 C 
ATOM     16  C   UNL     1       6.102   4.156  16.674  0.00  0.00    +0.000 C 
ATOM     17  C   UNL     1       4.695   3.689  16.248  0.00  0.00    +0.000 C 
ENDBRANCH   6   9
BRANCH   1  22
ATOM     18  C   UNL     1      -1.742  12.270  23.480  0.00  0.00    +0.000 C 
ATOM     19  C   UNL     1      -1.364  11.675  22.172  0.00  0.00    +0.000 A 
ATOM     20  C   UNL     1      -1.713  12.064  20.897  0.00  0.00    +0.000 A 
ATOM     21  N   UNL     1      -1.185  11.303  19.869  0.00  0.00    +0.000 NA
ATOM     22  C   UNL     1      -0.431  10.345  20.366  0.00  0.00    +0.000 A 
ATOM     23  S   UNL     1      -0.349  10.297  22.088  0.00  0.00    +0.000 S 
ENDBRANCH   1  22
TORSDOF 2
ENDMDL
MODEL 9
REMARK VINA RESULT:      -6.3      1.364      1.519
REMARK  Name = 
REMARK  3 active torsions:
REMARK  status: ('A' for Active; 'I' for Inactive)
REMARK    1  A    between atoms: C_1  and  C_2
REMARK    2  A    between atoms: C_5  and  C_6
REMARK    3  A    between atoms: C_11  and  C_13
REMARK                            x       y       z     vdW  Elec       q    Type
REMARK                         _______ _______ _______ _____ _____    ______ ____
ROOT
ATOM      1  C   UNL     1       2.359   7.764  19.522  0.00  0.00    +0.000 C 
ATOM      2  C   UNL     1       2.016   8.145  18.065  0.00  0.00    +0.000 C 
ATOM      3  C   UNL     1       1.459   9.570  17.972  0.00  0.00    +0.000 C 
ATOM      4  C   UNL     1       0.272   9.731  18.917  0.00  0.00    +0.000 C 
ATOM      5  N   UNL     1       0.694   9.420  20.280  0.00  0.00    +0.000 N 
ATOM      6  C   UNL     1       0.853  10.347  21.326  0.00  0.00    +0.000 C 
ATOM      7  O   UNL     1       1.067   9.969  22.479  0.00  0.00    +0.000 OA
ATOM      8  C   UNL     1       1.158   8.035  20.453  0.00  0.00    +0.000 C 
ENDROOT
BRANCH   6   9
ATOM      9  C   UNL     1       0.761  11.791  21.035  0.00  0.00    +0.000 A 
ATOM     10  N   UNL     1       1.853  12.574  20.894  0.00  0.00    +0.000 NA
ATOM     11  O   UNL     1       1.403  13.857  20.651  0.00  0.00    +0.000 OA
ATOM     12  C   UNL     1       0.059  13.855  20.698  0.00  0.00    +0.000 A 
ATOM     13  C   UNL     1      -0.413  12.594  20.958  0.00  0.00    +0.000 A 
ATOM     14  C   UNL     1      -1.863  12.313  21.118  0.00  0.00    +0.000 C 
ATOM     15  C   UNL     1      -2.713  13.504  20.608  0.00  0.00    +0.000 C 
ATOM     16  C   UNL     1      -2.137  14.882  21.012  0.00  0.00    +0.000 C 
ATOM     17  C   UNL     1      -0.705  15.095  20.482  0.00  0.00    +0.000 C 
ENDBRANCH   6   9
BRANCH   1  22
ATOM     18  C   UNL     1       2.802   2.553  20.541  0.00  0.00    +0.000 C 
ATOM     19  C   UNL     1       2.995   3.953  20.080  0.00  0.00    +0.000 A 
ATOM     20  C   UNL     1       4.003   4.492  19.310  0.00  0.00    +0.000 A 
ATOM     21  N   UNL     1       3.894   5.844  19.038  0.00  0.00    +0.000 NA
ATOM     22  C   UNL     1       2.801   6.325  19.593  0.00  0.00    +0.000 A 
ATOM     23  S   UNL     1       1.874   5.181  20.492  0.00  0.00    +0.000 S 
ENDBRANCH   1  22
TORSDOF 2
ENDMDL
