MODEL 1
REMARK VINA RESULT:      -6.5      0.000      0.000
REMARK  Name = 
REMARK  7 active torsions:
REMARK  status: ('A' for Active; 'I' for Inactive)
REMARK    1  A    between atoms: C_1  and  N_2
REMARK    2  A    between atoms: C_5  and  O_6
REMARK    3  A    between atoms: O_6  and  C_7
REMARK    4  A    between atoms: C_7  and  C_9
REMARK    5  A    between atoms: C_9  and  C_10
REMARK    6  A    between atoms: C_9  and  C_12
REMARK    7  A    between atoms: C_10  and  O_11
REMARK                            x       y       z     vdW  Elec       q    Type
REMARK                         _______ _______ _______ _____ _____    ______ ____
ROOT
ATOM      1  C   UNL     1       6.440   6.385  17.620  0.00  0.00    +0.000 C 
ENDROOT
BRANCH   1   2
ATOM      2  C   UNL     1       6.317   5.501  16.352  0.00  0.00    +0.000 A 
ATOM      3  C   UNL     1       7.353   5.511  15.395  0.00  0.00    +0.000 A 
ATOM      4  C   UNL     1       7.203   4.811  14.200  0.00  0.00    +0.000 A 
ATOM      5  C   UNL     1       6.040   4.085  13.943  0.00  0.00    +0.000 A 
ATOM      6 CL   UNL     1       5.857   3.269  12.440  0.00  0.00    +0.000 Cl
ATOM      7  C   UNL     1       5.029   4.019  14.893  0.00  0.00    +0.000 A 
ATOM      8  C   UNL     1       5.195   4.710  16.099  0.00  0.00    +0.000 A 
ENDBRANCH   1   2
BRANCH   1   9
ATOM      9  C   UNL     1       6.753   5.491  18.820  0.00  0.00    +0.000 C 
ATOM     10  O   UNL     1       7.877   5.008  18.941  0.00  0.00    +0.000 OA
BRANCH   9  11
ATOM     11  O   UNL     1       5.741   5.257  19.734  0.00  0.00    +0.000 OA
BRANCH  11  16
ATOM     12  C   UNL     1       0.654   2.535  18.703  0.00  0.00    +0.000 C 
ATOM     13  N   UNL     1       1.990   3.127  18.813  0.00  0.00    +0.000 NA
ATOM     14  C   UNL     1       1.958   4.464  19.401  0.00  0.00    +0.000 C 
ATOM     15  C   UNL     1       3.318   5.158  19.231  0.00  0.00    +0.000 C 
ATOM     16  C   UNL     1       4.480   4.383  19.835  0.00  0.00    +0.000 C 
ATOM     17  C   UNL     1       4.349   2.870  19.449  0.00  0.00    +0.000 C 
ATOM     18  C   UNL     1       2.914   2.279  19.571  0.00  0.00    +0.000 C 
ENDBRANCH  11  16
ENDBRANCH   9  11
ENDBRANCH   1   9
BRANCH   1  19
ATOM     19  C   UNL     1       7.562   7.432  17.335  0.00  0.00    +0.000 C 
BRANCH  19  20
ATOM     20  O   UNL     1       8.333   7.653  18.511  0.00  0.00    +0.000 OA
ATOM     21  H   UNL     1       7.968   7.106  19.228  0.00  0.00    +0.000 HD
ENDBRANCH  19  20
ENDBRANCH   1  19
TORSDOF 6
ENDMDL
MODEL 2
REMARK VINA RESULT:      -6.4      3.556      4.997
REMARK  Name = 
REMARK  7 active torsions:
REMARK  status: ('A' for Active; 'I' for Inactive)
REMARK    1  A    between atoms: C_1  and  N_2
REMARK    2  A    between atoms: C_5  and  O_6
REMARK    3  A    between atoms: O_6  and  C_7
REMARK    4  A    between atoms: C_7  and  C_9
REMARK    5  A    between atoms: C_9  and  C_10
REMARK    6  A    between atoms: C_9  and  C_12
REMARK    7  A    between atoms: C_10  and  O_11
REMARK                            x       y       z     vdW  Elec       q    Type
REMARK                         _______ _______ _______ _____ _____    ______ ____
ROOT
ATOM      1  C   UNL     1       5.239   4.711  16.273  0.00  0.00    +0.000 C 
ENDROOT
BRANCH   1   2
ATOM      2  C   UNL     1       4.345   4.042  17.349  0.00  0.00    +0.000 A 
ATOM      3  C   UNL     1       2.994   3.763  17.053  0.00  0.00    +0.000 A 
ATOM      4  C   UNL     1       2.153   3.269  18.047  0.00  0.00    +0.000 A 
ATOM      5  C   UNL     1       2.635   3.030  19.334  0.00  0.00    +0.000 A 
ATOM      6 CL   UNL     1       1.566   2.466  20.557  0.00  0.00    +0.000 Cl
ATOM      7  C   UNL     1       3.975   3.247  19.632  0.00  0.00    +0.000 A 
ATOM      8  C   UNL     1       4.818   3.727  18.624  0.00  0.00    +0.000 A 
ENDBRANCH   1   2
BRANCH   1   9
ATOM      9  C   UNL     1       4.936   6.209  16.239  0.00  0.00    +0.000 C 
ATOM     10  O   UNL     1       5.090   6.836  15.193  0.00  0.00    +0.000 OA
BRANCH   9  11
ATOM     11  O   UNL     1       4.495   6.807  17.406  0.00  0.00    +0.000 OA
BRANCH  11  16
ATOM     12  C   UNL     1       0.345   9.115  20.842  0.00  0.00    +0.000 C 
ATOM     13  N   UNL     1       1.471   8.698  20.001  0.00  0.00    +0.000 NA
ATOM     14  C   UNL     1       1.715   7.259  20.074  0.00  0.00    +0.000 C 
ATOM     15  C   UNL     1       3.062   6.910  19.423  0.00  0.00    +0.000 C 
ATOM     16  C   UNL     1       3.175   7.355  17.972  0.00  0.00    +0.000 C 
ATOM     17  C   UNL     1       2.624   8.816  17.836  0.00  0.00    +0.000 C 
ATOM     18  C   UNL     1       1.299   9.096  18.602  0.00  0.00    +0.000 C 
ENDBRANCH  11  16
ENDBRANCH   9  11
ENDBRANCH   1   9
BRANCH   1  19
ATOM     19  C   UNL     1       6.720   4.399  16.656  0.00  0.00    +0.000 C 
BRANCH  19  20
ATOM     20  O   UNL     1       7.458   5.610  16.775  0.00  0.00    +0.000 OA
ATOM     21  H   UNL     1       7.194   6.206  16.052  0.00  0.00    +0.000 HD
ENDBRANCH  19  20
ENDBRANCH   1  19
TORSDOF 6
ENDMDL
MODEL 3
REMARK VINA RESULT:      -6.4      3.735      5.156
REMARK  Name = 
REMARK  7 active torsions:
REMARK  status: ('A' for Active; 'I' for Inactive)
REMARK    1  A    between atoms: C_1  and  N_2
REMARK    2  A    between atoms: C_5  and  O_6
REMARK    3  A    between atoms: O_6  and  C_7
REMARK    4  A    between atoms: C_7  and  C_9
REMARK    5  A    between atoms: C_9  and  C_10
REMARK    6  A    between atoms: C_9  and  C_12
REMARK    7  A    between atoms: C_10  and  O_11
REMARK                            x       y       z     vdW  Elec       q    Type
REMARK                         _______ _______ _______ _____ _____    ______ ____
ROOT
ATOM      1  C   UNL     1       5.152   4.937  16.729  0.00  0.00    +0.000 C 
ENDROOT
BRANCH   1   2
ATOM      2  C   UNL     1       4.175   4.269  17.730  0.00  0.00    +0.000 A 
ATOM      3  C   UNL     1       2.888   3.887  17.296  0.00  0.00    +0.000 A 
ATOM      4  C   UNL     1       1.963   3.393  18.212  0.00  0.00    +0.000 A 
ATOM      5  C   UNL     1       2.299   3.255  19.559  0.00  0.00    +0.000 A 
ATOM      6 CL   UNL     1       1.124   2.690  20.679  0.00  0.00    +0.000 Cl
ATOM      7  C   UNL     1       3.577   3.576  19.999  0.00  0.00    +0.000 A 
ATOM      8  C   UNL     1       4.507   4.055  19.070  0.00  0.00    +0.000 A 
ENDBRANCH   1   2
BRANCH   1   9
ATOM      9  C   UNL     1       5.007   6.455  16.832  0.00  0.00    +0.000 C 
ATOM     10  O   UNL     1       5.992   7.172  16.666  0.00  0.00    +0.000 OA
BRANCH   9  11
ATOM     11  O   UNL     1       3.752   6.968  17.112  0.00  0.00    +0.000 OA
BRANCH  11  16
ATOM     12  C   UNL     1      -0.094   9.792  20.516  0.00  0.00    +0.000 C 
ATOM     13  N   UNL     1       0.753   8.942  19.673  0.00  0.00    +0.000 NA
ATOM     14  C   UNL     1       1.526   9.717  18.704  0.00  0.00    +0.000 C 
ATOM     15  C   UNL     1       2.164   8.787  17.661  0.00  0.00    +0.000 C 
ATOM     16  C   UNL     1       3.063   7.717  18.264  0.00  0.00    +0.000 C 
ATOM     17  C   UNL     1       2.349   7.083  19.507  0.00  0.00    +0.000 C 
ATOM     18  C   UNL     1       1.656   8.100  20.460  0.00  0.00    +0.000 C 
ENDBRANCH  11  16
ENDBRANCH   9  11
ENDBRANCH   1   9
BRANCH   1  19
ATOM     19  C   UNL     1       6.585   4.437  17.093  0.00  0.00    +0.000 C 
BRANCH  19  20
ATOM     20  O   UNL     1       7.473   4.673  16.006  0.00  0.00    +0.000 OA
ATOM     21  H   UNL     1       8.019   3.879  15.874  0.00  0.00    +0.000 HD
ENDBRANCH  19  20
ENDBRANCH   1  19
TORSDOF 6
ENDMDL
MODEL 4
REMARK VINA RESULT:      -6.4      3.635      6.587
REMARK  Name = 
REMARK  7 active torsions:
REMARK  status: ('A' for Active; 'I' for Inactive)
REMARK    1  A    between atoms: C_1  and  N_2
REMARK    2  A    between atoms: C_5  and  O_6
REMARK    3  A    between atoms: O_6  and  C_7
REMARK    4  A    between atoms: C_7  and  C_9
REMARK    5  A    between atoms: C_9  and  C_10
REMARK    6  A    between atoms: C_9  and  C_12
REMARK    7  A    between atoms: C_10  and  O_11
REMARK                            x       y       z     vdW  Elec       q    Type
REMARK                         _______ _______ _______ _____ _____    ______ ____
ROOT
ATOM      1  C   UNL     1       1.868   3.414  18.198  0.00  0.00    +0.000 C 
ENDROOT
BRANCH   1   2
ATOM      2  C   UNL     1       1.961   4.795  18.896  0.00  0.00    +0.000 A 
ATOM      3  C   UNL     1       1.629   4.906  20.263  0.00  0.00    +0.000 A 
ATOM      4  C   UNL     1       1.598   6.159  20.871  0.00  0.00    +0.000 A 
ATOM      5  C   UNL     1       1.908   7.310  20.146  0.00  0.00    +0.000 A 
ATOM      6 CL   UNL     1       1.814   8.850  20.906  0.00  0.00    +0.000 Cl
ATOM      7  C   UNL     1       2.287   7.218  18.813  0.00  0.00    +0.000 A 
ATOM      8  C   UNL     1       2.334   5.955  18.213  0.00  0.00    +0.000 A 
ENDBRANCH   1   2
BRANCH   1   9
ATOM      9  C   UNL     1       3.229   2.723  18.283  0.00  0.00    +0.000 C 
ATOM     10  O   UNL     1       3.372   1.753  19.025  0.00  0.00    +0.000 OA
BRANCH   9  11
ATOM     11  O   UNL     1       4.259   3.225  17.508  0.00  0.00    +0.000 OA
BRANCH  11  16
ATOM     12  C   UNL     1       7.818   7.881  17.611  0.00  0.00    +0.000 C 
ATOM     13  N   UNL     1       6.822   6.809  17.704  0.00  0.00    +0.000 NA
ATOM     14  C   UNL     1       6.727   6.032  16.469  0.00  0.00    +0.000 C 
ATOM     15  C   UNL     1       5.488   5.125  16.501  0.00  0.00    +0.000 C 
ATOM     16  C   UNL     1       5.458   4.171  17.687  0.00  0.00    +0.000 C 
ATOM     17  C   UNL     1       5.860   4.949  18.986  0.00  0.00    +0.000 C 
ATOM     18  C   UNL     1       7.075   5.910  18.831  0.00  0.00    +0.000 C 
ENDBRANCH  11  16
ENDBRANCH   9  11
ENDBRANCH   1   9
BRANCH   1  19
ATOM     19  C   UNL     1       0.736   2.617  18.919  0.00  0.00    +0.000 C 
BRANCH  19  20
ATOM     20  O   UNL     1       0.435   1.431  18.192  0.00  0.00    +0.000 OA
ATOM     21  H   UNL     1       0.238   1.674  17.271  0.00  0.00    +0.000 HD
ENDBRANCH  19  20
ENDBRANCH   1  19
TORSDOF 6
ENDMDL
MODEL 5
REMARK VINA RESULT:      -6.3      0.698      1.093
REMARK  Name = 
REMARK  7 active torsions:
REMARK  status: ('A' for Active; 'I' for Inactive)
REMARK    1  A    between atoms: C_1  and  N_2
REMARK    2  A    between atoms: C_5  and  O_6
REMARK    3  A    between atoms: O_6  and  C_7
REMARK    4  A    between atoms: C_7  and  C_9
REMARK    5  A    between atoms: C_9  and  C_10
REMARK    6  A    between atoms: C_9  and  C_12
REMARK    7  A    between atoms: C_10  and  O_11
REMARK                            x       y       z     vdW  Elec       q    Type
REMARK                         _______ _______ _______ _____ _____    ______ ____
ROOT
ATOM      1  C   UNL     1       6.449   6.463  17.708  0.00  0.00    +0.000 C 
ENDROOT
BRANCH   1   2
ATOM      2  C   UNL     1       6.343   5.603  16.422  0.00  0.00    +0.000 A 
ATOM      3  C   UNL     1       7.505   5.338  15.666  0.00  0.00    +0.000 A 
ATOM      4  C   UNL     1       7.405   4.666  14.451  0.00  0.00    +0.000 A 
ATOM      5  C   UNL     1       6.166   4.235  13.975  0.00  0.00    +0.000 A 
ATOM      6 CL   UNL     1       6.061   3.451  12.449  0.00  0.00    +0.000 Cl
ATOM      7  C   UNL     1       5.016   4.440  14.728  0.00  0.00    +0.000 A 
ATOM      8  C   UNL     1       5.127   5.101  15.956  0.00  0.00    +0.000 A 
ENDBRANCH   1   2
BRANCH   1   9
ATOM      9  C   UNL     1       6.428   5.538  18.925  0.00  0.00    +0.000 C 
ATOM     10  O   UNL     1       7.442   4.915  19.232  0.00  0.00    +0.000 OA
BRANCH   9  11
ATOM     11  O   UNL     1       5.249   5.440  19.643  0.00  0.00    +0.000 OA
BRANCH  11  16
ATOM     12  C   UNL     1       0.476   2.099  19.001  0.00  0.00    +0.000 C 
ATOM     13  N   UNL     1       1.678   2.870  19.334  0.00  0.00    +0.000 NA
ATOM     14  C   UNL     1       2.533   3.095  18.170  0.00  0.00    +0.000 C 
ATOM     15  C   UNL     1       3.901   3.640  18.607  0.00  0.00    +0.000 C 
ATOM     16  C   UNL     1       3.818   4.929  19.412  0.00  0.00    +0.000 C 
ATOM     17  C   UNL     1       2.679   4.798  20.480  0.00  0.00    +0.000 C 
ATOM     18  C   UNL     1       1.359   4.154  19.963  0.00  0.00    +0.000 C 
ENDBRANCH  11  16
ENDBRANCH   9  11
ENDBRANCH   1   9
BRANCH   1  19
ATOM     19  C   UNL     1       7.770   7.287  17.594  0.00  0.00    +0.000 C 
BRANCH  19  20
ATOM     20  O   UNL     1       8.413   7.354  18.862  0.00  0.00    +0.000 OA
ATOM     21  H   UNL     1       9.294   7.747  18.742  0.00  0.00    +0.000 HD
ENDBRANCH  19  20
ENDBRANCH   1  19
TORSDOF 6
ENDMDL
MODEL 6
REMARK VINA RESULT:      -6.3      1.112      1.152
REMARK  Name = 
REMARK  7 active torsions:
REMARK  status: ('A' for Active; 'I' for Inactive)
REMARK    1  A    between atoms: C_1  and  N_2
REMARK    2  A    between atoms: C_5  and  O_6
REMARK    3  A    between atoms: O_6  and  C_7
REMARK    4  A    between atoms: C_7  and  C_9
REMARK    5  A    between atoms: C_9  and  C_10
REMARK    6  A    between atoms: C_9  and  C_12
REMARK    7  A    between atoms: C_10  and  O_11
REMARK                            x       y       z     vdW  Elec       q    Type
REMARK                         _______ _______ _______ _____ _____    ______ ____
ROOT
ATOM      1  C   UNL     1       6.589   6.366  18.167  0.00  0.00    +0.000 C 
ENDROOT
BRANCH   1   2
ATOM      2  C   UNL     1       6.338   5.630  16.826  0.00  0.00    +0.000 A 
ATOM      3  C   UNL     1       7.130   4.511  16.491  0.00  0.00    +0.000 A 
ATOM      4  C   UNL     1       6.992   3.912  15.241  0.00  0.00    +0.000 A 
ATOM      5  C   UNL     1       6.066   4.397  14.317  0.00  0.00    +0.000 A 
ATOM      6 CL   UNL     1       5.949   3.672  12.762  0.00  0.00    +0.000 Cl
ATOM      7  C   UNL     1       5.241   5.465  14.646  0.00  0.00    +0.000 A 
ATOM      8  C   UNL     1       5.372   6.050  15.910  0.00  0.00    +0.000 A 
ENDBRANCH   1   2
BRANCH   1   9
ATOM      9  C   UNL     1       6.696   5.333  19.288  0.00  0.00    +0.000 C 
ATOM     10  O   UNL     1       7.516   5.497  20.190  0.00  0.00    +0.000 OA
BRANCH   9  11
ATOM     11  O   UNL     1       5.853   4.237  19.242  0.00  0.00    +0.000 OA
BRANCH  11  16
ATOM     12  C   UNL     1       0.418   2.089  18.783  0.00  0.00    +0.000 C 
ATOM     13  N   UNL     1       1.828   2.457  18.948  0.00  0.00    +0.000 NA
ATOM     14  C   UNL     1       2.230   3.534  18.046  0.00  0.00    +0.000 C 
ATOM     15  C   UNL     1       3.758   3.687  18.040  0.00  0.00    +0.000 C 
ATOM     16  C   UNL     1       4.353   3.950  19.417  0.00  0.00    +0.000 C 
ATOM     17  C   UNL     1       3.692   2.983  20.458  0.00  0.00    +0.000 C 
ATOM     18  C   UNL     1       2.149   2.827  20.328  0.00  0.00    +0.000 C 
ENDBRANCH  11  16
ENDBRANCH   9  11
ENDBRANCH   1   9
BRANCH   1  19
ATOM     19  C   UNL     1       7.893   7.205  17.987  0.00  0.00    +0.000 C 
BRANCH  19  20
ATOM     20  O   UNL     1       7.598   8.425  17.316  0.00  0.00    +0.000 OA
ATOM     21  H   UNL     1       6.845   8.277  16.719  0.00  0.00    +0.000 HD
ENDBRANCH  19  20
ENDBRANCH   1  19
TORSDOF 6
ENDMDL
MODEL 7
REMARK VINA RESULT:      -6.3      1.122      1.558
REMARK  Name = 
REMARK  7 active torsions:
REMARK  status: ('A' for Active; 'I' for Inactive)
REMARK    1  A    between atoms: C_1  and  N_2
REMARK    2  A    between atoms: C_5  and  O_6
REMARK    3  A    between atoms: O_6  and  C_7
REMARK    4  A    between atoms: C_7  and  C_9
REMARK    5  A    between atoms: C_9  and  C_10
REMARK    6  A    between atoms: C_9  and  C_12
REMARK    7  A    between atoms: C_10  and  O_11
REMARK                            x       y       z     vdW  Elec       q    Type
REMARK                         _______ _______ _______ _____ _____    ______ ____
ROOT
ATOM      1  C   UNL     1       7.268   5.645  16.880  0.00  0.00    +0.000 C 
ENDROOT
BRANCH   1   2
ATOM      2  C   UNL     1       6.804   4.900  15.601  0.00  0.00    +0.000 A 
ATOM      3  C   UNL     1       7.510   5.089  14.394  0.00  0.00    +0.000 A 
ATOM      4  C   UNL     1       7.036   4.517  13.215  0.00  0.00    +0.000 A 
ATOM      5  C   UNL     1       5.874   3.745  13.216  0.00  0.00    +0.000 A 
ATOM      6 CL   UNL     1       5.281   3.091  11.740  0.00  0.00    +0.000 Cl
ATOM      7  C   UNL     1       5.193   3.504  14.402  0.00  0.00    +0.000 A 
ATOM      8  C   UNL     1       5.685   4.066  15.585  0.00  0.00    +0.000 A 
ENDBRANCH   1   2
BRANCH   1   9
ATOM      9  C   UNL     1       6.104   6.477  17.419  0.00  0.00    +0.000 C 
ATOM     10  O   UNL     1       5.730   7.470  16.799  0.00  0.00    +0.000 OA
BRANCH   9  11
ATOM     11  O   UNL     1       5.510   6.070  18.601  0.00  0.00    +0.000 OA
BRANCH  11  16
ATOM     12  C   UNL     1       0.950   2.389  18.720  0.00  0.00    +0.000 C 
ATOM     13  N   UNL     1       2.178   3.180  18.593  0.00  0.00    +0.000 NA
ATOM     14  C   UNL     1       1.913   4.618  18.578  0.00  0.00    +0.000 C 
ATOM     15  C   UNL     1       3.171   5.390  18.154  0.00  0.00    +0.000 C 
ATOM     16  C   UNL     1       4.381   5.122  19.037  0.00  0.00    +0.000 C 
ATOM     17  C   UNL     1       4.493   3.583  19.306  0.00  0.00    +0.000 C 
ATOM     18  C   UNL     1       3.151   2.871  19.643  0.00  0.00    +0.000 C 
ENDBRANCH  11  16
ENDBRANCH   9  11
ENDBRANCH   1   9
BRANCH   1  19
ATOM     19  C   UNL     1       7.753   4.555  17.887  0.00  0.00    +0.000 C 
BRANCH  19  20
ATOM     20  O   UNL     1       8.018   5.147  19.154  0.00  0.00    +0.000 OA
ATOM     21  H   UNL     1       8.282   4.446  19.774  0.00  0.00    +0.000 HD
ENDBRANCH  19  20
ENDBRANCH   1  19
TORSDOF 6
ENDMDL
MODEL 8
REMARK VINA RESULT:      -6.3      0.409      1.152
REMARK  Name = 
REMARK  7 active torsions:
REMARK  status: ('A' for Active; 'I' for Inactive)
REMARK    1  A    between atoms: C_1  and  N_2
REMARK    2  A    between atoms: C_5  and  O_6
REMARK    3  A    between atoms: O_6  and  C_7
REMARK    4  A    between atoms: C_7  and  C_9
REMARK    5  A    between atoms: C_9  and  C_10
REMARK    6  A    between atoms: C_9  and  C_12
REMARK    7  A    between atoms: C_10  and  O_11
REMARK                            x       y       z     vdW  Elec       q    Type
REMARK                         _______ _______ _______ _____ _____    ______ ____
ROOT
ATOM      1  C   UNL     1       6.445   6.086  17.393  0.00  0.00    +0.000 C 
ENDROOT
BRANCH   1   2
ATOM      2  C   UNL     1       6.323   5.400  16.008  0.00  0.00    +0.000 A 
ATOM      3  C   UNL     1       5.201   4.592  15.729  0.00  0.00    +0.000 A 
ATOM      4  C   UNL     1       5.137   3.880  14.534  0.00  0.00    +0.000 A 
ATOM      5  C   UNL     1       6.166   3.969  13.597  0.00  0.00    +0.000 A 
ATOM      6 CL   UNL     1       6.088   3.042  12.150  0.00  0.00    +0.000 Cl
ATOM      7  C   UNL     1       7.255   4.799  13.827  0.00  0.00    +0.000 A 
ATOM      8  C   UNL     1       7.305   5.525  15.023  0.00  0.00    +0.000 A 
ENDBRANCH   1   2
BRANCH   1   9
ATOM      9  C   UNL     1       6.852   5.039  18.430  0.00  0.00    +0.000 C 
ATOM     10  O   UNL     1       7.929   4.458  18.317  0.00  0.00    +0.000 OA
BRANCH   9  11
ATOM     11  O   UNL     1       5.975   4.784  19.471  0.00  0.00    +0.000 OA
BRANCH  11  16
ATOM     12  C   UNL     1       0.597   2.580  18.719  0.00  0.00    +0.000 C 
ATOM     13  N   UNL     1       1.996   3.013  18.777  0.00  0.00    +0.000 NA
ATOM     14  C   UNL     1       2.127   4.419  19.153  0.00  0.00    +0.000 C 
ATOM     15  C   UNL     1       3.564   4.906  18.919  0.00  0.00    +0.000 C 
ATOM     16  C   UNL     1       4.614   4.097  19.667  0.00  0.00    +0.000 C 
ATOM     17  C   UNL     1       4.297   2.570  19.512  0.00  0.00    +0.000 C 
ATOM     18  C   UNL     1       2.798   2.186  19.681  0.00  0.00    +0.000 C 
ENDBRANCH  11  16
ENDBRANCH   9  11
ENDBRANCH   1   9
BRANCH   1  19
ATOM     19  C   UNL     1       7.495   7.230  17.242  0.00  0.00    +0.000 C 
BRANCH  19  20
ATOM     20  O   UNL     1       8.227   7.384  18.453  0.00  0.00    +0.000 OA
ATOM     21  H   UNL     1       7.996   8.242  18.848  0.00  0.00    +0.000 HD
ENDBRANCH  19  20
ENDBRANCH   1  19
TORSDOF 6
ENDMDL
MODEL 9
REMARK VINA RESULT:      -6.3      0.863      1.346
REMARK  Name = 
REMARK  7 active torsions:
REMARK  status: ('A' for Active; 'I' for Inactive)
REMARK    1  A    between atoms: C_1  and  N_2
REMARK    2  A    between atoms: C_5  and  O_6
REMARK    3  A    between atoms: O_6  and  C_7
REMARK    4  A    between atoms: C_7  and  C_9
REMARK    5  A    between atoms: C_9  and  C_10
REMARK    6  A    between atoms: C_9  and  C_12
REMARK    7  A    between atoms: C_10  and  O_11
REMARK                            x       y       z     vdW  Elec       q    Type
REMARK                         _______ _______ _______ _____ _____    ______ ____
ROOT
ATOM      1  C   UNL     1       6.474   6.442  17.936  0.00  0.00    +0.000 C 
ENDROOT
BRANCH   1   2
ATOM      2  C   UNL     1       6.334   5.756  16.553  0.00  0.00    +0.000 A 
ATOM      3  C   UNL     1       5.055   5.613  15.975  0.00  0.00    +0.000 A 
ATOM      4  C   UNL     1       4.904   4.898  14.789  0.00  0.00    +0.000 A 
ATOM      5  C   UNL     1       6.009   4.331  14.154  0.00  0.00    +0.000 A 
ATOM      6 CL   UNL     1       5.791   3.411  12.718  0.00  0.00    +0.000 Cl
ATOM      7  C   UNL     1       7.284   4.504  14.678  0.00  0.00    +0.000 A 
ATOM      8  C   UNL     1       7.430   5.239  15.860  0.00  0.00    +0.000 A 
ENDBRANCH   1   2
BRANCH   1   9
ATOM      9  C   UNL     1       6.673   5.367  19.004  0.00  0.00    +0.000 C 
ATOM     10  O   UNL     1       7.290   5.640  20.032  0.00  0.00    +0.000 OA
BRANCH   9  11
ATOM     11  O   UNL     1       6.142   4.112  18.767  0.00  0.00    +0.000 OA
BRANCH  11  16
ATOM     12  C   UNL     1       0.431   2.818  19.026  0.00  0.00    +0.000 C 
ATOM     13  N   UNL     1       1.831   3.179  18.784  0.00  0.00    +0.000 NA
ATOM     14  C   UNL     1       2.473   3.741  19.971  0.00  0.00    +0.000 C 
ATOM     15  C   UNL     1       3.825   4.370  19.602  0.00  0.00    +0.000 C 
ATOM     16  C   UNL     1       4.790   3.400  18.934  0.00  0.00    +0.000 C 
ATOM     17  C   UNL     1       4.020   2.571  17.850  0.00  0.00    +0.000 C 
ATOM     18  C   UNL     1       2.620   2.050  18.287  0.00  0.00    +0.000 C 
ENDBRANCH  11  16
ENDBRANCH   9  11
ENDBRANCH   1   9
BRANCH   1  19
ATOM     19  C   UNL     1       7.680   7.427  17.833  0.00  0.00    +0.000 C 
BRANCH  19  20
ATOM     20  O   UNL     1       8.555   7.244  18.941  0.00  0.00    +0.000 OA
ATOM     21  H   UNL     1       8.777   8.117  19.308  0.00  0.00    +0.000 HD
ENDBRANCH  19  20
ENDBRANCH   1  19
TORSDOF 6
ENDMDL
