MODEL 1
REMARK VINA RESULT:      -7.9      0.000      0.000
REMARK  Name = 
REMARK  3 active torsions:
REMARK  status: ('A' for Active; 'I' for Inactive)
REMARK    1  A    between atoms: C_2  and  C_11
REMARK    2  A    between atoms: N_3  and  C_4
REMARK    3  A    between atoms: N_15  and  C_16
REMARK                            x       y       z     vdW  Elec       q    Type
REMARK                         _______ _______ _______ _____ _____    ______ ____
ROOT
ATOM      1  C   UNL     1      -0.887  12.518  20.037  0.00  0.00    +0.000 C 
ATOM      2  C   UNL     1       0.461  11.904  20.387  0.00  0.00    +0.000 C 
ATOM      3  C   UNL     1       0.876  10.682  19.609  0.00  0.00    +0.000 C 
ATOM      4  O   UNL     1       0.974  10.661  18.393  0.00  0.00    +0.000 OA
ATOM      5  N   UNL     1       1.142   9.651  20.485  0.00  0.00    +0.000 N 
ATOM      6  C   UNL     1       0.972  10.046  21.790  0.00  0.00    +0.000 C 
ATOM      7  O   UNL     1       1.234   9.440  22.821  0.00  0.00    +0.000 OA
ATOM      8  C   UNL     1       0.324  11.396  21.808  0.00  0.00    +0.000 C 
ATOM      9  C   UNL     1      -1.163  11.189  22.046  0.00  0.00    +0.000 C 
ATOM     10  C   UNL     1      -1.601  11.616  23.418  0.00  0.00    +0.000 C 
ATOM     11  C   UNL     1      -2.734  12.305  23.594  0.00  0.00    +0.000 C 
ATOM     12  C   UNL     1      -3.495  12.621  22.364  0.00  0.00    +0.000 C 
ATOM     13  N   UNL     1      -3.086  12.485  21.139  0.00  0.00    +0.000 NA
ATOM     14  N   UNL     1      -1.859  11.920  20.979  0.00  0.00    +0.000 N 
ENDROOT
BRANCH   5  15
ATOM     15  C   UNL     1       1.509   8.337  20.073  0.00  0.00    +0.000 A 
ATOM     16  C   UNL     1       1.288   7.223  20.904  0.00  0.00    +0.000 A 
ATOM     17  C   UNL     1       1.718   5.945  20.540  0.00  0.00    +0.000 A 
ATOM     18  C   UNL     1       2.382   5.751  19.334  0.00  0.00    +0.000 A 
ATOM     19 CL   UNL     1       2.935   4.189  18.899  0.00  0.00    +0.000 Cl
ATOM     20  C   UNL     1       2.602   6.836  18.485  0.00  0.00    +0.000 A 
ATOM     21  C   UNL     1       2.155   8.114  18.848  0.00  0.00    +0.000 A 
ENDBRANCH   5  15
BRANCH   1  23
ATOM     22  O   UNL     1      -0.847  13.076  17.693  0.00  0.00    +0.000 OA
ATOM     23  C   UNL     1      -1.308  12.346  18.568  0.00  0.00    +0.000 C 
ATOM     24  N   UNL     1      -2.290  11.396  18.359  0.00  0.00    +0.000 N 
ATOM     25  H   UNL     1      -2.875  11.235  19.181  0.00  0.00    +0.000 HD
BRANCH  24  26
ATOM     26  C   UNL     1      -2.742  10.992  17.094  0.00  0.00    +0.000 A 
ATOM     27  C   UNL     1      -2.056  10.025  16.349  0.00  0.00    +0.000 A 
ATOM     28  C   UNL     1      -2.554   9.610  15.110  0.00  0.00    +0.000 A 
ATOM     29  C   UNL     1      -3.713  10.191  14.601  0.00  0.00    +0.000 A 
ATOM     30 CL   UNL     1      -4.309   9.711  13.060  0.00  0.00    +0.000 Cl
ATOM     31  C   UNL     1      -4.396  11.160  15.335  0.00  0.00    +0.000 A 
ATOM     32  C   UNL     1      -3.927  11.537  16.598  0.00  0.00    +0.000 A 
ENDBRANCH  24  26
ENDBRANCH   1  23
TORSDOF 3
ENDMDL
MODEL 2
REMARK VINA RESULT:      -7.5      3.619      6.076
REMARK  Name = 
REMARK  3 active torsions:
REMARK  status: ('A' for Active; 'I' for Inactive)
REMARK    1  A    between atoms: C_2  and  C_11
REMARK    2  A    between atoms: N_3  and  C_4
REMARK    3  A    between atoms: N_15  and  C_16
REMARK                            x       y       z     vdW  Elec       q    Type
REMARK                         _______ _______ _______ _____ _____    ______ ____
ROOT
ATOM      1  C   UNL     1      -1.418  12.308  20.012  0.00  0.00    +0.000 C 
ATOM      2  C   UNL     1      -0.940  13.626  19.418  0.00  0.00    +0.000 C 
ATOM      3  C   UNL     1       0.453  13.651  18.848  0.00  0.00    +0.000 C 
ATOM      4  O   UNL     1       0.830  12.903  17.961  0.00  0.00    +0.000 OA
ATOM      5  N   UNL     1       1.181  14.650  19.460  0.00  0.00    +0.000 N 
ATOM      6  C   UNL     1       0.421  15.329  20.382  0.00  0.00    +0.000 C 
ATOM      7  O   UNL     1       0.696  16.338  21.017  0.00  0.00    +0.000 OA
ATOM      8  C   UNL     1      -0.871  14.598  20.579  0.00  0.00    +0.000 C 
ATOM      9  C   UNL     1      -0.735  13.754  21.836  0.00  0.00    +0.000 C 
ATOM     10  C   UNL     1      -1.544  14.282  22.986  0.00  0.00    +0.000 C 
ATOM     11  C   UNL     1      -2.248  13.456  23.768  0.00  0.00    +0.000 C 
ATOM     12  C   UNL     1      -2.185  12.020  23.412  0.00  0.00    +0.000 C 
ATOM     13  N   UNL     1      -1.698  11.510  22.322  0.00  0.00    +0.000 NA
ATOM     14  N   UNL     1      -1.117  12.387  21.459  0.00  0.00    +0.000 N 
ENDROOT
BRANCH   5  15
ATOM     15  C   UNL     1       2.556  14.908  19.189  0.00  0.00    +0.000 A 
ATOM     16  C   UNL     1       2.975  15.386  17.934  0.00  0.00    +0.000 A 
ATOM     17  C   UNL     1       4.329  15.564  17.637  0.00  0.00    +0.000 A 
ATOM     18  C   UNL     1       5.296  15.267  18.590  0.00  0.00    +0.000 A 
ATOM     19 CL   UNL     1       6.957  15.459  18.218  0.00  0.00    +0.000 Cl
ATOM     20  C   UNL     1       4.906  14.805  19.848  0.00  0.00    +0.000 A 
ATOM     21  C   UNL     1       3.547  14.642  20.147  0.00  0.00    +0.000 A 
ENDBRANCH   5  15
BRANCH   1  23
ATOM     22  O   UNL     1      -1.367  10.534  18.383  0.00  0.00    +0.000 OA
ATOM     23  C   UNL     1      -0.820  11.055  19.354  0.00  0.00    +0.000 C 
ATOM     24  N   UNL     1       0.288  10.539  19.999  0.00  0.00    +0.000 N 
ATOM     25  H   UNL     1       0.323  10.778  20.992  0.00  0.00    +0.000 HD
BRANCH  24  26
ATOM     26  C   UNL     1       1.061   9.473  19.512  0.00  0.00    +0.000 A 
ATOM     27  C   UNL     1       1.598   9.493  18.220  0.00  0.00    +0.000 A 
ATOM     28  C   UNL     1       2.401   8.436  17.778  0.00  0.00    +0.000 A 
ATOM     29  C   UNL     1       2.631   7.347  18.613  0.00  0.00    +0.000 A 
ATOM     30 CL   UNL     1       3.587   6.027  18.060  0.00  0.00    +0.000 Cl
ATOM     31  C   UNL     1       2.093   7.319  19.899  0.00  0.00    +0.000 A 
ATOM     32  C   UNL     1       1.334   8.399  20.361  0.00  0.00    +0.000 A 
ENDBRANCH  24  26
ENDBRANCH   1  23
TORSDOF 3
ENDMDL
MODEL 3
REMARK VINA RESULT:      -7.4      3.648      6.056
REMARK  Name = 
REMARK  3 active torsions:
REMARK  status: ('A' for Active; 'I' for Inactive)
REMARK    1  A    between atoms: C_2  and  C_11
REMARK    2  A    between atoms: N_3  and  C_4
REMARK    3  A    between atoms: N_15  and  C_16
REMARK                            x       y       z     vdW  Elec       q    Type
REMARK                         _______ _______ _______ _____ _____    ______ ____
ROOT
ATOM      1  C   UNL     1      -1.295  12.129  20.013  0.00  0.00    +0.000 C 
ATOM      2  C   UNL     1      -0.818  13.440  19.404  0.00  0.00    +0.000 C 
ATOM      3  C   UNL     1       0.581  13.463  18.846  0.00  0.00    +0.000 C 
ATOM      4  O   UNL     1       0.969  12.704  17.973  0.00  0.00    +0.000 OA
ATOM      5  N   UNL     1       1.299  14.473  19.451  0.00  0.00    +0.000 N 
ATOM      6  C   UNL     1       0.528  15.162  20.356  0.00  0.00    +0.000 C 
ATOM      7  O   UNL     1       0.793  16.182  20.978  0.00  0.00    +0.000 OA
ATOM      8  C   UNL     1      -0.763  14.429  20.552  0.00  0.00    +0.000 C 
ATOM      9  C   UNL     1      -0.635  13.603  21.822  0.00  0.00    +0.000 C 
ATOM     10  C   UNL     1      -1.456  14.144  22.957  0.00  0.00    +0.000 C 
ATOM     11  C   UNL     1      -2.164  13.326  23.743  0.00  0.00    +0.000 C 
ATOM     12  C   UNL     1      -2.092  11.886  23.409  0.00  0.00    +0.000 C 
ATOM     13  N   UNL     1      -1.593  11.362  22.331  0.00  0.00    +0.000 NA
ATOM     14  N   UNL     1      -1.008  12.229  21.461  0.00  0.00    +0.000 N 
ENDROOT
BRANCH   5  15
ATOM     15  C   UNL     1       2.675  14.733  19.189  0.00  0.00    +0.000 A 
ATOM     16  C   UNL     1       3.652  14.569  20.188  0.00  0.00    +0.000 A 
ATOM     17  C   UNL     1       4.990  14.900  19.960  0.00  0.00    +0.000 A 
ATOM     18  C   UNL     1       5.383  15.403  18.725  0.00  0.00    +0.000 A 
ATOM     19 CL   UNL     1       7.019  15.834  18.454  0.00  0.00    +0.000 Cl
ATOM     20  C   UNL     1       4.436  15.562  17.712  0.00  0.00    +0.000 A 
ATOM     21  C   UNL     1       3.098  15.215  17.940  0.00  0.00    +0.000 A 
ENDBRANCH   5  15
BRANCH   1  23
ATOM     22  O   UNL     1      -1.229  10.325  18.416  0.00  0.00    +0.000 OA
ATOM     23  C   UNL     1      -0.687  10.868  19.377  0.00  0.00    +0.000 C 
ATOM     24  N   UNL     1       0.426  10.374  20.032  0.00  0.00    +0.000 N 
ATOM     25  H   UNL     1       0.458  10.632  21.020  0.00  0.00    +0.000 HD
BRANCH  24  26
ATOM     26  C   UNL     1       1.208   9.306  19.566  0.00  0.00    +0.000 A 
ATOM     27  C   UNL     1       1.468   8.189  20.367  0.00  0.00    +0.000 A 
ATOM     28  C   UNL     1       2.214   7.120  19.859  0.00  0.00    +0.000 A 
ATOM     29  C   UNL     1       2.731   7.189  18.568  0.00  0.00    +0.000 A 
ATOM     30 CL   UNL     1       3.681   5.893  17.954  0.00  0.00    +0.000 Cl
ATOM     31  C   UNL     1       2.481   8.303  17.769  0.00  0.00    +0.000 A 
ATOM     32  C   UNL     1       1.690   9.349  18.257  0.00  0.00    +0.000 A 
ENDBRANCH  24  26
ENDBRANCH   1  23
TORSDOF 3
ENDMDL
MODEL 4
REMARK VINA RESULT:      -7.3      3.603      6.568
REMARK  Name = 
REMARK  3 active torsions:
REMARK  status: ('A' for Active; 'I' for Inactive)
REMARK    1  A    between atoms: C_2  and  C_11
REMARK    2  A    between atoms: N_3  and  C_4
REMARK    3  A    between atoms: N_15  and  C_16
REMARK                            x       y       z     vdW  Elec       q    Type
REMARK                         _______ _______ _______ _____ _____    ______ ____
ROOT
ATOM      1  C   UNL     1      -0.177  10.582  20.219  0.00  0.00    +0.000 C 
ATOM      2  C   UNL     1      -0.035  11.715  19.212  0.00  0.00    +0.000 C 
ATOM      3  C   UNL     1       1.363  12.185  18.908  0.00  0.00    +0.000 C 
ATOM      4  O   UNL     1       2.242  11.452  18.484  0.00  0.00    +0.000 OA
ATOM      5  N   UNL     1       1.454  13.539  19.154  0.00  0.00    +0.000 N 
ATOM      6  C   UNL     1       0.252  14.053  19.578  0.00  0.00    +0.000 C 
ATOM      7  O   UNL     1      -0.066  15.219  19.768  0.00  0.00    +0.000 OA
ATOM      8  C   UNL     1      -0.688  12.921  19.858  0.00  0.00    +0.000 C 
ATOM      9  C   UNL     1      -0.669  12.666  21.356  0.00  0.00    +0.000 C 
ATOM     10  C   UNL     1      -1.933  13.102  22.040  0.00  0.00    +0.000 C 
ATOM     11  C   UNL     1      -2.508  12.337  22.974  0.00  0.00    +0.000 C 
ATOM     12  C   UNL     1      -1.830  11.053  23.264  0.00  0.00    +0.000 C 
ATOM     13  N   UNL     1      -0.874  10.506  22.577  0.00  0.00    +0.000 NA
ATOM     14  N   UNL     1      -0.400  11.233  21.529  0.00  0.00    +0.000 N 
ENDROOT
BRANCH   5  15
ATOM     15  C   UNL     1       2.657  14.290  19.018  0.00  0.00    +0.000 A 
ATOM     16  C   UNL     1       3.521  14.488  20.110  0.00  0.00    +0.000 A 
ATOM     17  C   UNL     1       4.660  15.290  20.002  0.00  0.00    +0.000 A 
ATOM     18  C   UNL     1       4.961  15.914  18.798  0.00  0.00    +0.000 A 
ATOM     19 CL   UNL     1       6.343  16.920  18.672  0.00  0.00    +0.000 Cl
ATOM     20  C   UNL     1       4.128  15.723  17.694  0.00  0.00    +0.000 A 
ATOM     21  C   UNL     1       2.995  14.906  17.803  0.00  0.00    +0.000 A 
ENDBRANCH   5  15
BRANCH   1  23
ATOM     22  O   UNL     1       1.738   9.522  21.228  0.00  0.00    +0.000 OA
ATOM     23  C   UNL     1       1.003   9.596  20.245  0.00  0.00    +0.000 C 
ATOM     24  N   UNL     1       1.203   8.908  19.063  0.00  0.00    +0.000 N 
ATOM     25  H   UNL     1       0.842   9.401  18.244  0.00  0.00    +0.000 HD
BRANCH  24  26
ATOM     26  C   UNL     1       2.144   7.880  18.897  0.00  0.00    +0.000 A 
ATOM     27  C   UNL     1       2.216   6.807  19.792  0.00  0.00    +0.000 A 
ATOM     28  C   UNL     1       3.134   5.773  19.577  0.00  0.00    +0.000 A 
ATOM     29  C   UNL     1       4.004   5.837  18.491  0.00  0.00    +0.000 A 
ATOM     30 CL   UNL     1       5.161   4.587  18.244  0.00  0.00    +0.000 Cl
ATOM     31  C   UNL     1       3.941   6.907  17.600  0.00  0.00    +0.000 A 
ATOM     32  C   UNL     1       2.987   7.914  17.786  0.00  0.00    +0.000 A 
ENDBRANCH  24  26
ENDBRANCH   1  23
TORSDOF 3
ENDMDL
MODEL 5
REMARK VINA RESULT:      -7.3      4.321      6.029
REMARK  Name = 
REMARK  3 active torsions:
REMARK  status: ('A' for Active; 'I' for Inactive)
REMARK    1  A    between atoms: C_2  and  C_11
REMARK    2  A    between atoms: N_3  and  C_4
REMARK    3  A    between atoms: N_15  and  C_16
REMARK                            x       y       z     vdW  Elec       q    Type
REMARK                         _______ _______ _______ _____ _____    ______ ____
ROOT
ATOM      1  C   UNL     1      -2.699  16.080  22.918  0.00  0.00    +0.000 C 
ATOM      2  C   UNL     1      -2.310  14.874  23.762  0.00  0.00    +0.000 C 
ATOM      3  C   UNL     1      -1.251  13.963  23.201  0.00  0.00    +0.000 C 
ATOM      4  O   UNL     1      -0.132  14.341  22.895  0.00  0.00    +0.000 OA
ATOM      5  N   UNL     1      -1.744  12.677  23.131  0.00  0.00    +0.000 N 
ATOM      6  C   UNL     1      -3.031  12.607  23.607  0.00  0.00    +0.000 C 
ATOM      7  O   UNL     1      -3.729  11.622  23.807  0.00  0.00    +0.000 OA
ATOM      8  C   UNL     1      -3.546  13.998  23.819  0.00  0.00    +0.000 C 
ATOM      9  C   UNL     1      -4.388  14.367  22.608  0.00  0.00    +0.000 C 
ATOM     10  C   UNL     1      -5.858  14.413  22.910  0.00  0.00    +0.000 C 
ATOM     11  C   UNL     1      -6.626  15.401  22.437  0.00  0.00    +0.000 C 
ATOM     12  C   UNL     1      -5.931  16.427  21.627  0.00  0.00    +0.000 C 
ATOM     13  N   UNL     1      -4.648  16.582  21.502  0.00  0.00    +0.000 NA
ATOM     14  N   UNL     1      -3.871  15.652  22.121  0.00  0.00    +0.000 N 
ENDROOT
BRANCH   5  15
ATOM     15  C   UNL     1      -1.014  11.576  22.595  0.00  0.00    +0.000 A 
ATOM     16  C   UNL     1      -0.605  11.558  21.249  0.00  0.00    +0.000 A 
ATOM     17  C   UNL     1       0.040  10.448  20.698  0.00  0.00    +0.000 A 
ATOM     18  C   UNL     1       0.291   9.328  21.483  0.00  0.00    +0.000 A 
ATOM     19 CL   UNL     1       1.058   7.956  20.801  0.00  0.00    +0.000 Cl
ATOM     20  C   UNL     1      -0.091   9.326  22.825  0.00  0.00    +0.000 A 
ATOM     21  C   UNL     1      -0.725  10.447  23.377  0.00  0.00    +0.000 A 
ENDBRANCH   5  15
BRANCH   1  23
ATOM     22  O   UNL     1      -0.811  17.511  22.477  0.00  0.00    +0.000 OA
ATOM     23  C   UNL     1      -1.567  16.642  22.044  0.00  0.00    +0.000 C 
ATOM     24  N   UNL     1      -1.551  16.166  20.746  0.00  0.00    +0.000 N 
ATOM     25  H   UNL     1      -2.467  15.850  20.423  0.00  0.00    +0.000 HD
BRANCH  24  26
ATOM     26  C   UNL     1      -0.544  16.452  19.812  0.00  0.00    +0.000 A 
ATOM     27  C   UNL     1       0.713  15.842  19.885  0.00  0.00    +0.000 A 
ATOM     28  C   UNL     1       1.683  16.114  18.914  0.00  0.00    +0.000 A 
ATOM     29  C   UNL     1       1.407  17.024  17.897  0.00  0.00    +0.000 A 
ATOM     30 CL   UNL     1       2.610  17.390  16.722  0.00  0.00    +0.000 Cl
ATOM     31  C   UNL     1       0.159  17.640  17.824  0.00  0.00    +0.000 A 
ATOM     32  C   UNL     1      -0.829  17.329  18.764  0.00  0.00    +0.000 A 
ENDBRANCH  24  26
ENDBRANCH   1  23
TORSDOF 3
ENDMDL
MODEL 6
REMARK VINA RESULT:      -7.2      3.520      6.551
REMARK  Name = 
REMARK  3 active torsions:
REMARK  status: ('A' for Active; 'I' for Inactive)
REMARK    1  A    between atoms: C_2  and  C_11
REMARK    2  A    between atoms: N_3  and  C_4
REMARK    3  A    between atoms: N_15  and  C_16
REMARK                            x       y       z     vdW  Elec       q    Type
REMARK                         _______ _______ _______ _____ _____    ______ ____
ROOT
ATOM      1  C   UNL     1      -0.089  10.401  20.269  0.00  0.00    +0.000 C 
ATOM      2  C   UNL     1       0.040  11.552  19.280  0.00  0.00    +0.000 C 
ATOM      3  C   UNL     1       1.435  12.021  18.960  0.00  0.00    +0.000 C 
ATOM      4  O   UNL     1       2.303  11.292  18.508  0.00  0.00    +0.000 OA
ATOM      5  N   UNL     1       1.537  13.370  19.229  0.00  0.00    +0.000 N 
ATOM      6  C   UNL     1       0.345  13.881  19.683  0.00  0.00    +0.000 C 
ATOM      7  O   UNL     1       0.037  15.045  19.899  0.00  0.00    +0.000 OA
ATOM      8  C   UNL     1      -0.595  12.749  19.958  0.00  0.00    +0.000 C 
ATOM      9  C   UNL     1      -0.551  12.467  21.452  0.00  0.00    +0.000 C 
ATOM     10  C   UNL     1      -1.801  12.897  22.165  0.00  0.00    +0.000 C 
ATOM     11  C   UNL     1      -2.364  12.118  23.095  0.00  0.00    +0.000 C 
ATOM     12  C   UNL     1      -1.687  10.826  23.350  0.00  0.00    +0.000 C 
ATOM     13  N   UNL     1      -0.747  10.286  22.637  0.00  0.00    +0.000 NA
ATOM     14  N   UNL     1      -0.287  11.030  21.594  0.00  0.00    +0.000 N 
ENDROOT
BRANCH   5  15
ATOM     15  C   UNL     1       2.742  14.117  19.085  0.00  0.00    +0.000 A 
ATOM     16  C   UNL     1       3.160  14.594  17.830  0.00  0.00    +0.000 A 
ATOM     17  C   UNL     1       4.380  15.257  17.671  0.00  0.00    +0.000 A 
ATOM     18  C   UNL     1       5.211  15.458  18.766  0.00  0.00    +0.000 A 
ATOM     19 CL   UNL     1       6.719  16.247  18.567  0.00  0.00    +0.000 Cl
ATOM     20  C   UNL     1       4.814  15.007  20.026  0.00  0.00    +0.000 A 
ATOM     21  C   UNL     1       3.583  14.356  20.183  0.00  0.00    +0.000 A 
ENDBRANCH   5  15
BRANCH   1  23
ATOM     22  O   UNL     1       1.836   9.314  21.226  0.00  0.00    +0.000 OA
ATOM     23  C   UNL     1       1.086   9.410  20.257  0.00  0.00    +0.000 C 
ATOM     24  N   UNL     1       1.263   8.743  19.059  0.00  0.00    +0.000 N 
ATOM     25  H   UNL     1       0.891   9.254  18.256  0.00  0.00    +0.000 HD
BRANCH  24  26
ATOM     26  C   UNL     1       2.195   7.714  18.858  0.00  0.00    +0.000 A 
ATOM     27  C   UNL     1       3.136   7.775  17.824  0.00  0.00    +0.000 A 
ATOM     28  C   UNL     1       4.082   6.755  17.675  0.00  0.00    +0.000 A 
ATOM     29  C   UNL     1       4.058   5.660  18.534  0.00  0.00    +0.000 A 
ATOM     30 CL   UNL     1       5.195   4.384  18.330  0.00  0.00    +0.000 Cl
ATOM     31  C   UNL     1       3.118   5.591  19.561  0.00  0.00    +0.000 A 
ATOM     32  C   UNL     1       2.206   6.635  19.743  0.00  0.00    +0.000 A 
ENDBRANCH  24  26
ENDBRANCH   1  23
TORSDOF 3
ENDMDL
MODEL 7
REMARK VINA RESULT:      -7.2      3.352      4.939
REMARK  Name = 
REMARK  3 active torsions:
REMARK  status: ('A' for Active; 'I' for Inactive)
REMARK    1  A    between atoms: C_2  and  C_11
REMARK    2  A    between atoms: N_3  and  C_4
REMARK    3  A    between atoms: N_15  and  C_16
REMARK                            x       y       z     vdW  Elec       q    Type
REMARK                         _______ _______ _______ _____ _____    ______ ____
ROOT
ATOM      1  C   UNL     1      -0.735  14.186  19.641  0.00  0.00    +0.000 C 
ATOM      2  C   UNL     1      -0.286  13.217  18.555  0.00  0.00    +0.000 C 
ATOM      3  C   UNL     1      -0.300  11.752  18.903  0.00  0.00    +0.000 C 
ATOM      4  O   UNL     1      -1.300  11.159  19.275  0.00  0.00    +0.000 OA
ATOM      5  N   UNL     1       0.956  11.221  18.699  0.00  0.00    +0.000 N 
ATOM      6  C   UNL     1       1.830  12.171  18.228  0.00  0.00    +0.000 C 
ATOM      7  O   UNL     1       2.978  12.033  17.826  0.00  0.00    +0.000 OA
ATOM      8  C   UNL     1       1.181  13.517  18.321  0.00  0.00    +0.000 C 
ATOM      9  C   UNL     1       1.689  14.186  19.587  0.00  0.00    +0.000 C 
ATOM     10  C   UNL     1       2.635  15.319  19.312  0.00  0.00    +0.000 C 
ATOM     11  C   UNL     1       2.547  16.469  19.990  0.00  0.00    +0.000 C 
ATOM     12  C   UNL     1       1.464  16.543  20.996  0.00  0.00    +0.000 C 
ATOM     13  N   UNL     1       0.480  15.709  21.143  0.00  0.00    +0.000 NA
ATOM     14  N   UNL     1       0.499  14.615  20.335  0.00  0.00    +0.000 N 
ENDROOT
BRANCH   5  15
ATOM     15  C   UNL     1       1.300   9.867  18.983  0.00  0.00    +0.000 A 
ATOM     16  C   UNL     1       1.156   9.334  20.277  0.00  0.00    +0.000 A 
ATOM     17  C   UNL     1       1.567   8.033  20.579  0.00  0.00    +0.000 A 
ATOM     18  C   UNL     1       2.132   7.235  19.592  0.00  0.00    +0.000 A 
ATOM     19 CL   UNL     1       2.661   5.649  19.967  0.00  0.00    +0.000 Cl
ATOM     20  C   UNL     1       2.272   7.734  18.296  0.00  0.00    +0.000 A 
ATOM     21  C   UNL     1       1.846   9.034  17.995  0.00  0.00    +0.000 A 
ENDBRANCH   5  15
BRANCH   1  23
ATOM     22  O   UNL     1      -1.456  13.147  21.692  0.00  0.00    +0.000 OA
ATOM     23  C   UNL     1      -1.789  13.622  20.607  0.00  0.00    +0.000 C 
ATOM     24  N   UNL     1      -3.079  13.611  20.110  0.00  0.00    +0.000 N 
ATOM     25  H   UNL     1      -3.116  13.585  19.089  0.00  0.00    +0.000 HD
BRANCH  24  26
ATOM     26  C   UNL     1      -4.211  13.250  20.856  0.00  0.00    +0.000 A 
ATOM     27  C   UNL     1      -4.392  13.700  22.168  0.00  0.00    +0.000 A 
ATOM     28  C   UNL     1      -5.552  13.360  22.874  0.00  0.00    +0.000 A 
ATOM     29  C   UNL     1      -6.505  12.538  22.279  0.00  0.00    +0.000 A 
ATOM     30 CL   UNL     1      -7.915  12.085  23.156  0.00  0.00    +0.000 Cl
ATOM     31  C   UNL     1      -6.326  12.080  20.975  0.00  0.00    +0.000 A 
ATOM     32  C   UNL     1      -5.192  12.463  20.251  0.00  0.00    +0.000 A 
ENDBRANCH  24  26
ENDBRANCH   1  23
TORSDOF 3
ENDMDL
MODEL 8
REMARK VINA RESULT:      -7.2      3.759      6.628
REMARK  Name = 
REMARK  3 active torsions:
REMARK  status: ('A' for Active; 'I' for Inactive)
REMARK    1  A    between atoms: C_2  and  C_11
REMARK    2  A    between atoms: N_3  and  C_4
REMARK    3  A    between atoms: N_15  and  C_16
REMARK                            x       y       z     vdW  Elec       q    Type
REMARK                         _______ _______ _______ _____ _____    ______ ____
ROOT
ATOM      1  C   UNL     1      -0.772  11.669  20.426  0.00  0.00    +0.000 C 
ATOM      2  C   UNL     1      -0.572  12.822  19.452  0.00  0.00    +0.000 C 
ATOM      3  C   UNL     1       0.847  13.260  19.198  0.00  0.00    +0.000 C 
ATOM      4  O   UNL     1       1.716  12.513  18.779  0.00  0.00    +0.000 OA
ATOM      5  N   UNL     1       0.968  14.604  19.480  0.00  0.00    +0.000 N 
ATOM      6  C   UNL     1      -0.230  15.141  19.885  0.00  0.00    +0.000 C 
ATOM      7  O   UNL     1      -0.521  16.311  20.096  0.00  0.00    +0.000 OA
ATOM      8  C   UNL     1      -1.208  14.030  20.111  0.00  0.00    +0.000 C 
ATOM      9  C   UNL     1      -1.237  13.738  21.602  0.00  0.00    +0.000 C 
ATOM     10  C   UNL     1      -2.506  14.193  22.263  0.00  0.00    +0.000 C 
ATOM     11  C   UNL     1      -3.128  13.421  23.163  0.00  0.00    +0.000 C 
ATOM     12  C   UNL     1      -2.494  12.112  23.437  0.00  0.00    +0.000 C 
ATOM     13  N   UNL     1      -1.535  11.555  22.762  0.00  0.00    +0.000 NA
ATOM     14  N   UNL     1      -1.013  12.294  21.746  0.00  0.00    +0.000 N 
ENDROOT
BRANCH   5  15
ATOM     15  C   UNL     1       2.195  15.324  19.395  0.00  0.00    +0.000 A 
ATOM     16  C   UNL     1       2.613  15.914  18.188  0.00  0.00    +0.000 A 
ATOM     17  C   UNL     1       3.852  16.551  18.079  0.00  0.00    +0.000 A 
ATOM     18  C   UNL     1       4.703  16.611  19.176  0.00  0.00    +0.000 A 
ATOM     19 CL   UNL     1       6.234  17.367  19.035  0.00  0.00    +0.000 Cl
ATOM     20  C   UNL     1       4.307  16.045  20.389  0.00  0.00    +0.000 A 
ATOM     21  C   UNL     1       3.058  15.421  20.498  0.00  0.00    +0.000 A 
ENDBRANCH   5  15
BRANCH   1  23
ATOM     22  O   UNL     1       1.178  10.635  21.393  0.00  0.00    +0.000 OA
ATOM     23  C   UNL     1       0.379  10.650  20.458  0.00  0.00    +0.000 C 
ATOM     24  N   UNL     1       0.477   9.858  19.330  0.00  0.00    +0.000 N 
ATOM     25  H   UNL     1       0.073  10.292  18.497  0.00  0.00    +0.000 HD
BRANCH  24  26
ATOM     26  C   UNL     1       1.374   8.788  19.191  0.00  0.00    +0.000 A 
ATOM     27  C   UNL     1       1.497   7.807  20.181  0.00  0.00    +0.000 A 
ATOM     28  C   UNL     1       2.369   6.728  19.995  0.00  0.00    +0.000 A 
ATOM     29  C   UNL     1       3.142   6.656  18.840  0.00  0.00    +0.000 A 
ATOM     30 CL   UNL     1       4.243   5.351  18.625  0.00  0.00    +0.000 Cl
ATOM     31  C   UNL     1       3.029   7.635  17.854  0.00  0.00    +0.000 A 
ATOM     32  C   UNL     1       2.120   8.685  18.016  0.00  0.00    +0.000 A 
ENDBRANCH  24  26
ENDBRANCH   1  23
TORSDOF 3
ENDMDL
MODEL 9
REMARK VINA RESULT:      -7.2      4.509      6.439
REMARK  Name = 
REMARK  3 active torsions:
REMARK  status: ('A' for Active; 'I' for Inactive)
REMARK    1  A    between atoms: C_2  and  C_11
REMARK    2  A    between atoms: N_3  and  C_4
REMARK    3  A    between atoms: N_15  and  C_16
REMARK                            x       y       z     vdW  Elec       q    Type
REMARK                         _______ _______ _______ _____ _____    ______ ____
ROOT
ATOM      1  C   UNL     1      -3.674  16.581  21.639  0.00  0.00    +0.000 C 
ATOM      2  C   UNL     1      -3.495  15.477  22.673  0.00  0.00    +0.000 C 
ATOM      3  C   UNL     1      -2.336  14.537  22.472  0.00  0.00    +0.000 C 
ATOM      4  O   UNL     1      -1.176  14.906  22.396  0.00  0.00    +0.000 OA
ATOM      5  N   UNL     1      -2.803  13.240  22.425  0.00  0.00    +0.000 N 
ATOM      6  C   UNL     1      -4.166  13.191  22.593  0.00  0.00    +0.000 C 
ATOM      7  O   UNL     1      -4.893  12.217  22.728  0.00  0.00    +0.000 OA
ATOM      8  C   UNL     1      -4.712  14.584  22.533  0.00  0.00    +0.000 C 
ATOM      9  C   UNL     1      -5.247  14.808  21.128  0.00  0.00    +0.000 C 
ATOM     10  C   UNL     1      -6.747  14.853  21.073  0.00  0.00    +0.000 C 
ATOM     11  C   UNL     1      -7.381  15.770  20.333  0.00  0.00    +0.000 C 
ATOM     12  C   UNL     1      -6.513  16.722  19.603  0.00  0.00    +0.000 C 
ATOM     13  N   UNL     1      -5.237  16.892  19.765  0.00  0.00    +0.000 NA
ATOM     14  N   UNL     1      -4.628  16.048  20.641  0.00  0.00    +0.000 N 
ENDROOT
BRANCH   5  15
ATOM     15  C   UNL     1      -1.970  12.107  22.192  0.00  0.00    +0.000 A 
ATOM     16  C   UNL     1      -1.587  11.255  23.244  0.00  0.00    +0.000 A 
ATOM     17  C   UNL     1      -0.706  10.190  23.035  0.00  0.00    +0.000 A 
ATOM     18  C   UNL     1      -0.188   9.953  21.768  0.00  0.00    +0.000 A 
ATOM     19 CL   UNL     1       0.913   8.665  21.516  0.00  0.00    +0.000 Cl
ATOM     20  C   UNL     1      -0.563  10.775  20.704  0.00  0.00    +0.000 A 
ATOM     21  C   UNL     1      -1.458  11.832  20.915  0.00  0.00    +0.000 A 
ENDBRANCH   5  15
BRANCH   1  23
ATOM     22  O   UNL     1      -1.725  17.993  21.507  0.00  0.00    +0.000 OA
ATOM     23  C   UNL     1      -2.367  17.075  20.998  0.00  0.00    +0.000 C 
ATOM     24  N   UNL     1      -2.056  16.478  19.790  0.00  0.00    +0.000 N 
ATOM     25  H   UNL     1      -2.876  16.118  19.298  0.00  0.00    +0.000 HD
BRANCH  24  26
ATOM     26  C   UNL     1      -0.860  16.690  19.089  0.00  0.00    +0.000 A 
ATOM     27  C   UNL     1       0.283  15.926  19.349  0.00  0.00    +0.000 A 
ATOM     28  C   UNL     1       1.449  16.129  18.603  0.00  0.00    +0.000 A 
ATOM     29  C   UNL     1       1.480  17.123  17.628  0.00  0.00    +0.000 A 
ATOM     30 CL   UNL     1       2.924  17.403  16.734  0.00  0.00    +0.000 Cl
ATOM     31  C   UNL     1       0.347  17.892  17.370  0.00  0.00    +0.000 A 
ATOM     32  C   UNL     1      -0.835  17.653  18.079  0.00  0.00    +0.000 A 
ENDBRANCH  24  26
ENDBRANCH   1  23
TORSDOF 3
ENDMDL
