MODEL 1
REMARK VINA RESULT:      -7.3      0.000      0.000
REMARK  Name = 
REMARK  8 active torsions:
REMARK  status: ('A' for Active; 'I' for Inactive)
REMARK    1  A    between atoms: C_1  and  C_2
REMARK    2  A    between atoms: C_4  and  C_5
REMARK    3  A    between atoms: C_12  and  C_13
REMARK    4  A    between atoms: C_13  and  C_14
REMARK    5  A    between atoms: C_14  and  C_15
REMARK    6  A    between atoms: N_17  and  C_18
REMARK    7  A    between atoms: C_18  and  C_19
REMARK    8  A    between atoms: C_18  and  C_20
REMARK                            x       y       z     vdW  Elec       q    Type
REMARK                         _______ _______ _______ _____ _____    ______ ____
ROOT
ATOM      1  C   UNL     1       0.080  11.980  19.677  0.00  0.00    +0.000 C 
ATOM      2  O   UNL     1       0.082  12.607  18.616  0.00  0.00    +0.000 OA
ATOM      3  N   UNL     1       0.715  10.718  19.780  0.00  0.00    +0.000 N 
ATOM      4  C   UNL     1       0.513   9.843  20.942  0.00  0.00    +0.000 C 
ATOM      5  C   UNL     1       1.156   8.468  20.972  0.00  0.00    +0.000 C 
ATOM      6  N   UNL     1       1.798   8.108  19.745  0.00  0.00    +0.000 N 
ATOM      7  N   UNL     1       2.422   6.923  19.645  0.00  0.00    +0.000 NA
ATOM      8  C   UNL     1       2.943   6.944  18.412  0.00  0.00    +0.000 A 
ATOM      9  C   UNL     1       2.620   8.144  17.736  0.00  0.00    +0.000 A 
ATOM     10  C   UNL     1       1.874   8.877  18.631  0.00  0.00    +0.000 A 
ATOM     11  C   UNL     1       1.232  10.199  18.522  0.00  0.00    +0.000 C 
ENDROOT
BRANCH   1  15
ATOM     12  C   UNL     1      -3.739  12.715  22.766  0.00  0.00    +0.000 C 
ATOM     13  C   UNL     1      -2.361  12.842  22.226  0.00  0.00    +0.000 A 
ATOM     14  N   UNL     1      -1.966  12.247  21.127  0.00  0.00    +0.000 NA
ATOM     15  C   UNL     1      -0.631  12.524  20.853  0.00  0.00    +0.000 A 
ATOM     16  C   UNL     1      -0.037  13.344  21.797  0.00  0.00    +0.000 A 
ATOM     17  S   UNL     1      -1.169  13.788  23.011  0.00  0.00    +0.000 S 
ENDBRANCH   1  15
BRANCH   8  18
ATOM     18  C   UNL     1       3.760   5.803  17.916  0.00  0.00    +0.000 C 
BRANCH  18  19
ATOM     19  C   UNL     1       4.663   5.216  18.996  0.00  0.00    +0.000 C 
BRANCH  19  20
ATOM     20  C   UNL     1       4.156   3.867  19.449  0.00  0.00    +0.000 C 
ATOM     21  O   UNL     1       4.892   2.907  19.672  0.00  0.00    +0.000 OA
ATOM     22  N   UNL     1       2.785   3.815  19.579  0.00  0.00    +0.000 N 
ATOM     23  H   UNL     1       2.238   4.598  19.244  0.00  0.00    +0.000 HD
BRANCH  22  24
ATOM     24  C   UNL     1       2.098   2.593  19.968  0.00  0.00    +0.000 C 
ATOM     25  C   UNL     1       1.492   2.749  21.358  0.00  0.00    +0.000 C 
ATOM     26  C   UNL     1       1.025   2.220  18.949  0.00  0.00    +0.000 C 
ENDBRANCH  22  24
ENDBRANCH  19  20
ENDBRANCH  18  19
ENDBRANCH   8  18
TORSDOF 5
ENDMDL
MODEL 2
REMARK VINA RESULT:      -7.1      1.845      2.334
REMARK  Name = 
REMARK  8 active torsions:
REMARK  status: ('A' for Active; 'I' for Inactive)
REMARK    1  A    between atoms: C_1  and  C_2
REMARK    2  A    between atoms: C_4  and  C_5
REMARK    3  A    between atoms: C_12  and  C_13
REMARK    4  A    between atoms: C_13  and  C_14
REMARK    5  A    between atoms: C_14  and  C_15
REMARK    6  A    between atoms: N_17  and  C_18
REMARK    7  A    between atoms: C_18  and  C_19
REMARK    8  A    between atoms: C_18  and  C_20
REMARK                            x       y       z     vdW  Elec       q    Type
REMARK                         _______ _______ _______ _____ _____    ______ ____
ROOT
ATOM      1  C   UNL     1      -0.495  10.577  22.743  0.00  0.00    +0.000 C 
ATOM      2  O   UNL     1      -0.404   9.911  23.775  0.00  0.00    +0.000 OA
ATOM      3  N   UNL     1       0.071  10.119  21.528  0.00  0.00    +0.000 N 
ATOM      4  C   UNL     1       0.202  10.996  20.356  0.00  0.00    +0.000 C 
ATOM      5  C   UNL     1       0.882  10.481  19.101  0.00  0.00    +0.000 C 
ATOM      6  N   UNL     1       1.475   9.189  19.258  0.00  0.00    +0.000 N 
ATOM      7  N   UNL     1       2.094   8.610  18.216  0.00  0.00    +0.000 NA
ATOM      8  C   UNL     1       2.471   7.418  18.695  0.00  0.00    +0.000 A 
ATOM      9  C   UNL     1       2.100   7.266  20.052  0.00  0.00    +0.000 A 
ATOM     10  C   UNL     1       1.456   8.436  20.386  0.00  0.00    +0.000 A 
ATOM     11  C   UNL     1       0.853   8.897  21.650  0.00  0.00    +0.000 C 
ENDROOT
BRANCH   1  15
ATOM     12  C   UNL     1      -0.894  15.478  23.440  0.00  0.00    +0.000 C 
ATOM     13  C   UNL     1      -1.320  14.097  23.095  0.00  0.00    +0.000 A 
ATOM     14  N   UNL     1      -0.516  13.064  23.158  0.00  0.00    +0.000 NA
ATOM     15  C   UNL     1      -1.162  11.895  22.772  0.00  0.00    +0.000 A 
ATOM     16  C   UNL     1      -2.483  12.095  22.406  0.00  0.00    +0.000 A 
ATOM     17  S   UNL     1      -2.915  13.749  22.578  0.00  0.00    +0.000 S 
ENDBRANCH   1  15
BRANCH   8  18
ATOM     18  C   UNL     1       3.172   6.439  17.821  0.00  0.00    +0.000 C 
BRANCH  18  19
ATOM     19  C   UNL     1       4.143   5.553  18.595  0.00  0.00    +0.000 C 
BRANCH  19  20
ATOM     20  C   UNL     1       3.617   4.141  18.704  0.00  0.00    +0.000 C 
ATOM     21  O   UNL     1       3.924   3.241  17.924  0.00  0.00    +0.000 OA
ATOM     22  N   UNL     1       2.748   3.963  19.760  0.00  0.00    +0.000 N 
ATOM     23  H   UNL     1       2.435   4.779  20.271  0.00  0.00    +0.000 HD
BRANCH  22  24
ATOM     24  C   UNL     1       2.102   2.684  20.013  0.00  0.00    +0.000 C 
ATOM     25  C   UNL     1       1.732   2.564  21.487  0.00  0.00    +0.000 C 
ATOM     26  C   UNL     1       0.869   2.510  19.130  0.00  0.00    +0.000 C 
ENDBRANCH  22  24
ENDBRANCH  19  20
ENDBRANCH  18  19
ENDBRANCH   8  18
TORSDOF 5
ENDMDL
MODEL 3
REMARK VINA RESULT:      -6.9      2.058      3.380
REMARK  Name = 
REMARK  8 active torsions:
REMARK  status: ('A' for Active; 'I' for Inactive)
REMARK    1  A    between atoms: C_1  and  C_2
REMARK    2  A    between atoms: C_4  and  C_5
REMARK    3  A    between atoms: C_12  and  C_13
REMARK    4  A    between atoms: C_13  and  C_14
REMARK    5  A    between atoms: C_14  and  C_15
REMARK    6  A    between atoms: N_17  and  C_18
REMARK    7  A    between atoms: C_18  and  C_19
REMARK    8  A    between atoms: C_18  and  C_20
REMARK                            x       y       z     vdW  Elec       q    Type
REMARK                         _______ _______ _______ _____ _____    ______ ____
ROOT
ATOM      1  C   UNL     1      -0.110  10.855  22.220  0.00  0.00    +0.000 C 
ATOM      2  O   UNL     1      -0.109  10.343  23.341  0.00  0.00    +0.000 OA
ATOM      3  N   UNL     1       0.400  10.155  21.099  0.00  0.00    +0.000 N 
ATOM      4  C   UNL     1       0.645  10.826  19.815  0.00  0.00    +0.000 C 
ATOM      5  C   UNL     1       1.262  10.050  18.665  0.00  0.00    +0.000 C 
ATOM      6  N   UNL     1       1.687   8.732  19.024  0.00  0.00    +0.000 N 
ATOM      7  N   UNL     1       2.233   7.934  18.093  0.00  0.00    +0.000 NA
ATOM      8  C   UNL     1       2.455   6.789  18.750  0.00  0.00    +0.000 A 
ATOM      9  C   UNL     1       2.061   6.887  20.105  0.00  0.00    +0.000 A 
ATOM     10  C   UNL     1       1.567   8.164  20.249  0.00  0.00    +0.000 A 
ATOM     11  C   UNL     1       1.021   8.878  21.417  0.00  0.00    +0.000 C 
ENDROOT
BRANCH   1  15
ATOM     12  C   UNL     1       0.144  15.812  22.037  0.00  0.00    +0.000 C 
ATOM     13  C   UNL     1      -0.470  14.461  21.966  0.00  0.00    +0.000 A 
ATOM     14  N   UNL     1       0.203  13.357  22.179  0.00  0.00    +0.000 NA
ATOM     15  C   UNL     1      -0.607  12.234  22.041  0.00  0.00    +0.000 A 
ATOM     16  C   UNL     1      -1.915  12.542  21.704  0.00  0.00    +0.000 A 
ATOM     17  S   UNL     1      -2.127  14.243  21.593  0.00  0.00    +0.000 S 
ENDBRANCH   1  15
BRANCH   8  18
ATOM     18  C   UNL     1       3.032   5.612  18.045  0.00  0.00    +0.000 C 
BRANCH  18  19
ATOM     19  C   UNL     1       3.295   4.438  18.983  0.00  0.00    +0.000 C 
BRANCH  19  20
ATOM     20  C   UNL     1       4.765   4.089  19.012  0.00  0.00    +0.000 C 
ATOM     21  O   UNL     1       5.228   3.163  19.674  0.00  0.00    +0.000 OA
ATOM     22  N   UNL     1       5.538   4.919  18.228  0.00  0.00    +0.000 N 
ATOM     23  H   UNL     1       5.108   5.743  17.826  0.00  0.00    +0.000 HD
BRANCH  22  24
ATOM     24  C   UNL     1       6.984   4.773  18.152  0.00  0.00    +0.000 C 
ATOM     25  C   UNL     1       7.423   4.640  16.698  0.00  0.00    +0.000 C 
ATOM     26  C   UNL     1       7.690   5.947  18.825  0.00  0.00    +0.000 C 
ENDBRANCH  22  24
ENDBRANCH  19  20
ENDBRANCH  18  19
ENDBRANCH   8  18
TORSDOF 5
ENDMDL
MODEL 4
REMARK VINA RESULT:      -6.9      2.271      3.720
REMARK  Name = 
REMARK  8 active torsions:
REMARK  status: ('A' for Active; 'I' for Inactive)
REMARK    1  A    between atoms: C_1  and  C_2
REMARK    2  A    between atoms: C_4  and  C_5
REMARK    3  A    between atoms: C_12  and  C_13
REMARK    4  A    between atoms: C_13  and  C_14
REMARK    5  A    between atoms: C_14  and  C_15
REMARK    6  A    between atoms: N_17  and  C_18
REMARK    7  A    between atoms: C_18  and  C_19
REMARK    8  A    between atoms: C_18  and  C_20
REMARK                            x       y       z     vdW  Elec       q    Type
REMARK                         _______ _______ _______ _____ _____    ______ ____
ROOT
ATOM      1  C   UNL     1       0.552  10.309  21.488  0.00  0.00    +0.000 C 
ATOM      2  O   UNL     1       0.445  10.011  22.678  0.00  0.00    +0.000 OA
ATOM      3  N   UNL     1       1.006   9.362  20.536  0.00  0.00    +0.000 N 
ATOM      4  C   UNL     1       1.383   9.756  19.173  0.00  0.00    +0.000 C 
ATOM      5  C   UNL     1       1.934   8.717  18.212  0.00  0.00    +0.000 C 
ATOM      6  N   UNL     1       2.169   7.443  18.819  0.00  0.00    +0.000 N 
ATOM      7  N   UNL     1       2.640   6.430  18.074  0.00  0.00    +0.000 NA
ATOM      8  C   UNL     1       2.685   5.403  18.931  0.00  0.00    +0.000 A 
ATOM      9  C   UNL     1       2.259   5.789  20.223  0.00  0.00    +0.000 A 
ATOM     10  C   UNL     1       1.932   7.122  20.114  0.00  0.00    +0.000 A 
ATOM     11  C   UNL     1       1.442   8.097  21.107  0.00  0.00    +0.000 C 
ENDROOT
BRANCH   1  15
ATOM     12  C   UNL     1       1.403  15.129  20.645  0.00  0.00    +0.000 C 
ATOM     13  C   UNL     1       0.650  13.848  20.675  0.00  0.00    +0.000 A 
ATOM     14  N   UNL     1       1.156  12.733  21.140  0.00  0.00    +0.000 NA
ATOM     15  C   UNL     1       0.248  11.684  21.043  0.00  0.00    +0.000 A 
ATOM     16  C   UNL     1      -0.959  12.058  20.475  0.00  0.00    +0.000 A 
ATOM     17  S   UNL     1      -0.956  13.733  20.094  0.00  0.00    +0.000 S 
ENDBRANCH   1  15
BRANCH   8  18
ATOM     18  C   UNL     1       3.128   4.056  18.476  0.00  0.00    +0.000 C 
BRANCH  18  19
ATOM     19  C   UNL     1       4.337   3.544  19.252  0.00  0.00    +0.000 C 
BRANCH  19  20
ATOM     20  C   UNL     1       5.587   4.300  18.864  0.00  0.00    +0.000 C 
ATOM     21  O   UNL     1       6.316   4.866  19.677  0.00  0.00    +0.000 OA
ATOM     22  N   UNL     1       5.825   4.300  17.506  0.00  0.00    +0.000 N 
ATOM     23  H   UNL     1       5.109   3.935  16.890  0.00  0.00    +0.000 HD
BRANCH  22  24
ATOM     24  C   UNL     1       6.957   5.006  16.927  0.00  0.00    +0.000 C 
ATOM     25  C   UNL     1       7.128   4.615  15.463  0.00  0.00    +0.000 C 
ATOM     26  C   UNL     1       6.792   6.517  17.068  0.00  0.00    +0.000 C 
ENDBRANCH  22  24
ENDBRANCH  19  20
ENDBRANCH  18  19
ENDBRANCH   8  18
TORSDOF 5
ENDMDL
MODEL 5
REMARK VINA RESULT:      -6.9      0.950      1.149
REMARK  Name = 
REMARK  8 active torsions:
REMARK  status: ('A' for Active; 'I' for Inactive)
REMARK    1  A    between atoms: C_1  and  C_2
REMARK    2  A    between atoms: C_4  and  C_5
REMARK    3  A    between atoms: C_12  and  C_13
REMARK    4  A    between atoms: C_13  and  C_14
REMARK    5  A    between atoms: C_14  and  C_15
REMARK    6  A    between atoms: N_17  and  C_18
REMARK    7  A    between atoms: C_18  and  C_19
REMARK    8  A    between atoms: C_18  and  C_20
REMARK                            x       y       z     vdW  Elec       q    Type
REMARK                         _______ _______ _______ _____ _____    ______ ____
ROOT
ATOM      1  C   UNL     1       0.013  12.200  19.283  0.00  0.00    +0.000 C 
ATOM      2  O   UNL     1       0.108  12.796  18.209  0.00  0.00    +0.000 OA
ATOM      3  N   UNL     1       0.622  10.934  19.470  0.00  0.00    +0.000 N 
ATOM      4  C   UNL     1       0.316  10.094  20.635  0.00  0.00    +0.000 C 
ATOM      5  C   UNL     1       0.938   8.713  20.754  0.00  0.00    +0.000 C 
ATOM      6  N   UNL     1       1.671   8.313  19.593  0.00  0.00    +0.000 N 
ATOM      7  N   UNL     1       2.286   7.119  19.575  0.00  0.00    +0.000 NA
ATOM      8  C   UNL     1       2.904   7.100  18.388  0.00  0.00    +0.000 A 
ATOM      9  C   UNL     1       2.651   8.284  17.655  0.00  0.00    +0.000 A 
ATOM     10  C   UNL     1       1.846   9.049  18.468  0.00  0.00    +0.000 A 
ATOM     11  C   UNL     1       1.231  10.375  18.272  0.00  0.00    +0.000 C 
ENDROOT
BRANCH   1  15
ATOM     12  C   UNL     1      -0.822  14.779  23.444  0.00  0.00    +0.000 C 
ATOM     13  C   UNL     1      -1.135  13.944  22.255  0.00  0.00    +0.000 A 
ATOM     14  N   UNL     1      -0.222  13.538  21.407  0.00  0.00    +0.000 NA
ATOM     15  C   UNL     1      -0.782  12.783  20.382  0.00  0.00    +0.000 A 
ATOM     16  C   UNL     1      -2.156  12.649  20.490  0.00  0.00    +0.000 A 
ATOM     17  S   UNL     1      -2.734  13.448  21.898  0.00  0.00    +0.000 S 
ENDBRANCH   1  15
BRANCH   8  18
ATOM     18  C   UNL     1       3.743   5.937  17.990  0.00  0.00    +0.000 C 
BRANCH  18  19
ATOM     19  C   UNL     1       4.584   5.400  19.144  0.00  0.00    +0.000 C 
BRANCH  19  20
ATOM     20  C   UNL     1       4.134   4.012  19.539  0.00  0.00    +0.000 C 
ATOM     21  O   UNL     1       4.904   3.064  19.678  0.00  0.00    +0.000 OA
ATOM     22  N   UNL     1       2.770   3.912  19.718  0.00  0.00    +0.000 N 
ATOM     23  H   UNL     1       2.188   4.696  19.450  0.00  0.00    +0.000 HD
BRANCH  22  24
ATOM     24  C   UNL     1       2.134   2.649  20.063  0.00  0.00    +0.000 C 
ATOM     25  C   UNL     1       1.480   2.748  21.437  0.00  0.00    +0.000 C 
ATOM     26  C   UNL     1       1.112   2.244  19.004  0.00  0.00    +0.000 C 
ENDBRANCH  22  24
ENDBRANCH  19  20
ENDBRANCH  18  19
ENDBRANCH   8  18
TORSDOF 5
ENDMDL
MODEL 6
REMARK VINA RESULT:      -6.8      3.545      8.259
REMARK  Name = 
REMARK  8 active torsions:
REMARK  status: ('A' for Active; 'I' for Inactive)
REMARK    1  A    between atoms: C_1  and  C_2
REMARK    2  A    between atoms: C_4  and  C_5
REMARK    3  A    between atoms: C_12  and  C_13
REMARK    4  A    between atoms: C_13  and  C_14
REMARK    5  A    between atoms: C_14  and  C_15
REMARK    6  A    between atoms: N_17  and  C_18
REMARK    7  A    between atoms: C_18  and  C_19
REMARK    8  A    between atoms: C_18  and  C_20
REMARK                            x       y       z     vdW  Elec       q    Type
REMARK                         _______ _______ _______ _____ _____    ______ ____
ROOT
ATOM      1  C   UNL     1       3.131   5.932  18.353  0.00  0.00    +0.000 C 
ATOM      2  O   UNL     1       3.682   6.025  17.255  0.00  0.00    +0.000 OA
ATOM      3  N   UNL     1       2.428   7.027  18.912  0.00  0.00    +0.000 N 
ATOM      4  C   UNL     1       1.985   7.028  20.313  0.00  0.00    +0.000 C 
ATOM      5  C   UNL     1       1.300   8.256  20.886  0.00  0.00    +0.000 C 
ATOM      6  N   UNL     1       1.292   9.377  19.997  0.00  0.00    +0.000 N 
ATOM      7  N   UNL     1       0.700  10.521  20.376  0.00  0.00    +0.000 NA
ATOM      8  C   UNL     1       0.831  11.313  19.305  0.00  0.00    +0.000 A 
ATOM      9  C   UNL     1       1.528  10.660  18.261  0.00  0.00    +0.000 A 
ATOM     10  C   UNL     1       1.814   9.404  18.746  0.00  0.00    +0.000 A 
ATOM     11  C   UNL     1       2.532   8.262  18.149  0.00  0.00    +0.000 C 
ENDROOT
BRANCH   1  15
ATOM     12  C   UNL     1       1.736   2.424  21.581  0.00  0.00    +0.000 C 
ATOM     13  C   UNL     1       2.594   3.115  20.583  0.00  0.00    +0.000 A 
ATOM     14  N   UNL     1       2.268   4.258  20.030  0.00  0.00    +0.000 NA
ATOM     15  C   UNL     1       3.239   4.678  19.127  0.00  0.00    +0.000 A 
ATOM     16  C   UNL     1       4.302   3.797  19.018  0.00  0.00    +0.000 A 
ATOM     17  S   UNL     1       4.090   2.459  20.074  0.00  0.00    +0.000 S 
ENDBRANCH   1  15
BRANCH   8  18
ATOM     18  C   UNL     1       0.261  12.688  19.307  0.00  0.00    +0.000 C 
BRANCH  18  19
ATOM     19  C   UNL     1      -0.580  12.976  18.067  0.00  0.00    +0.000 C 
BRANCH  19  20
ATOM     20  C   UNL     1      -1.754  12.029  17.979  0.00  0.00    +0.000 C 
ATOM     21  O   UNL     1      -2.365  11.614  18.962  0.00  0.00    +0.000 OA
ATOM     22  N   UNL     1      -2.067  11.668  16.686  0.00  0.00    +0.000 N 
ATOM     23  H   UNL     1      -1.435  11.937  15.943  0.00  0.00    +0.000 HD
BRANCH  22  24
ATOM     24  C   UNL     1      -3.142  10.733  16.391  0.00  0.00    +0.000 C 
ATOM     25  C   UNL     1      -4.492  11.435  16.485  0.00  0.00    +0.000 C 
ATOM     26  C   UNL     1      -2.956  10.100  15.014  0.00  0.00    +0.000 C 
ENDBRANCH  22  24
ENDBRANCH  19  20
ENDBRANCH  18  19
ENDBRANCH   8  18
TORSDOF 5
ENDMDL
MODEL 7
REMARK VINA RESULT:      -6.8      3.582      8.630
REMARK  Name = 
REMARK  8 active torsions:
REMARK  status: ('A' for Active; 'I' for Inactive)
REMARK    1  A    between atoms: C_1  and  C_2
REMARK    2  A    between atoms: C_4  and  C_5
REMARK    3  A    between atoms: C_12  and  C_13
REMARK    4  A    between atoms: C_13  and  C_14
REMARK    5  A    between atoms: C_14  and  C_15
REMARK    6  A    between atoms: N_17  and  C_18
REMARK    7  A    between atoms: C_18  and  C_19
REMARK    8  A    between atoms: C_18  and  C_20
REMARK                            x       y       z     vdW  Elec       q    Type
REMARK                         _______ _______ _______ _____ _____    ______ ____
ROOT
ATOM      1  C   UNL     1       2.488   5.419  20.082  0.00  0.00    +0.000 C 
ATOM      2  O   UNL     1       2.198   5.060  21.225  0.00  0.00    +0.000 OA
ATOM      3  N   UNL     1       2.265   6.751  19.657  0.00  0.00    +0.000 N 
ATOM      4  C   UNL     1       2.360   7.138  18.244  0.00  0.00    +0.000 C 
ATOM      5  C   UNL     1       2.039   8.563  17.828  0.00  0.00    +0.000 C 
ATOM      6  N   UNL     1       1.516   9.366  18.890  0.00  0.00    +0.000 N 
ATOM      7  N   UNL     1       1.208  10.653  18.660  0.00  0.00    +0.000 NA
ATOM      8  C   UNL     1       0.811  11.101  19.857  0.00  0.00    +0.000 A 
ATOM      9  C   UNL     1       0.854  10.077  20.832  0.00  0.00    +0.000 A 
ATOM     10  C   UNL     1       1.316   8.963  20.169  0.00  0.00    +0.000 A 
ATOM     11  C   UNL     1       1.563   7.582  20.625  0.00  0.00    +0.000 C 
ENDROOT
BRANCH   1  15
ATOM     12  C   UNL     1       5.324   3.786  16.346  0.00  0.00    +0.000 C 
ATOM     13  C   UNL     1       4.317   3.729  17.437  0.00  0.00    +0.000 A 
ATOM     14  N   UNL     1       3.992   4.769  18.165  0.00  0.00    +0.000 NA
ATOM     15  C   UNL     1       3.036   4.441  19.120  0.00  0.00    +0.000 A 
ATOM     16  C   UNL     1       2.664   3.107  19.085  0.00  0.00    +0.000 A 
ATOM     17  S   UNL     1       3.497   2.279  17.831  0.00  0.00    +0.000 S 
ENDBRANCH   1  15
BRANCH   8  18
ATOM     18  C   UNL     1       0.410  12.523  20.038  0.00  0.00    +0.000 C 
BRANCH  18  19
ATOM     19  C   UNL     1      -0.314  13.087  18.820  0.00  0.00    +0.000 C 
BRANCH  19  20
ATOM     20  C   UNL     1      -1.632  12.381  18.600  0.00  0.00    +0.000 C 
ATOM     21  O   UNL     1      -2.512  12.308  19.455  0.00  0.00    +0.000 OA
ATOM     22  N   UNL     1      -1.746  11.818  17.346  0.00  0.00    +0.000 N 
ATOM     23  H   UNL     1      -0.928  11.798  16.749  0.00  0.00    +0.000 HD
BRANCH  22  24
ATOM     24  C   UNL     1      -2.923  11.060  16.951  0.00  0.00    +0.000 C 
ATOM     25  C   UNL     1      -2.979  10.927  15.434  0.00  0.00    +0.000 C 
ATOM     26  C   UNL     1      -2.939   9.686  17.616  0.00  0.00    +0.000 C 
ENDBRANCH  22  24
ENDBRANCH  19  20
ENDBRANCH  18  19
ENDBRANCH   8  18
TORSDOF 5
ENDMDL
MODEL 8
REMARK VINA RESULT:      -6.8      2.376      3.969
REMARK  Name = 
REMARK  8 active torsions:
REMARK  status: ('A' for Active; 'I' for Inactive)
REMARK    1  A    between atoms: C_1  and  C_2
REMARK    2  A    between atoms: C_4  and  C_5
REMARK    3  A    between atoms: C_12  and  C_13
REMARK    4  A    between atoms: C_13  and  C_14
REMARK    5  A    between atoms: C_14  and  C_15
REMARK    6  A    between atoms: N_17  and  C_18
REMARK    7  A    between atoms: C_18  and  C_19
REMARK    8  A    between atoms: C_18  and  C_20
REMARK                            x       y       z     vdW  Elec       q    Type
REMARK                         _______ _______ _______ _____ _____    ______ ____
ROOT
ATOM      1  C   UNL     1       0.783  10.654  20.760  0.00  0.00    +0.000 C 
ATOM      2  O   UNL     1       0.580  10.626  21.975  0.00  0.00    +0.000 OA
ATOM      3  N   UNL     1       1.156   9.483  20.056  0.00  0.00    +0.000 N 
ATOM      4  C   UNL     1       1.649   9.536  18.673  0.00  0.00    +0.000 C 
ATOM      5  C   UNL     1       2.106   8.262  17.985  0.00  0.00    +0.000 C 
ATOM      6  N   UNL     1       2.143   7.124  18.852  0.00  0.00    +0.000 N 
ATOM      7  N   UNL     1       2.513   5.929  18.363  0.00  0.00    +0.000 NA
ATOM      8  C   UNL     1       2.381   5.106  19.410  0.00  0.00    +0.000 A 
ATOM      9  C   UNL     1       1.945   5.801  20.562  0.00  0.00    +0.000 A 
ATOM     10  C   UNL     1       1.802   7.111  20.163  0.00  0.00    +0.000 A 
ATOM     11  C   UNL     1       1.395   8.322  20.900  0.00  0.00    +0.000 C 
ENDROOT
BRANCH   1  15
ATOM     12  C   UNL     1       2.354  14.977  18.886  0.00  0.00    +0.000 C 
ATOM     13  C   UNL     1       1.410  13.872  19.196  0.00  0.00    +0.000 A 
ATOM     14  N   UNL     1       1.750  12.816  19.892  0.00  0.00    +0.000 NA
ATOM     15  C   UNL     1       0.684  11.932  20.026  0.00  0.00    +0.000 A 
ATOM     16  C   UNL     1      -0.468  12.365  19.392  0.00  0.00    +0.000 A 
ATOM     17  S   UNL     1      -0.214  13.896  18.655  0.00  0.00    +0.000 S 
ENDBRANCH   1  15
BRANCH   8  18
ATOM     18  C   UNL     1       2.666   3.651  19.270  0.00  0.00    +0.000 C 
BRANCH  18  19
ATOM     19  C   UNL     1       3.443   3.327  17.998  0.00  0.00    +0.000 C 
BRANCH  19  20
ATOM     20  C   UNL     1       4.851   3.869  18.072  0.00  0.00    +0.000 C 
ATOM     21  O   UNL     1       5.571   3.753  19.062  0.00  0.00    +0.000 OA
ATOM     22  N   UNL     1       5.247   4.517  16.921  0.00  0.00    +0.000 N 
ATOM     23  H   UNL     1       4.554   4.695  16.204  0.00  0.00    +0.000 HD
BRANCH  22  24
ATOM     24  C   UNL     1       6.555   5.143  16.806  0.00  0.00    +0.000 C 
ATOM     25  C   UNL     1       7.104   4.962  15.395  0.00  0.00    +0.000 C 
ATOM     26  C   UNL     1       6.488   6.624  17.174  0.00  0.00    +0.000 C 
ENDBRANCH  22  24
ENDBRANCH  19  20
ENDBRANCH  18  19
ENDBRANCH   8  18
TORSDOF 5
ENDMDL
MODEL 9
REMARK VINA RESULT:      -6.7      1.856      2.773
REMARK  Name = 
REMARK  8 active torsions:
REMARK  status: ('A' for Active; 'I' for Inactive)
REMARK    1  A    between atoms: C_1  and  C_2
REMARK    2  A    between atoms: C_4  and  C_5
REMARK    3  A    between atoms: C_12  and  C_13
REMARK    4  A    between atoms: C_13  and  C_14
REMARK    5  A    between atoms: C_14  and  C_15
REMARK    6  A    between atoms: N_17  and  C_18
REMARK    7  A    between atoms: C_18  and  C_19
REMARK    8  A    between atoms: C_18  and  C_20
REMARK                            x       y       z     vdW  Elec       q    Type
REMARK                         _______ _______ _______ _____ _____    ______ ____
ROOT
ATOM      1  C   UNL     1      -0.666  12.662  20.374  0.00  0.00    +0.000 C 
ATOM      2  O   UNL     1      -0.851  13.345  19.366  0.00  0.00    +0.000 OA
ATOM      3  N   UNL     1       0.057  11.446  20.309  0.00  0.00    +0.000 N 
ATOM      4  C   UNL     1       0.073  10.495  21.429  0.00  0.00    +0.000 C 
ATOM      5  C   UNL     1       0.802   9.171  21.284  0.00  0.00    +0.000 C 
ATOM      6  N   UNL     1       1.290   8.927  19.961  0.00  0.00    +0.000 N 
ATOM      7  N   UNL     1       1.970   7.798  19.702  0.00  0.00    +0.000 NA
ATOM      8  C   UNL     1       2.313   7.925  18.414  0.00  0.00    +0.000 A 
ATOM      9  C   UNL     1       1.823   9.134  17.866  0.00  0.00    +0.000 A 
ATOM     10  C   UNL     1       1.162   9.760  18.899  0.00  0.00    +0.000 A 
ATOM     11  C   UNL     1       0.427  11.036  18.962  0.00  0.00    +0.000 C 
ENDROOT
BRANCH   1  15
ATOM     12  C   UNL     1      -4.027  12.881  24.025  0.00  0.00    +0.000 C 
ATOM     13  C   UNL     1      -2.766  13.173  23.294  0.00  0.00    +0.000 A 
ATOM     14  N   UNL     1      -2.485  12.661  22.122  0.00  0.00    +0.000 NA
ATOM     15  C   UNL     1      -1.241  13.087  21.667  0.00  0.00    +0.000 A 
ATOM     16  C   UNL     1      -0.597  13.934  22.553  0.00  0.00    +0.000 A 
ATOM     17  S   UNL     1      -1.570  14.214  23.941  0.00  0.00    +0.000 S 
ENDBRANCH   1  15
BRANCH   8  18
ATOM     18  C   UNL     1       3.125   6.875  17.741  0.00  0.00    +0.000 C 
BRANCH  18  19
ATOM     19  C   UNL     1       2.914   5.492  18.347  0.00  0.00    +0.000 C 
BRANCH  19  20
ATOM     20  C   UNL     1       3.808   4.469  17.685  0.00  0.00    +0.000 C 
ATOM     21  O   UNL     1       3.686   3.257  17.847  0.00  0.00    +0.000 OA
ATOM     22  N   UNL     1       4.781   5.032  16.887  0.00  0.00    +0.000 N 
ATOM     23  H   UNL     1       4.907   6.036  16.914  0.00  0.00    +0.000 HD
BRANCH  22  24
ATOM     24  C   UNL     1       5.767   4.218  16.193  0.00  0.00    +0.000 C 
ATOM     25  C   UNL     1       5.635   4.404  14.685  0.00  0.00    +0.000 C 
ATOM     26  C   UNL     1       7.181   4.555  16.657  0.00  0.00    +0.000 C 
ENDBRANCH  22  24
ENDBRANCH  19  20
ENDBRANCH  18  19
ENDBRANCH   8  18
TORSDOF 5
ENDMDL
