MODEL 1
REMARK VINA RESULT:      -8.5      0.000      0.000
REMARK  Name = 
REMARK  6 active torsions:
REMARK  status: ('A' for Active; 'I' for Inactive)
REMARK    1  A    between atoms: C_1  and  C_2
REMARK    2  A    between atoms: C_5  and  N_6
REMARK    3  A    between atoms: N_6  and  S_7
REMARK    4  A    between atoms: S_7  and  C_10
REMARK    5  A    between atoms: C_13  and  C_14
REMARK    6  A    between atoms: C_22  and  C_23
REMARK                            x       y       z     vdW  Elec       q    Type
REMARK                         _______ _______ _______ _____ _____    ______ ____
ROOT
ATOM      1  N   UNL     1       5.816   4.799  19.394  0.00  0.00    +0.000 N 
ATOM      2  H   UNL     1       6.456   4.282  20.005  0.00  0.00    +0.000 HD
ENDROOT
BRANCH   1   7
ATOM      3  C   UNL     1       0.906   3.444  18.914  0.00  0.00    +0.000 C 
ATOM      4  C   UNL     1       2.395   3.325  19.020  0.00  0.00    +0.000 A 
ATOM      5  C   UNL     1       3.056   2.115  19.121  0.00  0.00    +0.000 A 
ATOM      6  S   UNL     1       4.733   2.295  19.369  0.00  0.00    +0.000 S 
ATOM      7  C   UNL     1       4.626   3.994  19.253  0.00  0.00    +0.000 A 
ATOM      8  C   UNL     1       3.329   4.436  19.093  0.00  0.00    +0.000 A 
BRANCH   8   9
ATOM      9  C   UNL     1       2.894   5.882  19.015  0.00  0.00    +0.000 A 
ATOM     10  N   UNL     1       2.348   6.460  20.063  0.00  0.00    +0.000 NA
ATOM     11  C   UNL     1       1.920   7.731  19.747  0.00  0.00    +0.000 A 
ATOM     12  C   UNL     1       1.197   8.586  20.592  0.00  0.00    +0.000 A 
ATOM     13  C   UNL     1       0.820   9.850  20.136  0.00  0.00    +0.000 A 
ATOM     14  C   UNL     1       1.161  10.268  18.850  0.00  0.00    +0.000 A 
ATOM     15  C   UNL     1       1.891   9.439  17.997  0.00  0.00    +0.000 A 
ATOM     16  C   UNL     1       2.245   8.161  18.460  0.00  0.00    +0.000 A 
ATOM     17  S   UNL     1       3.093   6.907  17.655  0.00  0.00    +0.000 S 
ENDBRANCH   8   9
ENDBRANCH   1   7
BRANCH   1  18
ATOM     18  S   UNL     1       6.689   4.910  17.919  0.00  0.00    +0.000 S 
ATOM     19  O   UNL     1       7.814   4.005  18.037  0.00  0.00    +0.000 OA
ATOM     20  O   UNL     1       5.783   4.869  16.791  0.00  0.00    +0.000 OA
BRANCH  18  21
ATOM     21  C   UNL     1       7.323   6.567  18.046  0.00  0.00    +0.000 A 
ATOM     22  C   UNL     1       6.828   7.568  17.211  0.00  0.00    +0.000 A 
ATOM     23  C   UNL     1       7.357   8.863  17.293  0.00  0.00    +0.000 A 
ATOM     24  C   UNL     1       8.369   9.194  18.216  0.00  0.00    +0.000 A 
ATOM     25  C   UNL     1       8.814   8.168  19.075  0.00  0.00    +0.000 A 
ATOM     26  C   UNL     1       8.294   6.870  18.999  0.00  0.00    +0.000 A 
BRANCH  24  27
ATOM     27  C   UNL     1       8.944  10.560  18.275  0.00  0.00    +0.000 A 
ATOM     28  C   UNL     1      10.147  10.824  18.957  0.00  0.00    +0.000 A 
ATOM     29  C   UNL     1      10.673  12.118  19.045  0.00  0.00    +0.000 A 
ATOM     30  C   UNL     1      10.015  13.181  18.436  0.00  0.00    +0.000 A 
ATOM     31  C   UNL     1       8.834  12.951  17.742  0.00  0.00    +0.000 A 
ATOM     32  C   UNL     1       8.304  11.658  17.666  0.00  0.00    +0.000 A 
ENDBRANCH  24  27
ENDBRANCH  18  21
ENDBRANCH   1  18
TORSDOF 5
ENDMDL
MODEL 2
REMARK VINA RESULT:      -8.5      5.553      9.130
REMARK  Name = 
REMARK  6 active torsions:
REMARK  status: ('A' for Active; 'I' for Inactive)
REMARK    1  A    between atoms: C_1  and  C_2
REMARK    2  A    between atoms: C_5  and  N_6
REMARK    3  A    between atoms: N_6  and  S_7
REMARK    4  A    between atoms: S_7  and  C_10
REMARK    5  A    between atoms: C_13  and  C_14
REMARK    6  A    between atoms: C_22  and  C_23
REMARK                            x       y       z     vdW  Elec       q    Type
REMARK                         _______ _______ _______ _____ _____    ______ ____
ROOT
ATOM      1  N   UNL     1      -0.662  10.967  19.649  0.00  0.00    +0.000 N 
ATOM      2  H   UNL     1      -0.252  10.592  18.789  0.00  0.00    +0.000 HD
ENDROOT
BRANCH   1   7
ATOM      3  C   UNL     1      -1.328  15.960  20.550  0.00  0.00    +0.000 C 
ATOM      4  C   UNL     1      -0.747  14.694  19.999  0.00  0.00    +0.000 A 
ATOM      5  C   UNL     1       0.248  14.668  19.040  0.00  0.00    +0.000 A 
ATOM      6  S   UNL     1       0.610  13.090  18.503  0.00  0.00    +0.000 S 
ATOM      7  C   UNL     1      -0.490  12.400  19.609  0.00  0.00    +0.000 A 
ATOM      8  C   UNL     1      -1.178  13.348  20.339  0.00  0.00    +0.000 A 
BRANCH   8   9
ATOM      9  C   UNL     1      -2.259  13.063  21.357  0.00  0.00    +0.000 A 
ATOM     10  N   UNL     1      -3.520  13.039  20.984  0.00  0.00    +0.000 NA
ATOM     11  C   UNL     1      -4.344  12.880  22.077  0.00  0.00    +0.000 A 
ATOM     12  C   UNL     1      -5.746  12.921  22.059  0.00  0.00    +0.000 A 
ATOM     13  C   UNL     1      -6.458  12.753  23.248  0.00  0.00    +0.000 A 
ATOM     14  C   UNL     1      -5.784  12.539  24.449  0.00  0.00    +0.000 A 
ATOM     15  C   UNL     1      -4.390  12.482  24.489  0.00  0.00    +0.000 A 
ATOM     16  C   UNL     1      -3.686  12.675  23.290  0.00  0.00    +0.000 A 
ATOM     17  S   UNL     1      -1.994  12.704  23.012  0.00  0.00    +0.000 S 
ENDBRANCH   8   9
ENDBRANCH   1   7
BRANCH   1  18
ATOM     18  S   UNL     1       0.292  10.245  20.882  0.00  0.00    +0.000 S 
ATOM     19  O   UNL     1       1.224  11.260  21.328  0.00  0.00    +0.000 OA
ATOM     20  O   UNL     1      -0.546   9.510  21.805  0.00  0.00    +0.000 OA
BRANCH  18  21
ATOM     21  C   UNL     1       1.212   9.062  19.924  0.00  0.00    +0.000 A 
ATOM     22  C   UNL     1       1.627   7.865  20.507  0.00  0.00    +0.000 A 
ATOM     23  C   UNL     1       2.381   6.954  19.757  0.00  0.00    +0.000 A 
ATOM     24  C   UNL     1       2.719   7.202  18.411  0.00  0.00    +0.000 A 
ATOM     25  C   UNL     1       2.245   8.400  17.841  0.00  0.00    +0.000 A 
ATOM     26  C   UNL     1       1.493   9.319  18.583  0.00  0.00    +0.000 A 
BRANCH  24  27
ATOM     27  C   UNL     1       3.544   6.244  17.633  0.00  0.00    +0.000 A 
ATOM     28  C   UNL     1       4.576   6.683  16.782  0.00  0.00    +0.000 A 
ATOM     29  C   UNL     1       5.331   5.786  16.020  0.00  0.00    +0.000 A 
ATOM     30  C   UNL     1       5.084   4.420  16.102  0.00  0.00    +0.000 A 
ATOM     31  C   UNL     1       4.082   3.953  16.945  0.00  0.00    +0.000 A 
ATOM     32  C   UNL     1       3.320   4.855  17.697  0.00  0.00    +0.000 A 
ENDBRANCH  24  27
ENDBRANCH  18  21
ENDBRANCH   1  18
TORSDOF 5
ENDMDL
MODEL 3
REMARK VINA RESULT:      -8.4      1.104      1.611
REMARK  Name = 
REMARK  6 active torsions:
REMARK  status: ('A' for Active; 'I' for Inactive)
REMARK    1  A    between atoms: C_1  and  C_2
REMARK    2  A    between atoms: C_5  and  N_6
REMARK    3  A    between atoms: N_6  and  S_7
REMARK    4  A    between atoms: S_7  and  C_10
REMARK    5  A    between atoms: C_13  and  C_14
REMARK    6  A    between atoms: C_22  and  C_23
REMARK                            x       y       z     vdW  Elec       q    Type
REMARK                         _______ _______ _______ _____ _____    ______ ____
ROOT
ATOM      1  N   UNL     1       4.732   5.418  17.278  0.00  0.00    +0.000 N 
ATOM      2  H   UNL     1       4.703   6.306  17.788  0.00  0.00    +0.000 HD
ENDROOT
BRANCH   1   7
ATOM      3  C   UNL     1       0.705   3.826  20.004  0.00  0.00    +0.000 C 
ATOM      4  C   UNL     1       1.891   3.786  19.090  0.00  0.00    +0.000 A 
ATOM      5  C   UNL     1       2.433   2.613  18.599  0.00  0.00    +0.000 A 
ATOM      6  S   UNL     1       3.859   2.868  17.700  0.00  0.00    +0.000 S 
ATOM      7  C   UNL     1       3.731   4.561  17.869  0.00  0.00    +0.000 A 
ATOM      8  C   UNL     1       2.659   4.939  18.650  0.00  0.00    +0.000 A 
BRANCH   8   9
ATOM      9  C   UNL     1       2.306   6.357  19.036  0.00  0.00    +0.000 A 
ATOM     10  N   UNL     1       2.051   6.652  20.293  0.00  0.00    +0.000 NA
ATOM     11  C   UNL     1       1.640   7.961  20.409  0.00  0.00    +0.000 A 
ATOM     12  C   UNL     1       1.184   8.575  21.585  0.00  0.00    +0.000 A 
ATOM     13  C   UNL     1       0.788   9.914  21.557  0.00  0.00    +0.000 A 
ATOM     14  C   UNL     1       0.850  10.643  20.370  0.00  0.00    +0.000 A 
ATOM     15  C   UNL     1       1.312  10.056  19.192  0.00  0.00    +0.000 A 
ATOM     16  C   UNL     1       1.686   8.703  19.228  0.00  0.00    +0.000 A 
ATOM     17  S   UNL     1       2.248   7.693  17.962  0.00  0.00    +0.000 S 
ENDBRANCH   8   9
ENDBRANCH   1   7
BRANCH   1  18
ATOM     18  S   UNL     1       6.322   4.845  17.583  0.00  0.00    +0.000 S 
ATOM     19  O   UNL     1       6.261   4.104  18.826  0.00  0.00    +0.000 OA
ATOM     20  O   UNL     1       6.897   4.285  16.379  0.00  0.00    +0.000 OA
BRANCH  18  21
ATOM     21  C   UNL     1       7.156   6.380  17.920  0.00  0.00    +0.000 A 
ATOM     22  C   UNL     1       8.088   6.453  18.956  0.00  0.00    +0.000 A 
ATOM     23  C   UNL     1       8.716   7.673  19.238  0.00  0.00    +0.000 A 
ATOM     24  C   UNL     1       8.449   8.835  18.487  0.00  0.00    +0.000 A 
ATOM     25  C   UNL     1       7.536   8.714  17.420  0.00  0.00    +0.000 A 
ATOM     26  C   UNL     1       6.901   7.500  17.131  0.00  0.00    +0.000 A 
BRANCH  24  27
ATOM     27  C   UNL     1       9.095  10.131  18.812  0.00  0.00    +0.000 A 
ATOM     28  C   UNL     1       9.526  11.013  17.804  0.00  0.00    +0.000 A 
ATOM     29  C   UNL     1      10.169  12.218  18.108  0.00  0.00    +0.000 A 
ATOM     30  C   UNL     1      10.383  12.580  19.433  0.00  0.00    +0.000 A 
ATOM     31  C   UNL     1       9.955  11.738  20.452  0.00  0.00    +0.000 A 
ATOM     32  C   UNL     1       9.323  10.528  20.145  0.00  0.00    +0.000 A 
ENDBRANCH  24  27
ENDBRANCH  18  21
ENDBRANCH   1  18
TORSDOF 5
ENDMDL
MODEL 4
REMARK VINA RESULT:      -8.4      4.204      7.460
REMARK  Name = 
REMARK  6 active torsions:
REMARK  status: ('A' for Active; 'I' for Inactive)
REMARK    1  A    between atoms: C_1  and  C_2
REMARK    2  A    between atoms: C_5  and  N_6
REMARK    3  A    between atoms: N_6  and  S_7
REMARK    4  A    between atoms: S_7  and  C_10
REMARK    5  A    between atoms: C_13  and  C_14
REMARK    6  A    between atoms: C_22  and  C_23
REMARK                            x       y       z     vdW  Elec       q    Type
REMARK                         _______ _______ _______ _____ _____    ______ ____
ROOT
ATOM      1  N   UNL     1       3.399   6.217  19.908  0.00  0.00    +0.000 N 
ATOM      2  H   UNL     1       4.397   6.387  19.747  0.00  0.00    +0.000 HD
ENDROOT
BRANCH   1   7
ATOM      3  C   UNL     1       3.630   1.279  18.587  0.00  0.00    +0.000 C 
ATOM      4  C   UNL     1       3.302   2.513  19.370  0.00  0.00    +0.000 A 
ATOM      5  C   UNL     1       2.473   2.514  20.477  0.00  0.00    +0.000 A 
ATOM      6  S   UNL     1       2.169   4.080  21.076  0.00  0.00    +0.000 S 
ATOM      7  C   UNL     1       3.213   4.786  19.925  0.00  0.00    +0.000 A 
ATOM      8  C   UNL     1       3.743   3.860  19.049  0.00  0.00    +0.000 A 
BRANCH   8   9
ATOM      9  C   UNL     1       4.655   4.171  17.884  0.00  0.00    +0.000 A 
ATOM     10  N   UNL     1       4.228   3.995  16.652  0.00  0.00    +0.000 NA
ATOM     11  C   UNL     1       5.244   4.223  15.750  0.00  0.00    +0.000 A 
ATOM     12  C   UNL     1       5.171   4.020  14.365  0.00  0.00    +0.000 A 
ATOM     13  C   UNL     1       6.287   4.285  13.568  0.00  0.00    +0.000 A 
ATOM     14  C   UNL     1       7.468   4.755  14.141  0.00  0.00    +0.000 A 
ATOM     15  C   UNL     1       7.559   4.975  15.515  0.00  0.00    +0.000 A 
ATOM     16  C   UNL     1       6.437   4.684  16.309  0.00  0.00    +0.000 A 
ATOM     17  S   UNL     1       6.242   4.806  18.008  0.00  0.00    +0.000 S 
ENDBRANCH   8   9
ENDBRANCH   1   7
BRANCH   1  18
ATOM     18  S   UNL     1       2.654   6.940  18.539  0.00  0.00    +0.000 S 
ATOM     19  O   UNL     1       3.709   7.604  17.800  0.00  0.00    +0.000 OA
ATOM     20  O   UNL     1       1.741   6.011  17.910  0.00  0.00    +0.000 OA
BRANCH  18  21
ATOM     21  C   UNL     1       1.684   8.203  19.331  0.00  0.00    +0.000 A 
ATOM     22  C   UNL     1       1.402   8.111  20.695  0.00  0.00    +0.000 A 
ATOM     23  C   UNL     1       0.609   9.092  21.304  0.00  0.00    +0.000 A 
ATOM     24  C   UNL     1       0.100  10.189  20.582  0.00  0.00    +0.000 A 
ATOM     25  C   UNL     1       0.442  10.273  19.217  0.00  0.00    +0.000 A 
ATOM     26  C   UNL     1       1.232   9.298  18.597  0.00  0.00    +0.000 A 
BRANCH  24  27
ATOM     27  C   UNL     1      -0.765  11.206  21.230  0.00  0.00    +0.000 A 
ATOM     28  C   UNL     1      -0.992  11.203  22.619  0.00  0.00    +0.000 A 
ATOM     29  C   UNL     1      -1.836  12.139  23.228  0.00  0.00    +0.000 A 
ATOM     30  C   UNL     1      -2.464  13.115  22.461  0.00  0.00    +0.000 A 
ATOM     31  C   UNL     1      -2.248  13.154  21.089  0.00  0.00    +0.000 A 
ATOM     32  C   UNL     1      -1.413  12.210  20.481  0.00  0.00    +0.000 A 
ENDBRANCH  24  27
ENDBRANCH  18  21
ENDBRANCH   1  18
TORSDOF 5
ENDMDL
MODEL 5
REMARK VINA RESULT:      -8.4      5.455      8.781
REMARK  Name = 
REMARK  6 active torsions:
REMARK  status: ('A' for Active; 'I' for Inactive)
REMARK    1  A    between atoms: C_1  and  C_2
REMARK    2  A    between atoms: C_5  and  N_6
REMARK    3  A    between atoms: N_6  and  S_7
REMARK    4  A    between atoms: S_7  and  C_10
REMARK    5  A    between atoms: C_13  and  C_14
REMARK    6  A    between atoms: C_22  and  C_23
REMARK                            x       y       z     vdW  Elec       q    Type
REMARK                         _______ _______ _______ _____ _____    ______ ____
ROOT
ATOM      1  N   UNL     1      -0.493  10.517  19.728  0.00  0.00    +0.000 N 
ATOM      2  H   UNL     1      -0.119  10.124  18.859  0.00  0.00    +0.000 HD
ENDROOT
BRANCH   1   7
ATOM      3  C   UNL     1      -0.544  15.523  20.784  0.00  0.00    +0.000 C 
ATOM      4  C   UNL     1      -0.107  14.209  20.212  0.00  0.00    +0.000 A 
ATOM      5  C   UNL     1       0.920  14.082  19.296  0.00  0.00    +0.000 A 
ATOM      6  S   UNL     1       1.098  12.489  18.717  0.00  0.00    +0.000 S 
ATOM      7  C   UNL     1      -0.133  11.915  19.749  0.00  0.00    +0.000 A 
ATOM      8  C   UNL     1      -0.726  12.922  20.483  0.00  0.00    +0.000 A 
BRANCH   8   9
ATOM      9  C   UNL     1      -1.881  12.751  21.443  0.00  0.00    +0.000 A 
ATOM     10  N   UNL     1      -3.117  12.896  21.015  0.00  0.00    +0.000 NA
ATOM     11  C   UNL     1      -4.005  12.815  22.064  0.00  0.00    +0.000 A 
ATOM     12  C   UNL     1      -5.388  13.034  21.985  0.00  0.00    +0.000 A 
ATOM     13  C   UNL     1      -6.172  12.927  23.136  0.00  0.00    +0.000 A 
ATOM     14  C   UNL     1      -5.588  12.598  24.359  0.00  0.00    +0.000 A 
ATOM     15  C   UNL     1      -4.216  12.364  24.458  0.00  0.00    +0.000 A 
ATOM     16  C   UNL     1      -3.436  12.496  23.298  0.00  0.00    +0.000 A 
ATOM     17  S   UNL     1      -1.743  12.318  23.096  0.00  0.00    +0.000 S 
ENDBRANCH   8   9
ENDBRANCH   1   7
BRANCH   1  18
ATOM     18  S   UNL     1       0.335   9.628  20.944  0.00  0.00    +0.000 S 
ATOM     19  O   UNL     1       1.190  10.573  21.633  0.00  0.00    +0.000 OA
ATOM     20  O   UNL     1      -0.583   8.762  21.651  0.00  0.00    +0.000 OA
BRANCH  18  21
ATOM     21  C   UNL     1       1.381   8.603  19.935  0.00  0.00    +0.000 A 
ATOM     22  C   UNL     1       1.727   9.015  18.648  0.00  0.00    +0.000 A 
ATOM     23  C   UNL     1       2.523   8.186  17.847  0.00  0.00    +0.000 A 
ATOM     24  C   UNL     1       3.008   6.947  18.312  0.00  0.00    +0.000 A 
ATOM     25  C   UNL     1       2.676   6.584  19.633  0.00  0.00    +0.000 A 
ATOM     26  C   UNL     1       1.879   7.404  20.441  0.00  0.00    +0.000 A 
BRANCH  24  27
ATOM     27  C   UNL     1       3.825   6.062  17.445  0.00  0.00    +0.000 A 
ATOM     28  C   UNL     1       4.709   6.586  16.483  0.00  0.00    +0.000 A 
ATOM     29  C   UNL     1       5.454   5.754  15.640  0.00  0.00    +0.000 A 
ATOM     30  C   UNL     1       5.344   4.372  15.749  0.00  0.00    +0.000 A 
ATOM     31  C   UNL     1       4.492   3.824  16.700  0.00  0.00    +0.000 A 
ATOM     32  C   UNL     1       3.740   4.659  17.534  0.00  0.00    +0.000 A 
ENDBRANCH  24  27
ENDBRANCH  18  21
ENDBRANCH   1  18
TORSDOF 5
ENDMDL
MODEL 6
REMARK VINA RESULT:      -8.4      1.035      1.627
REMARK  Name = 
REMARK  6 active torsions:
REMARK  status: ('A' for Active; 'I' for Inactive)
REMARK    1  A    between atoms: C_1  and  C_2
REMARK    2  A    between atoms: C_5  and  N_6
REMARK    3  A    between atoms: N_6  and  S_7
REMARK    4  A    between atoms: S_7  and  C_10
REMARK    5  A    between atoms: C_13  and  C_14
REMARK    6  A    between atoms: C_22  and  C_23
REMARK                            x       y       z     vdW  Elec       q    Type
REMARK                         _______ _______ _______ _____ _____    ______ ____
ROOT
ATOM      1  N   UNL     1       5.448   4.640  18.966  0.00  0.00    +0.000 N 
ATOM      2  H   UNL     1       6.218   4.082  19.347  0.00  0.00    +0.000 HD
ENDROOT
BRANCH   1   7
ATOM      3  C   UNL     1       0.603   2.996  19.029  0.00  0.00    +0.000 C 
ATOM      4  C   UNL     1       2.095   2.976  18.898  0.00  0.00    +0.000 A 
ATOM      5  C   UNL     1       2.829   1.815  18.736  0.00  0.00    +0.000 A 
ATOM      6  S   UNL     1       4.512   2.086  18.758  0.00  0.00    +0.000 S 
ATOM      7  C   UNL     1       4.296   3.773  18.892  0.00  0.00    +0.000 A 
ATOM      8  C   UNL     1       2.967   4.135  18.984  0.00  0.00    +0.000 A 
BRANCH   8   9
ATOM      9  C   UNL     1       2.448   5.543  19.169  0.00  0.00    +0.000 A 
ATOM     10  N   UNL     1       2.456   6.383  18.157  0.00  0.00    +0.000 NA
ATOM     11  C   UNL     1       2.053   7.636  18.565  0.00  0.00    +0.000 A 
ATOM     12  C   UNL     1       2.049   8.793  17.773  0.00  0.00    +0.000 A 
ATOM     13  C   UNL     1       1.621  10.004  18.321  0.00  0.00    +0.000 A 
ATOM     14  C   UNL     1       1.194  10.066  19.647  0.00  0.00    +0.000 A 
ATOM     15  C   UNL     1       1.177   8.925  20.449  0.00  0.00    +0.000 A 
ATOM     16  C   UNL     1       1.631   7.718  19.892  0.00  0.00    +0.000 A 
ATOM     17  S   UNL     1       1.772   6.170  20.615  0.00  0.00    +0.000 S 
ENDBRANCH   8   9
ENDBRANCH   1   7
BRANCH   1  18
ATOM     18  S   UNL     1       6.018   5.076  17.405  0.00  0.00    +0.000 S 
ATOM     19  O   UNL     1       6.958   4.048  17.008  0.00  0.00    +0.000 OA
ATOM     20  O   UNL     1       4.917   5.481  16.558  0.00  0.00    +0.000 OA
BRANCH  18  21
ATOM     21  C   UNL     1       6.960   6.532  17.803  0.00  0.00    +0.000 A 
ATOM     22  C   UNL     1       7.939   6.478  18.796  0.00  0.00    +0.000 A 
ATOM     23  C   UNL     1       8.653   7.636  19.128  0.00  0.00    +0.000 A 
ATOM     24  C   UNL     1       8.426   8.862  18.470  0.00  0.00    +0.000 A 
ATOM     25  C   UNL     1       7.462   8.869  17.442  0.00  0.00    +0.000 A 
ATOM     26  C   UNL     1       6.741   7.717  17.104  0.00  0.00    +0.000 A 
BRANCH  24  27
ATOM     27  C   UNL     1       9.166  10.091  18.849  0.00  0.00    +0.000 A 
ATOM     28  C   UNL     1       9.382  10.434  20.197  0.00  0.00    +0.000 A 
ATOM     29  C   UNL     1      10.047  11.611  20.558  0.00  0.00    +0.000 A 
ATOM     30  C   UNL     1      10.529  12.469  19.576  0.00  0.00    +0.000 A 
ATOM     31  C   UNL     1      10.346  12.150  18.236  0.00  0.00    +0.000 A 
ATOM     32  C   UNL     1       9.670  10.979  17.878  0.00  0.00    +0.000 A 
ENDBRANCH  24  27
ENDBRANCH  18  21
ENDBRANCH   1  18
TORSDOF 5
ENDMDL
MODEL 7
REMARK VINA RESULT:      -8.4      4.220      7.229
REMARK  Name = 
REMARK  6 active torsions:
REMARK  status: ('A' for Active; 'I' for Inactive)
REMARK    1  A    between atoms: C_1  and  C_2
REMARK    2  A    between atoms: C_5  and  N_6
REMARK    3  A    between atoms: N_6  and  S_7
REMARK    4  A    between atoms: S_7  and  C_10
REMARK    5  A    between atoms: C_13  and  C_14
REMARK    6  A    between atoms: C_22  and  C_23
REMARK                            x       y       z     vdW  Elec       q    Type
REMARK                         _______ _______ _______ _____ _____    ______ ____
ROOT
ATOM      1  N   UNL     1       3.429   6.153  19.920  0.00  0.00    +0.000 N 
ATOM      2  H   UNL     1       4.416   6.320  19.702  0.00  0.00    +0.000 HD
ENDROOT
BRANCH   1   7
ATOM      3  C   UNL     1       3.620   1.234  18.524  0.00  0.00    +0.000 C 
ATOM      4  C   UNL     1       3.303   2.459  19.326  0.00  0.00    +0.000 A 
ATOM      5  C   UNL     1       2.479   2.448  20.436  0.00  0.00    +0.000 A 
ATOM      6  S   UNL     1       2.188   4.008  21.060  0.00  0.00    +0.000 S 
ATOM      7  C   UNL     1       3.233   4.723  19.917  0.00  0.00    +0.000 A 
ATOM      8  C   UNL     1       3.753   3.807  19.024  0.00  0.00    +0.000 A 
BRANCH   8   9
ATOM      9  C   UNL     1       4.663   4.129  17.860  0.00  0.00    +0.000 A 
ATOM     10  N   UNL     1       4.224   3.993  16.628  0.00  0.00    +0.000 NA
ATOM     11  C   UNL     1       5.239   4.223  15.725  0.00  0.00    +0.000 A 
ATOM     12  C   UNL     1       5.152   4.056  14.335  0.00  0.00    +0.000 A 
ATOM     13  C   UNL     1       6.267   4.320  13.536  0.00  0.00    +0.000 A 
ATOM     14  C   UNL     1       7.461   4.751  14.112  0.00  0.00    +0.000 A 
ATOM     15  C   UNL     1       7.566   4.935  15.491  0.00  0.00    +0.000 A 
ATOM     16  C   UNL     1       6.444   4.646  16.285  0.00  0.00    +0.000 A 
ATOM     17  S   UNL     1       6.264   4.729  17.988  0.00  0.00    +0.000 S 
ENDBRANCH   8   9
ENDBRANCH   1   7
BRANCH   1  18
ATOM     18  S   UNL     1       2.609   6.912  18.615  0.00  0.00    +0.000 S 
ATOM     19  O   UNL     1       3.629   7.525  17.789  0.00  0.00    +0.000 OA
ATOM     20  O   UNL     1       1.603   6.028  18.067  0.00  0.00    +0.000 OA
BRANCH  18  21
ATOM     21  C   UNL     1       1.769   8.219  19.481  0.00  0.00    +0.000 A 
ATOM     22  C   UNL     1       1.409   9.384  18.803  0.00  0.00    +0.000 A 
ATOM     23  C   UNL     1       0.779  10.423  19.499  0.00  0.00    +0.000 A 
ATOM     24  C   UNL     1       0.476  10.320  20.872  0.00  0.00    +0.000 A 
ATOM     25  C   UNL     1       0.814   9.112  21.514  0.00  0.00    +0.000 A 
ATOM     26  C   UNL     1       1.446   8.068  20.828  0.00  0.00    +0.000 A 
BRANCH  24  27
ATOM     27  C   UNL     1      -0.164  11.439  21.608  0.00  0.00    +0.000 A 
ATOM     28  C   UNL     1       0.180  12.780  21.354  0.00  0.00    +0.000 A 
ATOM     29  C   UNL     1      -0.395  13.834  22.072  0.00  0.00    +0.000 A 
ATOM     30  C   UNL     1      -1.344  13.574  23.055  0.00  0.00    +0.000 A 
ATOM     31  C   UNL     1      -1.717  12.261  23.317  0.00  0.00    +0.000 A 
ATOM     32  C   UNL     1      -1.131  11.208  22.606  0.00  0.00    +0.000 A 
ENDBRANCH  24  27
ENDBRANCH  18  21
ENDBRANCH   1  18
TORSDOF 5
ENDMDL
MODEL 8
REMARK VINA RESULT:      -8.3      5.677      9.284
REMARK  Name = 
REMARK  6 active torsions:
REMARK  status: ('A' for Active; 'I' for Inactive)
REMARK    1  A    between atoms: C_1  and  C_2
REMARK    2  A    between atoms: C_5  and  N_6
REMARK    3  A    between atoms: N_6  and  S_7
REMARK    4  A    between atoms: S_7  and  C_10
REMARK    5  A    between atoms: C_13  and  C_14
REMARK    6  A    between atoms: C_22  and  C_23
REMARK                            x       y       z     vdW  Elec       q    Type
REMARK                         _______ _______ _______ _____ _____    ______ ____
ROOT
ATOM      1  N   UNL     1      -0.713  11.086  19.658  0.00  0.00    +0.000 N 
ATOM      2  H   UNL     1      -0.261  10.712  18.817  0.00  0.00    +0.000 HD
ENDROOT
BRANCH   1   7
ATOM      3  C   UNL     1      -1.565  16.064  20.477  0.00  0.00    +0.000 C 
ATOM      4  C   UNL     1      -0.935  14.811  19.950  0.00  0.00    +0.000 A 
ATOM      5  C   UNL     1       0.069  14.807  18.999  0.00  0.00    +0.000 A 
ATOM      6  S   UNL     1       0.492  13.236  18.489  0.00  0.00    +0.000 S 
ATOM      7  C   UNL     1      -0.592  12.523  19.597  0.00  0.00    +0.000 A 
ATOM      8  C   UNL     1      -1.320  13.456  20.307  0.00  0.00    +0.000 A 
BRANCH   8   9
ATOM      9  C   UNL     1      -2.399  13.148  21.320  0.00  0.00    +0.000 A 
ATOM     10  N   UNL     1      -3.655  13.073  20.939  0.00  0.00    +0.000 NA
ATOM     11  C   UNL     1      -4.482  12.901  22.027  0.00  0.00    +0.000 A 
ATOM     12  C   UNL     1      -5.884  12.891  21.997  0.00  0.00    +0.000 A 
ATOM     13  C   UNL     1      -6.600  12.715  23.183  0.00  0.00    +0.000 A 
ATOM     14  C   UNL     1      -5.928  12.542  24.393  0.00  0.00    +0.000 A 
ATOM     15  C   UNL     1      -4.534  12.535  24.444  0.00  0.00    +0.000 A 
ATOM     16  C   UNL     1      -3.826  12.736  23.247  0.00  0.00    +0.000 A 
ATOM     17  S   UNL     1      -2.135  12.821  22.983  0.00  0.00    +0.000 S 
ENDBRANCH   8   9
ENDBRANCH   1   7
BRANCH   1  18
ATOM     18  S   UNL     1       0.226  10.420  20.933  0.00  0.00    +0.000 S 
ATOM     19  O   UNL     1       1.171  11.445  21.327  0.00  0.00    +0.000 OA
ATOM     20  O   UNL     1      -0.626   9.750  21.892  0.00  0.00    +0.000 OA
BRANCH  18  21
ATOM     21  C   UNL     1       1.133   9.173  20.047  0.00  0.00    +0.000 A 
ATOM     22  C   UNL     1       1.440   9.361  18.699  0.00  0.00    +0.000 A 
ATOM     23  C   UNL     1       2.125   8.360  17.999  0.00  0.00    +0.000 A 
ATOM     24  C   UNL     1       2.535   7.165  18.625  0.00  0.00    +0.000 A 
ATOM     25  C   UNL     1       2.248   7.029  19.998  0.00  0.00    +0.000 A 
ATOM     26  C   UNL     1       1.561   8.022  20.706  0.00  0.00    +0.000 A 
BRANCH  24  27
ATOM     27  C   UNL     1       3.233   6.097  17.867  0.00  0.00    +0.000 A 
ATOM     28  C   UNL     1       2.762   4.771  17.861  0.00  0.00    +0.000 A 
ATOM     29  C   UNL     1       3.438   3.754  17.177  0.00  0.00    +0.000 A 
ATOM     30  C   UNL     1       4.598   4.043  16.467  0.00  0.00    +0.000 A 
ATOM     31  C   UNL     1       5.080   5.346  16.440  0.00  0.00    +0.000 A 
ATOM     32  C   UNL     1       4.408   6.358  17.135  0.00  0.00    +0.000 A 
ENDBRANCH  24  27
ENDBRANCH  18  21
ENDBRANCH   1  18
TORSDOF 5
ENDMDL
MODEL 9
REMARK VINA RESULT:      -8.3      5.640      9.233
REMARK  Name = 
REMARK  6 active torsions:
REMARK  status: ('A' for Active; 'I' for Inactive)
REMARK    1  A    between atoms: C_1  and  C_2
REMARK    2  A    between atoms: C_5  and  N_6
REMARK    3  A    between atoms: N_6  and  S_7
REMARK    4  A    between atoms: S_7  and  C_10
REMARK    5  A    between atoms: C_13  and  C_14
REMARK    6  A    between atoms: C_22  and  C_23
REMARK                            x       y       z     vdW  Elec       q    Type
REMARK                         _______ _______ _______ _____ _____    ______ ____
ROOT
ATOM      1  N   UNL     1      -0.823  11.125  19.777  0.00  0.00    +0.000 N 
ATOM      2  H   UNL     1      -0.486  10.660  18.929  0.00  0.00    +0.000 HD
ENDROOT
BRANCH   1   7
ATOM      3  C   UNL     1      -1.370  16.203  20.072  0.00  0.00    +0.000 C 
ATOM      4  C   UNL     1      -0.789  14.868  19.722  0.00  0.00    +0.000 A 
ATOM      5  C   UNL     1       0.295  14.708  18.878  0.00  0.00    +0.000 A 
ATOM      6  S   UNL     1       0.643  13.071  18.551  0.00  0.00    +0.000 S 
ATOM      7  C   UNL     1      -0.589  12.539  19.604  0.00  0.00    +0.000 A 
ATOM      8  C   UNL     1      -1.307  13.581  20.155  0.00  0.00    +0.000 A 
BRANCH   8   9
ATOM      9  C   UNL     1      -2.495  13.441  21.079  0.00  0.00    +0.000 A 
ATOM     10  N   UNL     1      -2.314  13.080  22.331  0.00  0.00    +0.000 NA
ATOM     11  C   UNL     1      -3.524  12.901  22.963  0.00  0.00    +0.000 A 
ATOM     12  C   UNL     1      -3.704  12.412  24.265  0.00  0.00    +0.000 A 
ATOM     13  C   UNL     1      -4.995  12.271  24.779  0.00  0.00    +0.000 A 
ATOM     14  C   UNL     1      -6.103  12.620  24.007  0.00  0.00    +0.000 A 
ATOM     15  C   UNL     1      -5.947  13.120  22.714  0.00  0.00    +0.000 A 
ATOM     16  C   UNL     1      -4.645  13.235  22.201  0.00  0.00    +0.000 A 
ATOM     17  S   UNL     1      -4.125  13.769  20.657  0.00  0.00    +0.000 S 
ENDBRANCH   8   9
ENDBRANCH   1   7
BRANCH   1  18
ATOM     18  S   UNL     1       0.173  10.459  21.008  0.00  0.00    +0.000 S 
ATOM     19  O   UNL     1       1.113  11.496  21.382  0.00  0.00    +0.000 OA
ATOM     20  O   UNL     1      -0.631   9.761  21.987  0.00  0.00    +0.000 OA
BRANCH  18  21
ATOM     21  C   UNL     1       1.069   9.241  20.072  0.00  0.00    +0.000 A 
ATOM     22  C   UNL     1       1.478   8.056  20.683  0.00  0.00    +0.000 A 
ATOM     23  C   UNL     1       2.213   7.116  19.949  0.00  0.00    +0.000 A 
ATOM     24  C   UNL     1       2.539   7.324  18.594  0.00  0.00    +0.000 A 
ATOM     25  C   UNL     1       2.072   8.512  17.997  0.00  0.00    +0.000 A 
ATOM     26  C   UNL     1       1.338   9.459  18.722  0.00  0.00    +0.000 A 
BRANCH  24  27
ATOM     27  C   UNL     1       3.345   6.337  17.833  0.00  0.00    +0.000 A 
ATOM     28  C   UNL     1       4.399   6.739  16.992  0.00  0.00    +0.000 A 
ATOM     29  C   UNL     1       5.137   5.813  16.245  0.00  0.00    +0.000 A 
ATOM     30  C   UNL     1       4.848   4.456  16.334  0.00  0.00    +0.000 A 
ATOM     31  C   UNL     1       3.823   4.026  17.168  0.00  0.00    +0.000 A 
ATOM     32  C   UNL     1       3.079   4.955  17.904  0.00  0.00    +0.000 A 
ENDBRANCH  24  27
ENDBRANCH  18  21
ENDBRANCH   1  18
TORSDOF 5
ENDMDL
