MODEL 1
REMARK VINA RESULT:      -6.1      0.000      0.000
REMARK  Name = 
REMARK  9 active torsions:
REMARK  status: ('A' for Active; 'I' for Inactive)
REMARK    1  A    between atoms: C_1  and  C_2
REMARK    2  A    between atoms: C_2  and  C_3
REMARK    3  A    between atoms: C_3  and  C_4
REMARK    4  A    between atoms: C_4  and  C_5
REMARK    5  A    between atoms: C_5  and  C_6
REMARK    6  A    between atoms: C_6  and  C_7
REMARK    7  A    between atoms: C_7  and  S_8
REMARK    8  A    between atoms: S_8  and  C_9
REMARK    9  A    between atoms: C_12  and  C_14
REMARK                            x       y       z     vdW  Elec       q    Type
REMARK                         _______ _______ _______ _____ _____    ______ ____
ROOT
ATOM      1  C   UNL     1       5.781   4.923  18.690  0.00  0.00    +0.000 C 
ATOM      2  O   UNL     1       6.728   4.767  19.443  0.00  0.00    +0.000 OA
ATOM      3  N   UNL     1       5.783   4.793  17.317  0.00  0.00    +0.000 N 
ATOM      4  C   UNL     1       6.933   4.512  16.584  0.00  0.00    +0.000 C 
ATOM      5  O   UNL     1       8.041   4.351  17.071  0.00  0.00    +0.000 OA
ATOM      6  H   UNL     1       4.904   4.890  16.833  0.00  0.00    +0.000 HD
ENDROOT
BRANCH   4   7
ATOM      7  C   UNL     1       6.751   4.400  15.125  0.00  0.00    +0.000 A 
ATOM      8  C   UNL     1       7.537   5.063  14.181  0.00  0.00    +0.000 A 
ATOM      9  S   UNL     1       7.007   4.561  12.627  0.00  0.00    +0.000 S 
ATOM     10  N   UNL     1       5.810   3.580  13.254  0.00  0.00    +0.000 NA
ATOM     11  N   UNL     1       5.764   3.587  14.578  0.00  0.00    +0.000 NA
ENDBRANCH   4   7
BRANCH   1  12
ATOM     12  S   UNL     1       4.191   5.340  19.337  0.00  0.00    +0.000 S 
BRANCH  12  13
ATOM     13  C   UNL     1       3.214   5.476  17.763  0.00  0.00    +0.000 C 
BRANCH  13  14
ATOM     14  C   UNL     1       1.978   4.554  17.778  0.00  0.00    +0.000 C 
BRANCH  14  15
ATOM     15  C   UNL     1       2.331   3.062  17.607  0.00  0.00    +0.000 C 
BRANCH  15  16
ATOM     16  C   UNL     1       2.034   2.256  18.884  0.00  0.00    +0.000 C 
BRANCH  16  17
ATOM     17  C   UNL     1       0.847   2.833  19.665  0.00  0.00    +0.000 C 
BRANCH  17  19
ATOM     18  C   UNL     1       2.609   2.617  21.456  0.00  0.00    +0.000 C 
ATOM     19  C   UNL     1       1.147   2.924  21.164  0.00  0.00    +0.000 C 
ENDBRANCH  17  19
ENDBRANCH  16  17
ENDBRANCH  15  16
ENDBRANCH  14  15
ENDBRANCH  13  14
ENDBRANCH  12  13
ENDBRANCH   1  12
TORSDOF 8
ENDMDL
MODEL 2
REMARK VINA RESULT:      -6.0      1.478      1.734
REMARK  Name = 
REMARK  9 active torsions:
REMARK  status: ('A' for Active; 'I' for Inactive)
REMARK    1  A    between atoms: C_1  and  C_2
REMARK    2  A    between atoms: C_2  and  C_3
REMARK    3  A    between atoms: C_3  and  C_4
REMARK    4  A    between atoms: C_4  and  C_5
REMARK    5  A    between atoms: C_5  and  C_6
REMARK    6  A    between atoms: C_6  and  C_7
REMARK    7  A    between atoms: C_7  and  S_8
REMARK    8  A    between atoms: S_8  and  C_9
REMARK    9  A    between atoms: C_12  and  C_14
REMARK                            x       y       z     vdW  Elec       q    Type
REMARK                         _______ _______ _______ _____ _____    ______ ____
ROOT
ATOM      1  C   UNL     1       5.994   4.872  18.195  0.00  0.00    +0.000 C 
ATOM      2  O   UNL     1       6.548   5.761  18.820  0.00  0.00    +0.000 OA
ATOM      3  N   UNL     1       6.134   4.591  16.852  0.00  0.00    +0.000 N 
ATOM      4  C   UNL     1       6.918   5.359  15.995  0.00  0.00    +0.000 C 
ATOM      5  O   UNL     1       7.554   6.343  16.336  0.00  0.00    +0.000 OA
ATOM      6  H   UNL     1       5.658   3.780  16.488  0.00  0.00    +0.000 HD
ENDROOT
BRANCH   4   7
ATOM      7  C   UNL     1       6.960   4.909  14.592  0.00  0.00    +0.000 A 
ATOM      8  C   UNL     1       6.183   3.871  14.075  0.00  0.00    +0.000 A 
ATOM      9  S   UNL     1       6.514   3.768  12.393  0.00  0.00    +0.000 S 
ATOM     10  N   UNL     1       7.632   5.008  12.447  0.00  0.00    +0.000 NA
ATOM     11  N   UNL     1       7.791   5.519  13.659  0.00  0.00    +0.000 NA
ENDBRANCH   4   7
BRANCH   1  12
ATOM     12  S   UNL     1       4.891   3.763  19.016  0.00  0.00    +0.000 S 
BRANCH  12  13
ATOM     13  C   UNL     1       3.861   3.190  17.581  0.00  0.00    +0.000 C 
BRANCH  13  14
ATOM     14  C   UNL     1       2.527   2.572  18.046  0.00  0.00    +0.000 C 
BRANCH  14  15
ATOM     15  C   UNL     1       1.352   3.573  18.019  0.00  0.00    +0.000 C 
BRANCH  15  16
ATOM     16  C   UNL     1       1.573   4.737  19.000  0.00  0.00    +0.000 C 
BRANCH  16  17
ATOM     17  C   UNL     1       1.033   4.420  20.400  0.00  0.00    +0.000 C 
BRANCH  17  19
ATOM     18  C   UNL     1       1.647   2.464  21.868  0.00  0.00    +0.000 C 
ATOM     19  C   UNL     1       2.108   3.797  21.294  0.00  0.00    +0.000 C 
ENDBRANCH  17  19
ENDBRANCH  16  17
ENDBRANCH  15  16
ENDBRANCH  14  15
ENDBRANCH  13  14
ENDBRANCH  12  13
ENDBRANCH   1  12
TORSDOF 8
ENDMDL
MODEL 3
REMARK VINA RESULT:      -6.0      1.873      2.962
REMARK  Name = 
REMARK  9 active torsions:
REMARK  status: ('A' for Active; 'I' for Inactive)
REMARK    1  A    between atoms: C_1  and  C_2
REMARK    2  A    between atoms: C_2  and  C_3
REMARK    3  A    between atoms: C_3  and  C_4
REMARK    4  A    between atoms: C_4  and  C_5
REMARK    5  A    between atoms: C_5  and  C_6
REMARK    6  A    between atoms: C_6  and  C_7
REMARK    7  A    between atoms: C_7  and  S_8
REMARK    8  A    between atoms: S_8  and  C_9
REMARK    9  A    between atoms: C_12  and  C_14
REMARK                            x       y       z     vdW  Elec       q    Type
REMARK                         _______ _______ _______ _____ _____    ______ ____
ROOT
ATOM      1  C   UNL     1       4.372   3.418  17.650  0.00  0.00    +0.000 C 
ATOM      2  O   UNL     1       4.865   3.524  18.761  0.00  0.00    +0.000 OA
ATOM      3  N   UNL     1       4.974   3.711  16.444  0.00  0.00    +0.000 N 
ATOM      4  C   UNL     1       6.256   4.243  16.347  0.00  0.00    +0.000 C 
ATOM      5  O   UNL     1       6.973   4.500  17.301  0.00  0.00    +0.000 OA
ATOM      6  H   UNL     1       4.459   3.510  15.601  0.00  0.00    +0.000 HD
ENDROOT
BRANCH   4   7
ATOM      7  C   UNL     1       6.745   4.487  14.978  0.00  0.00    +0.000 A 
ATOM      8  C   UNL     1       6.246   3.851  13.839  0.00  0.00    +0.000 A 
ATOM      9  S   UNL     1       7.060   4.515  12.481  0.00  0.00    +0.000 S 
ATOM     10  N   UNL     1       8.000   5.522  13.424  0.00  0.00    +0.000 NA
ATOM     11  N   UNL     1       7.754   5.409  14.721  0.00  0.00    +0.000 NA
ENDBRANCH   4   7
BRANCH   1  12
ATOM     12  S   UNL     1       2.723   2.812  17.465  0.00  0.00    +0.000 S 
BRANCH  12  13
ATOM     13  C   UNL     1       2.441   2.086  19.151  0.00  0.00    +0.000 C 
BRANCH  13  14
ATOM     14  C   UNL     1       1.222   2.721  19.849  0.00  0.00    +0.000 C 
BRANCH  14  15
ATOM     15  C   UNL     1       1.122   4.246  19.629  0.00  0.00    +0.000 C 
BRANCH  15  16
ATOM     16  C   UNL     1       2.007   5.023  20.619  0.00  0.00    +0.000 C 
BRANCH  16  17
ATOM     17  C   UNL     1       2.884   6.063  19.912  0.00  0.00    +0.000 C 
BRANCH  17  19
ATOM     18  C   UNL     1       3.273   7.366  17.789  0.00  0.00    +0.000 C 
ATOM     19  C   UNL     1       2.348   6.403  18.519  0.00  0.00    +0.000 C 
ENDBRANCH  17  19
ENDBRANCH  16  17
ENDBRANCH  15  16
ENDBRANCH  14  15
ENDBRANCH  13  14
ENDBRANCH  12  13
ENDBRANCH   1  12
TORSDOF 8
ENDMDL
MODEL 4
REMARK VINA RESULT:      -6.0      3.654      6.949
REMARK  Name = 
REMARK  9 active torsions:
REMARK  status: ('A' for Active; 'I' for Inactive)
REMARK    1  A    between atoms: C_1  and  C_2
REMARK    2  A    between atoms: C_2  and  C_3
REMARK    3  A    between atoms: C_3  and  C_4
REMARK    4  A    between atoms: C_4  and  C_5
REMARK    5  A    between atoms: C_5  and  C_6
REMARK    6  A    between atoms: C_6  and  C_7
REMARK    7  A    between atoms: C_7  and  S_8
REMARK    8  A    between atoms: S_8  and  C_9
REMARK    9  A    between atoms: C_12  and  C_14
REMARK                            x       y       z     vdW  Elec       q    Type
REMARK                         _______ _______ _______ _____ _____    ______ ____
ROOT
ATOM      1  C   UNL     1       5.411   5.720  17.363  0.00  0.00    +0.000 C 
ATOM      2  O   UNL     1       5.247   6.877  17.012  0.00  0.00    +0.000 OA
ATOM      3  N   UNL     1       4.523   4.933  18.065  0.00  0.00    +0.000 N 
ATOM      4  C   UNL     1       3.298   5.402  18.530  0.00  0.00    +0.000 C 
ATOM      5  O   UNL     1       2.886   6.539  18.367  0.00  0.00    +0.000 OA
ATOM      6  H   UNL     1       4.776   3.970  18.228  0.00  0.00    +0.000 HD
ENDROOT
BRANCH   4   7
ATOM      7  C   UNL     1       2.471   4.419  19.255  0.00  0.00    +0.000 A 
ATOM      8  C   UNL     1       2.601   4.133  20.615  0.00  0.00    +0.000 A 
ATOM      9  S   UNL     1       1.378   2.999  21.021  0.00  0.00    +0.000 S 
ATOM     10  N   UNL     1       0.802   2.926  19.456  0.00  0.00    +0.000 NA
ATOM     11  N   UNL     1       1.464   3.706  18.615  0.00  0.00    +0.000 NA
ENDBRANCH   4   7
BRANCH   1  12
ATOM     12  S   UNL     1       6.907   4.873  16.956  0.00  0.00    +0.000 S 
BRANCH  12  13
ATOM     13  C   UNL     1       6.336   3.861  15.507  0.00  0.00    +0.000 C 
BRANCH  13  14
ATOM     14  C   UNL     1       6.571   4.594  14.171  0.00  0.00    +0.000 C 
BRANCH  14  15
ATOM     15  C   UNL     1       6.359   3.691  12.938  0.00  0.00    +0.000 C 
BRANCH  15  16
ATOM     16  C   UNL     1       4.868   3.541  12.591  0.00  0.00    +0.000 C 
BRANCH  16  17
ATOM     17  C   UNL     1       4.658   3.068  11.147  0.00  0.00    +0.000 C 
BRANCH  17  19
ATOM     18  C   UNL     1       3.009   4.216   9.625  0.00  0.00    +0.000 C 
ATOM     19  C   UNL     1       3.191   3.178  10.723  0.00  0.00    +0.000 C 
ENDBRANCH  17  19
ENDBRANCH  16  17
ENDBRANCH  15  16
ENDBRANCH  14  15
ENDBRANCH  13  14
ENDBRANCH  12  13
ENDBRANCH   1  12
TORSDOF 8
ENDMDL
MODEL 5
REMARK VINA RESULT:      -6.0      2.160      3.341
REMARK  Name = 
REMARK  9 active torsions:
REMARK  status: ('A' for Active; 'I' for Inactive)
REMARK    1  A    between atoms: C_1  and  C_2
REMARK    2  A    between atoms: C_2  and  C_3
REMARK    3  A    between atoms: C_3  and  C_4
REMARK    4  A    between atoms: C_4  and  C_5
REMARK    5  A    between atoms: C_5  and  C_6
REMARK    6  A    between atoms: C_6  and  C_7
REMARK    7  A    between atoms: C_7  and  S_8
REMARK    8  A    between atoms: S_8  and  C_9
REMARK    9  A    between atoms: C_12  and  C_14
REMARK                            x       y       z     vdW  Elec       q    Type
REMARK                         _______ _______ _______ _____ _____    ______ ____
ROOT
ATOM      1  C   UNL     1       4.915   3.519  18.681  0.00  0.00    +0.000 C 
ATOM      2  O   UNL     1       5.349   4.057  19.687  0.00  0.00    +0.000 OA
ATOM      3  N   UNL     1       5.358   3.700  17.388  0.00  0.00    +0.000 N 
ATOM      4  C   UNL     1       6.363   4.603  17.050  0.00  0.00    +0.000 C 
ATOM      5  O   UNL     1       6.949   5.315  17.848  0.00  0.00    +0.000 OA
ATOM      6  H   UNL     1       4.941   3.135  16.664  0.00  0.00    +0.000 HD
ENDROOT
BRANCH   4   7
ATOM      7  C   UNL     1       6.717   4.660  15.619  0.00  0.00    +0.000 A 
ATOM      8  C   UNL     1       6.187   3.813  14.644  0.00  0.00    +0.000 A 
ATOM      9  S   UNL     1       6.827   4.309  13.130  0.00  0.00    +0.000 S 
ATOM     10  N   UNL     1       7.746   5.523  13.816  0.00  0.00    +0.000 NA
ATOM     11  N   UNL     1       7.615   5.602  15.132  0.00  0.00    +0.000 NA
ENDBRANCH   4   7
BRANCH   1  12
ATOM     12  S   UNL     1       3.592   2.355  18.797  0.00  0.00    +0.000 S 
BRANCH  12  13
ATOM     13  C   UNL     1       2.195   3.481  19.275  0.00  0.00    +0.000 C 
BRANCH  13  14
ATOM     14  C   UNL     1       1.708   4.326  18.080  0.00  0.00    +0.000 C 
BRANCH  14  15
ATOM     15  C   UNL     1       2.353   5.727  18.024  0.00  0.00    +0.000 C 
BRANCH  15  16
ATOM     16  C   UNL     1       2.538   6.325  19.430  0.00  0.00    +0.000 C 
BRANCH  16  17
ATOM     17  C   UNL     1       2.091   7.790  19.495  0.00  0.00    +0.000 C 
BRANCH  17  19
ATOM     18  C   UNL     1       1.138   9.542  17.953  0.00  0.00    +0.000 C 
ATOM     19  C   UNL     1       2.213   8.480  18.133  0.00  0.00    +0.000 C 
ENDBRANCH  17  19
ENDBRANCH  16  17
ENDBRANCH  15  16
ENDBRANCH  14  15
ENDBRANCH  13  14
ENDBRANCH  12  13
ENDBRANCH   1  12
TORSDOF 8
ENDMDL
MODEL 6
REMARK VINA RESULT:      -5.9      1.379      1.529
REMARK  Name = 
REMARK  9 active torsions:
REMARK  status: ('A' for Active; 'I' for Inactive)
REMARK    1  A    between atoms: C_1  and  C_2
REMARK    2  A    between atoms: C_2  and  C_3
REMARK    3  A    between atoms: C_3  and  C_4
REMARK    4  A    between atoms: C_4  and  C_5
REMARK    5  A    between atoms: C_5  and  C_6
REMARK    6  A    between atoms: C_6  and  C_7
REMARK    7  A    between atoms: C_7  and  S_8
REMARK    8  A    between atoms: S_8  and  C_9
REMARK    9  A    between atoms: C_12  and  C_14
REMARK                            x       y       z     vdW  Elec       q    Type
REMARK                         _______ _______ _______ _____ _____    ______ ____
ROOT
ATOM      1  C   UNL     1       5.236   5.979  17.716  0.00  0.00    +0.000 C 
ATOM      2  O   UNL     1       5.898   5.750  18.714  0.00  0.00    +0.000 OA
ATOM      3  N   UNL     1       5.562   5.662  16.414  0.00  0.00    +0.000 N 
ATOM      4  C   UNL     1       6.769   5.067  16.059  0.00  0.00    +0.000 C 
ATOM      5  O   UNL     1       7.650   4.766  16.848  0.00  0.00    +0.000 OA
ATOM      6  H   UNL     1       4.881   5.858  15.697  0.00  0.00    +0.000 HD
ENDROOT
BRANCH   4   7
ATOM      7  C   UNL     1       6.948   4.791  14.621  0.00  0.00    +0.000 A 
ATOM      8  C   UNL     1       6.248   3.809  13.916  0.00  0.00    +0.000 A 
ATOM      9  S   UNL     1       6.728   3.917  12.272  0.00  0.00    +0.000 S 
ATOM     10  N   UNL     1       7.801   5.160  12.573  0.00  0.00    +0.000 NA
ATOM     11  N   UNL     1       7.839   5.525  13.846  0.00  0.00    +0.000 NA
ENDBRANCH   4   7
BRANCH   1  12
ATOM     12  S   UNL     1       3.667   6.779  17.855  0.00  0.00    +0.000 S 
BRANCH  12  13
ATOM     13  C   UNL     1       2.712   5.485  18.783  0.00  0.00    +0.000 C 
BRANCH  13  14
ATOM     14  C   UNL     1       1.840   4.632  17.840  0.00  0.00    +0.000 C 
BRANCH  14  15
ATOM     15  C   UNL     1       2.615   3.474  17.178  0.00  0.00    +0.000 C 
BRANCH  15  16
ATOM     16  C   UNL     1       3.178   2.495  18.223  0.00  0.00    +0.000 C 
BRANCH  16  17
ATOM     17  C   UNL     1       2.086   1.958  19.155  0.00  0.00    +0.000 C 
BRANCH  17  19
ATOM     18  C   UNL     1       1.201   3.013  21.266  0.00  0.00    +0.000 C 
ATOM     19  C   UNL     1       2.376   2.294  20.620  0.00  0.00    +0.000 C 
ENDBRANCH  17  19
ENDBRANCH  16  17
ENDBRANCH  15  16
ENDBRANCH  14  15
ENDBRANCH  13  14
ENDBRANCH  12  13
ENDBRANCH   1  12
TORSDOF 8
ENDMDL
MODEL 7
REMARK VINA RESULT:      -5.9      1.573      1.933
REMARK  Name = 
REMARK  9 active torsions:
REMARK  status: ('A' for Active; 'I' for Inactive)
REMARK    1  A    between atoms: C_1  and  C_2
REMARK    2  A    between atoms: C_2  and  C_3
REMARK    3  A    between atoms: C_3  and  C_4
REMARK    4  A    between atoms: C_4  and  C_5
REMARK    5  A    between atoms: C_5  and  C_6
REMARK    6  A    between atoms: C_6  and  C_7
REMARK    7  A    between atoms: C_7  and  S_8
REMARK    8  A    between atoms: S_8  and  C_9
REMARK    9  A    between atoms: C_12  and  C_14
REMARK                            x       y       z     vdW  Elec       q    Type
REMARK                         _______ _______ _______ _____ _____    ______ ____
ROOT
ATOM      1  C   UNL     1       5.626   4.057  18.234  0.00  0.00    +0.000 C 
ATOM      2  O   UNL     1       6.323   4.569  19.095  0.00  0.00    +0.000 OA
ATOM      3  N   UNL     1       5.847   4.068  16.873  0.00  0.00    +0.000 N 
ATOM      4  C   UNL     1       6.910   4.746  16.284  0.00  0.00    +0.000 C 
ATOM      5  O   UNL     1       7.746   5.389  16.898  0.00  0.00    +0.000 OA
ATOM      6  H   UNL     1       5.213   3.543  16.290  0.00  0.00    +0.000 HD
ENDROOT
BRANCH   4   7
ATOM      7  C   UNL     1       6.998   4.644  14.815  0.00  0.00    +0.000 A 
ATOM      8  C   UNL     1       6.209   3.794  14.038  0.00  0.00    +0.000 A 
ATOM      9  S   UNL     1       6.609   4.083  12.393  0.00  0.00    +0.000 S 
ATOM     10  N   UNL     1       7.764   5.225  12.782  0.00  0.00    +0.000 NA
ATOM     11  N   UNL     1       7.887   5.424  14.085  0.00  0.00    +0.000 NA
ENDBRANCH   4   7
BRANCH   1  12
ATOM     12  S   UNL     1       4.169   3.166  18.686  0.00  0.00    +0.000 S 
BRANCH  12  13
ATOM     13  C   UNL     1       2.961   3.853  17.454  0.00  0.00    +0.000 C 
BRANCH  13  14
ATOM     14  C   UNL     1       2.367   5.196  17.925  0.00  0.00    +0.000 C 
BRANCH  14  15
ATOM     15  C   UNL     1       3.000   5.714  19.234  0.00  0.00    +0.000 C 
BRANCH  15  16
ATOM     16  C   UNL     1       1.930   6.148  20.251  0.00  0.00    +0.000 C 
BRANCH  16  17
ATOM     17  C   UNL     1       1.198   4.948  20.863  0.00  0.00    +0.000 C 
BRANCH  17  19
ATOM     18  C   UNL     1       1.541   2.533  21.502  0.00  0.00    +0.000 C 
ATOM     19  C   UNL     1       2.177   3.914  21.426  0.00  0.00    +0.000 C 
ENDBRANCH  17  19
ENDBRANCH  16  17
ENDBRANCH  15  16
ENDBRANCH  14  15
ENDBRANCH  13  14
ENDBRANCH  12  13
ENDBRANCH   1  12
TORSDOF 8
ENDMDL
MODEL 8
REMARK VINA RESULT:      -5.8      1.449      1.670
REMARK  Name = 
REMARK  9 active torsions:
REMARK  status: ('A' for Active; 'I' for Inactive)
REMARK    1  A    between atoms: C_1  and  C_2
REMARK    2  A    between atoms: C_2  and  C_3
REMARK    3  A    between atoms: C_3  and  C_4
REMARK    4  A    between atoms: C_4  and  C_5
REMARK    5  A    between atoms: C_5  and  C_6
REMARK    6  A    between atoms: C_6  and  C_7
REMARK    7  A    between atoms: C_7  and  S_8
REMARK    8  A    between atoms: S_8  and  C_9
REMARK    9  A    between atoms: C_12  and  C_14
REMARK                            x       y       z     vdW  Elec       q    Type
REMARK                         _______ _______ _______ _____ _____    ______ ____
ROOT
ATOM      1  C   UNL     1       4.702   5.824  18.214  0.00  0.00    +0.000 C 
ATOM      2  O   UNL     1       5.186   5.428  19.262  0.00  0.00    +0.000 OA
ATOM      3  N   UNL     1       5.190   5.612  16.942  0.00  0.00    +0.000 N 
ATOM      4  C   UNL     1       6.381   4.936  16.691  0.00  0.00    +0.000 C 
ATOM      5  O   UNL     1       7.105   4.467  17.554  0.00  0.00    +0.000 OA
ATOM      6  H   UNL     1       4.643   5.949  16.165  0.00  0.00    +0.000 HD
ENDROOT
BRANCH   4   7
ATOM      7  C   UNL     1       6.748   4.793  15.270  0.00  0.00    +0.000 A 
ATOM      8  C   UNL     1       6.117   3.922  14.380  0.00  0.00    +0.000 A 
ATOM      9  S   UNL     1       6.825   4.165  12.835  0.00  0.00    +0.000 S 
ATOM     10  N   UNL     1       7.891   5.316  13.405  0.00  0.00    +0.000 NA
ATOM     11  N   UNL     1       7.765   5.552  14.702  0.00  0.00    +0.000 NA
ENDBRANCH   4   7
BRANCH   1  12
ATOM     12  S   UNL     1       3.205   6.762  18.226  0.00  0.00    +0.000 S 
BRANCH  12  13
ATOM     13  C   UNL     1       2.030   5.508  18.932  0.00  0.00    +0.000 C 
BRANCH  13  14
ATOM     14  C   UNL     1       1.760   4.358  17.942  0.00  0.00    +0.000 C 
BRANCH  14  15
ATOM     15  C   UNL     1       0.982   3.184  18.573  0.00  0.00    +0.000 C 
BRANCH  15  16
ATOM     16  C   UNL     1       0.779   3.382  20.085  0.00  0.00    +0.000 C 
BRANCH  16  17
ATOM     17  C   UNL     1       1.600   2.384  20.911  0.00  0.00    +0.000 C 
BRANCH  17  19
ATOM     18  C   UNL     1       4.052   2.303  20.332  0.00  0.00    +0.000 C 
ATOM     19  C   UNL     1       2.995   2.927  21.232  0.00  0.00    +0.000 C 
ENDBRANCH  17  19
ENDBRANCH  16  17
ENDBRANCH  15  16
ENDBRANCH  14  15
ENDBRANCH  13  14
ENDBRANCH  12  13
ENDBRANCH   1  12
TORSDOF 8
ENDMDL
MODEL 9
REMARK VINA RESULT:      -5.8      2.476      3.680
REMARK  Name = 
REMARK  9 active torsions:
REMARK  status: ('A' for Active; 'I' for Inactive)
REMARK    1  A    between atoms: C_1  and  C_2
REMARK    2  A    between atoms: C_2  and  C_3
REMARK    3  A    between atoms: C_3  and  C_4
REMARK    4  A    between atoms: C_4  and  C_5
REMARK    5  A    between atoms: C_5  and  C_6
REMARK    6  A    between atoms: C_6  and  C_7
REMARK    7  A    between atoms: C_7  and  S_8
REMARK    8  A    between atoms: S_8  and  C_9
REMARK    9  A    between atoms: C_12  and  C_14
REMARK                            x       y       z     vdW  Elec       q    Type
REMARK                         _______ _______ _______ _____ _____    ______ ____
ROOT
ATOM      1  C   UNL     1       5.531   4.145  18.519  0.00  0.00    +0.000 C 
ATOM      2  O   UNL     1       6.221   4.649  19.390  0.00  0.00    +0.000 OA
ATOM      3  N   UNL     1       5.778   4.142  17.163  0.00  0.00    +0.000 N 
ATOM      4  C   UNL     1       6.867   4.793  16.590  0.00  0.00    +0.000 C 
ATOM      5  O   UNL     1       7.704   5.422  17.216  0.00  0.00    +0.000 OA
ATOM      6  H   UNL     1       5.145   3.626  16.570  0.00  0.00    +0.000 HD
ENDROOT
BRANCH   4   7
ATOM      7  C   UNL     1       6.982   4.678  15.124  0.00  0.00    +0.000 A 
ATOM      8  C   UNL     1       6.203   3.827  14.338  0.00  0.00    +0.000 A 
ATOM      9  S   UNL     1       6.634   4.100  12.700  0.00  0.00    +0.000 S 
ATOM     10  N   UNL     1       7.789   5.239  13.101  0.00  0.00    +0.000 NA
ATOM     11  N   UNL     1       7.889   5.448  14.405  0.00  0.00    +0.000 NA
ENDBRANCH   4   7
BRANCH   1  12
ATOM     12  S   UNL     1       4.046   3.288  18.948  0.00  0.00    +0.000 S 
BRANCH  12  13
ATOM     13  C   UNL     1       2.805   4.657  18.767  0.00  0.00    +0.000 C 
BRANCH  13  14
ATOM     14  C   UNL     1       2.745   5.544  20.027  0.00  0.00    +0.000 C 
BRANCH  14  15
ATOM     15  C   UNL     1       2.130   6.934  19.762  0.00  0.00    +0.000 C 
BRANCH  15  16
ATOM     16  C   UNL     1       2.693   7.572  18.481  0.00  0.00    +0.000 C 
BRANCH  16  17
ATOM     17  C   UNL     1       1.680   8.507  17.810  0.00  0.00    +0.000 C 
BRANCH  17  19
ATOM     18  C   UNL     1      -0.143  10.176  18.305  0.00  0.00    +0.000 C 
ATOM     19  C   UNL     1       1.177   9.583  18.775  0.00  0.00    +0.000 C 
ENDBRANCH  17  19
ENDBRANCH  16  17
ENDBRANCH  15  16
ENDBRANCH  14  15
ENDBRANCH  13  14
ENDBRANCH  12  13
ENDBRANCH   1  12
TORSDOF 8
ENDMDL
