MODEL 1
REMARK VINA RESULT:      -7.9      0.000      0.000
REMARK  Name = 
REMARK  12 active torsions:
REMARK  status: ('A' for Active; 'I' for Inactive)
REMARK    1  A    between atoms: C_1  and  C_2
REMARK    2  A    between atoms: C_2  and  C_3
REMARK    3  A    between atoms: C_3  and  N_4
REMARK    4  A    between atoms: N_14  and  C_15
REMARK    5  A    between atoms: C_15  and  C_16
REMARK    6  A    between atoms: N_18  and  C_19
REMARK    7  A    between atoms: C_19  and  C_20
REMARK    8  A    between atoms: C_20  and  C_21
REMARK    9  A    between atoms: C_24  and  O_25
REMARK   10  A    between atoms: O_25  and  C_26
REMARK   11  A    between atoms: C_28  and  O_29
REMARK   12  A    between atoms: O_29  and  C_30
REMARK                            x       y       z     vdW  Elec       q    Type
REMARK                         _______ _______ _______ _____ _____    ______ ____
ROOT
ATOM      1  N   UNL     1       3.670   4.440  18.601  0.00  0.00    +0.000 N 
ATOM      2  C   UNL     1       4.373   4.756  17.445  0.00  0.00    +0.000 A 
ATOM      3  C   UNL     1       5.189   3.973  16.609  0.00  0.00    +0.000 A 
ATOM      4  C   UNL     1       5.783   4.586  15.500  0.00  0.00    +0.000 A 
ATOM      5  C   UNL     1       5.578   5.935  15.229  0.00  0.00    +0.000 A 
ATOM      6  C   UNL     1       4.766   6.709  16.060  0.00  0.00    +0.000 A 
ATOM      7  C   UNL     1       4.150   6.114  17.181  0.00  0.00    +0.000 A 
ATOM      8  C   UNL     1       3.289   6.590  18.193  0.00  0.00    +0.000 A 
ATOM      9  C   UNL     1       2.727   7.891  18.438  0.00  0.00    +0.000 A 
ATOM     10  N   UNL     1       1.940   8.106  19.452  0.00  0.00    +0.000 NA
ATOM     11  N   UNL     1       1.655   7.049  20.331  0.00  0.00    +0.000 N 
ATOM     12  C   UNL     1       2.133   5.728  20.190  0.00  0.00    +0.000 A 
ATOM     13  O   UNL     1       1.860   4.822  20.971  0.00  0.00    +0.000 OA
ATOM     14  C   UNL     1       2.993   5.554  19.047  0.00  0.00    +0.000 A 
ENDROOT
BRANCH   1  15
ATOM     15  C   UNL     1       3.685   3.142  19.267  0.00  0.00    +0.000 C 
BRANCH  15  17
ATOM     16  C   UNL     1       1.408   2.291  18.598  0.00  0.00    +0.000 C 
ATOM     17  C   UNL     1       2.910   2.076  18.496  0.00  0.00    +0.000 C 
ENDBRANCH  15  17
ENDBRANCH   1  15
BRANCH  11  18
ATOM     18  C   UNL     1       0.883   7.383  21.519  0.00  0.00    +0.000 C 
BRANCH  18  19
ATOM     19  C   UNL     1       0.894   8.881  21.789  0.00  0.00    +0.000 C 
ATOM     20  O   UNL     1       1.829   9.431  22.369  0.00  0.00    +0.000 OA
ATOM     21  N   UNL     1      -0.156   9.587  21.224  0.00  0.00    +0.000 N 
ATOM     22  H   UNL     1      -0.985   9.044  20.995  0.00  0.00    +0.000 HD
BRANCH  21  23
ATOM     23  C   UNL     1      -0.273  11.010  21.484  0.00  0.00    +0.000 C 
BRANCH  23  24
ATOM     24  C   UNL     1      -0.254  11.878  20.219  0.00  0.00    +0.000 C 
BRANCH  24  25
ATOM     25  C   UNL     1      -1.330  11.595  19.182  0.00  0.00    +0.000 A 
ATOM     26  C   UNL     1      -1.012  10.842  18.031  0.00  0.00    +0.000 A 
ATOM     27  C   UNL     1      -1.962  10.546  17.052  0.00  0.00    +0.000 A 
ATOM     28  C   UNL     1      -3.269  10.992  17.181  0.00  0.00    +0.000 A 
ATOM     29  C   UNL     1      -3.620  11.704  18.324  0.00  0.00    +0.000 A 
ATOM     30  C   UNL     1      -2.669  12.013  19.322  0.00  0.00    +0.000 A 
BRANCH  28  31
ATOM     31  O   UNL     1      -4.087  10.660  16.139  0.00  0.00    +0.000 OA
ATOM     32  C   UNL     1      -3.476  10.063  15.002  0.00  0.00    +0.000 C 
ENDBRANCH  28  31
BRANCH  30  33
ATOM     33  O   UNL     1      -3.246  12.622  20.406  0.00  0.00    +0.000 OA
ATOM     34  C   UNL     1      -4.545  13.174  20.268  0.00  0.00    +0.000 C 
ENDBRANCH  30  33
ENDBRANCH  24  25
ENDBRANCH  23  24
ENDBRANCH  21  23
ENDBRANCH  18  19
ENDBRANCH  11  18
TORSDOF 9
ENDMDL
MODEL 2
REMARK VINA RESULT:      -7.4      1.385      2.001
REMARK  Name = 
REMARK  12 active torsions:
REMARK  status: ('A' for Active; 'I' for Inactive)
REMARK    1  A    between atoms: C_1  and  C_2
REMARK    2  A    between atoms: C_2  and  C_3
REMARK    3  A    between atoms: C_3  and  N_4
REMARK    4  A    between atoms: N_14  and  C_15
REMARK    5  A    between atoms: C_15  and  C_16
REMARK    6  A    between atoms: N_18  and  C_19
REMARK    7  A    between atoms: C_19  and  C_20
REMARK    8  A    between atoms: C_20  and  C_21
REMARK    9  A    between atoms: C_24  and  O_25
REMARK   10  A    between atoms: O_25  and  C_26
REMARK   11  A    between atoms: C_28  and  O_29
REMARK   12  A    between atoms: O_29  and  C_30
REMARK                            x       y       z     vdW  Elec       q    Type
REMARK                         _______ _______ _______ _____ _____    ______ ____
ROOT
ATOM      1  N   UNL     1       3.663   4.714  18.672  0.00  0.00    +0.000 N 
ATOM      2  C   UNL     1       4.394   4.776  17.492  0.00  0.00    +0.000 A 
ATOM      3  C   UNL     1       5.149   3.803  16.813  0.00  0.00    +0.000 A 
ATOM      4  C   UNL     1       5.795   4.174  15.628  0.00  0.00    +0.000 A 
ATOM      5  C   UNL     1       5.698   5.470  15.133  0.00  0.00    +0.000 A 
ATOM      6  C   UNL     1       4.947   6.433  15.809  0.00  0.00    +0.000 A 
ATOM      7  C   UNL     1       4.281   6.084  17.002  0.00  0.00    +0.000 A 
ATOM      8  C   UNL     1       3.456   6.788  17.905  0.00  0.00    +0.000 A 
ATOM      9  C   UNL     1       2.998   8.151  17.921  0.00  0.00    +0.000 A 
ATOM     10  N   UNL     1       2.226   8.593  18.871  0.00  0.00    +0.000 NA
ATOM     11  N   UNL     1       1.853   7.723  19.909  0.00  0.00    +0.000 N 
ATOM     12  C   UNL     1       2.226   6.363  19.997  0.00  0.00    +0.000 A 
ATOM     13  O   UNL     1       1.878   5.625  20.913  0.00  0.00    +0.000 OA
ATOM     14  C   UNL     1       3.074   5.935  18.914  0.00  0.00    +0.000 A 
ENDROOT
BRANCH   1  15
ATOM     15  C   UNL     1       3.572   3.547  19.545  0.00  0.00    +0.000 C 
BRANCH  15  17
ATOM     16  C   UNL     1       1.313   2.466  19.833  0.00  0.00    +0.000 C 
ATOM     17  C   UNL     1       2.599   2.494  19.021  0.00  0.00    +0.000 C 
ENDBRANCH  15  17
ENDBRANCH   1  15
BRANCH  11  18
ATOM     18  C   UNL     1       1.105   8.310  21.011  0.00  0.00    +0.000 C 
BRANCH  18  19
ATOM     19  C   UNL     1       0.714   9.751  20.715  0.00  0.00    +0.000 C 
ATOM     20  O   UNL     1       1.139  10.691  21.384  0.00  0.00    +0.000 OA
ATOM     21  N   UNL     1      -0.044   9.930  19.569  0.00  0.00    +0.000 N 
ATOM     22  H   UNL     1      -0.546   9.111  19.236  0.00  0.00    +0.000 HD
BRANCH  21  23
ATOM     23  C   UNL     1      -0.526  11.258  19.240  0.00  0.00    +0.000 C 
BRANCH  23  24
ATOM     24  C   UNL     1      -1.511  11.290  18.063  0.00  0.00    +0.000 C 
BRANCH  24  25
ATOM     25  C   UNL     1      -2.976  11.507  18.407  0.00  0.00    +0.000 A 
ATOM     26  C   UNL     1      -3.976  10.852  17.656  0.00  0.00    +0.000 A 
ATOM     27  C   UNL     1      -5.335  11.009  17.933  0.00  0.00    +0.000 A 
ATOM     28  C   UNL     1      -5.752  11.828  18.971  0.00  0.00    +0.000 A 
ATOM     29  C   UNL     1      -4.787  12.456  19.753  0.00  0.00    +0.000 A 
ATOM     30  C   UNL     1      -3.409  12.309  19.483  0.00  0.00    +0.000 A 
BRANCH  28  31
ATOM     31  O   UNL     1      -7.108  11.918  19.114  0.00  0.00    +0.000 OA
ATOM     32  C   UNL     1      -7.737  13.082  18.595  0.00  0.00    +0.000 C 
ENDBRANCH  28  31
BRANCH  30  33
ATOM     33  O   UNL     1      -2.634  12.920  20.434  0.00  0.00    +0.000 OA
ATOM     34  C   UNL     1      -2.859  12.613  21.800  0.00  0.00    +0.000 C 
ENDBRANCH  30  33
ENDBRANCH  24  25
ENDBRANCH  23  24
ENDBRANCH  21  23
ENDBRANCH  18  19
ENDBRANCH  11  18
TORSDOF 9
ENDMDL
MODEL 3
REMARK VINA RESULT:      -7.4      2.268      9.450
REMARK  Name = 
REMARK  12 active torsions:
REMARK  status: ('A' for Active; 'I' for Inactive)
REMARK    1  A    between atoms: C_1  and  C_2
REMARK    2  A    between atoms: C_2  and  C_3
REMARK    3  A    between atoms: C_3  and  N_4
REMARK    4  A    between atoms: N_14  and  C_15
REMARK    5  A    between atoms: C_15  and  C_16
REMARK    6  A    between atoms: N_18  and  C_19
REMARK    7  A    between atoms: C_19  and  C_20
REMARK    8  A    between atoms: C_20  and  C_21
REMARK    9  A    between atoms: C_24  and  O_25
REMARK   10  A    between atoms: O_25  and  C_26
REMARK   11  A    between atoms: C_28  and  O_29
REMARK   12  A    between atoms: O_29  and  C_30
REMARK                            x       y       z     vdW  Elec       q    Type
REMARK                         _______ _______ _______ _____ _____    ______ ____
ROOT
ATOM      1  N   UNL     1      -3.243  10.649  17.491  0.00  0.00    +0.000 N 
ATOM      2  C   UNL     1      -4.380  11.369  17.837  0.00  0.00    +0.000 A 
ATOM      3  C   UNL     1      -5.644  11.460  17.226  0.00  0.00    +0.000 A 
ATOM      4  C   UNL     1      -6.604  12.292  17.813  0.00  0.00    +0.000 A 
ATOM      5  C   UNL     1      -6.320  13.014  18.968  0.00  0.00    +0.000 A 
ATOM      6  C   UNL     1      -5.065  12.920  19.572  0.00  0.00    +0.000 A 
ATOM      7  C   UNL     1      -4.081  12.083  19.004  0.00  0.00    +0.000 A 
ATOM      8  C   UNL     1      -2.752  11.759  19.351  0.00  0.00    +0.000 A 
ATOM      9  C   UNL     1      -1.915  12.188  20.439  0.00  0.00    +0.000 A 
ATOM     10  N   UNL     1      -0.696  11.750  20.566  0.00  0.00    +0.000 NA
ATOM     11  N   UNL     1      -0.188  10.857  19.609  0.00  0.00    +0.000 N 
ATOM     12  C   UNL     1      -0.914  10.354  18.506  0.00  0.00    +0.000 A 
ATOM     13  O   UNL     1      -0.445   9.567  17.689  0.00  0.00    +0.000 OA
ATOM     14  C   UNL     1      -2.256  10.872  18.425  0.00  0.00    +0.000 A 
ENDROOT
BRANCH   1  15
ATOM     15  C   UNL     1      -3.100   9.823  16.296  0.00  0.00    +0.000 C 
BRANCH  15  17
ATOM     16  C   UNL     1      -3.649  10.010  13.843  0.00  0.00    +0.000 C 
ATOM     17  C   UNL     1      -2.938  10.651  15.024  0.00  0.00    +0.000 C 
ENDBRANCH  15  17
ENDBRANCH   1  15
BRANCH  11  18
ATOM     18  C   UNL     1       1.221  10.511  19.727  0.00  0.00    +0.000 C 
BRANCH  18  19
ATOM     19  C   UNL     1       1.405   9.064  20.164  0.00  0.00    +0.000 C 
ATOM     20  O   UNL     1       0.935   8.637  21.217  0.00  0.00    +0.000 OA
ATOM     21  N   UNL     1       2.026   8.245  19.234  0.00  0.00    +0.000 N 
ATOM     22  H   UNL     1       2.590   8.717  18.532  0.00  0.00    +0.000 HD
BRANCH  21  23
ATOM     23  C   UNL     1       2.311   6.867  19.585  0.00  0.00    +0.000 C 
BRANCH  23  24
ATOM     24  C   UNL     1       2.229   5.893  18.402  0.00  0.00    +0.000 C 
BRANCH  24  25
ATOM     25  C   UNL     1       3.544   5.511  17.741  0.00  0.00    +0.000 A 
ATOM     26  C   UNL     1       4.312   6.499  17.088  0.00  0.00    +0.000 A 
ATOM     27  C   UNL     1       5.530   6.206  16.472  0.00  0.00    +0.000 A 
ATOM     28  C   UNL     1       6.030   4.913  16.481  0.00  0.00    +0.000 A 
ATOM     29  C   UNL     1       5.313   3.925  17.151  0.00  0.00    +0.000 A 
ATOM     30  C   UNL     1       4.079   4.207  17.776  0.00  0.00    +0.000 A 
BRANCH  28  31
ATOM     31  O   UNL     1       7.214   4.757  15.817  0.00  0.00    +0.000 OA
ATOM     32  C   UNL     1       7.207   5.008  14.417  0.00  0.00    +0.000 C 
ENDBRANCH  28  31
BRANCH  30  33
ATOM     33  O   UNL     1       3.596   3.124  18.466  0.00  0.00    +0.000 OA
ATOM     34  C   UNL     1       2.661   2.269  17.827  0.00  0.00    +0.000 C 
ENDBRANCH  30  33
ENDBRANCH  24  25
ENDBRANCH  23  24
ENDBRANCH  21  23
ENDBRANCH  18  19
ENDBRANCH  11  18
TORSDOF 9
ENDMDL
MODEL 4
REMARK VINA RESULT:      -7.4      2.662      4.392
REMARK  Name = 
REMARK  12 active torsions:
REMARK  status: ('A' for Active; 'I' for Inactive)
REMARK    1  A    between atoms: C_1  and  C_2
REMARK    2  A    between atoms: C_2  and  C_3
REMARK    3  A    between atoms: C_3  and  N_4
REMARK    4  A    between atoms: N_14  and  C_15
REMARK    5  A    between atoms: C_15  and  C_16
REMARK    6  A    between atoms: N_18  and  C_19
REMARK    7  A    between atoms: C_19  and  C_20
REMARK    8  A    between atoms: C_20  and  C_21
REMARK    9  A    between atoms: C_24  and  O_25
REMARK   10  A    between atoms: O_25  and  C_26
REMARK   11  A    between atoms: C_28  and  O_29
REMARK   12  A    between atoms: O_29  and  C_30
REMARK                            x       y       z     vdW  Elec       q    Type
REMARK                         _______ _______ _______ _____ _____    ______ ____
ROOT
ATOM      1  N   UNL     1       6.650   4.986  17.081  0.00  0.00    +0.000 N 
ATOM      2  C   UNL     1       6.633   4.759  15.710  0.00  0.00    +0.000 A 
ATOM      3  C   UNL     1       7.554   5.092  14.701  0.00  0.00    +0.000 A 
ATOM      4  C   UNL     1       7.252   4.733  13.382  0.00  0.00    +0.000 A 
ATOM      5  C   UNL     1       6.071   4.066  13.073  0.00  0.00    +0.000 A 
ATOM      6  C   UNL     1       5.160   3.735  14.077  0.00  0.00    +0.000 A 
ATOM      7  C   UNL     1       5.443   4.080  15.415  0.00  0.00    +0.000 A 
ATOM      8  C   UNL     1       4.765   3.896  16.639  0.00  0.00    +0.000 A 
ATOM      9  C   UNL     1       3.508   3.273  16.952  0.00  0.00    +0.000 A 
ATOM     10  N   UNL     1       3.069   3.215  18.176  0.00  0.00    +0.000 NA
ATOM     11  N   UNL     1       3.835   3.790  19.204  0.00  0.00    +0.000 N 
ATOM     12  C   UNL     1       5.089   4.415  19.025  0.00  0.00    +0.000 A 
ATOM     13  O   UNL     1       5.740   4.902  19.944  0.00  0.00    +0.000 OA
ATOM     14  C   UNL     1       5.520   4.442  17.650  0.00  0.00    +0.000 A 
ENDROOT
BRANCH   1  15
ATOM     15  C   UNL     1       7.681   5.727  17.798  0.00  0.00    +0.000 C 
BRANCH  15  17
ATOM     16  C   UNL     1       6.237   7.766  17.463  0.00  0.00    +0.000 C 
ATOM     17  C   UNL     1       7.657   7.222  17.486  0.00  0.00    +0.000 C 
ENDBRANCH  15  17
ENDBRANCH   1  15
BRANCH  11  18
ATOM     18  C   UNL     1       3.231   3.814  20.528  0.00  0.00    +0.000 C 
BRANCH  18  19
ATOM     19  C   UNL     1       1.984   4.686  20.556  0.00  0.00    +0.000 C 
ATOM     20  O   UNL     1       0.854   4.205  20.621  0.00  0.00    +0.000 OA
ATOM     21  N   UNL     1       2.224   6.049  20.631  0.00  0.00    +0.000 N 
ATOM     22  H   UNL     1       3.142   6.357  20.323  0.00  0.00    +0.000 HD
BRANCH  21  23
ATOM     23  C   UNL     1       1.101   6.968  20.592  0.00  0.00    +0.000 C 
BRANCH  23  24
ATOM     24  C   UNL     1       1.311   8.245  21.417  0.00  0.00    +0.000 C 
BRANCH  24  25
ATOM     25  C   UNL     1       0.897   9.554  20.762  0.00  0.00    +0.000 A 
ATOM     26  C   UNL     1       1.029   9.710  19.366  0.00  0.00    +0.000 A 
ATOM     27  C   UNL     1       0.657  10.887  18.713  0.00  0.00    +0.000 A 
ATOM     28  C   UNL     1       0.140  11.957  19.428  0.00  0.00    +0.000 A 
ATOM     29  C   UNL     1      -0.036  11.816  20.802  0.00  0.00    +0.000 A 
ATOM     30  C   UNL     1       0.338  10.633  21.476  0.00  0.00    +0.000 A 
BRANCH  28  31
ATOM     31  O   UNL     1      -0.153  13.056  18.672  0.00  0.00    +0.000 OA
ATOM     32  C   UNL     1      -0.363  14.280  19.366  0.00  0.00    +0.000 C 
ENDBRANCH  28  31
BRANCH  30  33
ATOM     33  O   UNL     1      -0.020  10.665  22.799  0.00  0.00    +0.000 OA
ATOM     34  C   UNL     1      -1.316  11.126  23.145  0.00  0.00    +0.000 C 
ENDBRANCH  30  33
ENDBRANCH  24  25
ENDBRANCH  23  24
ENDBRANCH  21  23
ENDBRANCH  18  19
ENDBRANCH  11  18
TORSDOF 9
ENDMDL
MODEL 5
REMARK VINA RESULT:      -7.3      2.919      9.410
REMARK  Name = 
REMARK  12 active torsions:
REMARK  status: ('A' for Active; 'I' for Inactive)
REMARK    1  A    between atoms: C_1  and  C_2
REMARK    2  A    between atoms: C_2  and  C_3
REMARK    3  A    between atoms: C_3  and  N_4
REMARK    4  A    between atoms: N_14  and  C_15
REMARK    5  A    between atoms: C_15  and  C_16
REMARK    6  A    between atoms: N_18  and  C_19
REMARK    7  A    between atoms: C_19  and  C_20
REMARK    8  A    between atoms: C_20  and  C_21
REMARK    9  A    between atoms: C_24  and  O_25
REMARK   10  A    between atoms: O_25  and  C_26
REMARK   11  A    between atoms: C_28  and  O_29
REMARK   12  A    between atoms: O_29  and  C_30
REMARK                            x       y       z     vdW  Elec       q    Type
REMARK                         _______ _______ _______ _____ _____    ______ ____
ROOT
ATOM      1  N   UNL     1       0.320  11.831  19.962  0.00  0.00    +0.000 N 
ATOM      2  C   UNL     1      -0.448  12.044  21.100  0.00  0.00    +0.000 A 
ATOM      3  C   UNL     1      -1.120  13.187  21.568  0.00  0.00    +0.000 A 
ATOM      4  C   UNL     1      -1.817  13.097  22.778  0.00  0.00    +0.000 A 
ATOM      5  C   UNL     1      -1.844  11.911  23.505  0.00  0.00    +0.000 A 
ATOM      6  C   UNL     1      -1.177  10.777  23.037  0.00  0.00    +0.000 A 
ATOM      7  C   UNL     1      -0.473  10.840  21.816  0.00  0.00    +0.000 A 
ATOM      8  C   UNL     1       0.281   9.907  21.071  0.00  0.00    +0.000 A 
ATOM      9  C   UNL     1       0.602   8.527  21.312  0.00  0.00    +0.000 A 
ATOM     10  N   UNL     1       1.327   7.846  20.471  0.00  0.00    +0.000 NA
ATOM     11  N   UNL     1       1.817   8.484  19.320  0.00  0.00    +0.000 N 
ATOM     12  C   UNL     1       1.559   9.827  18.967  0.00  0.00    +0.000 A 
ATOM     13  O   UNL     1       1.995  10.355  17.949  0.00  0.00    +0.000 OA
ATOM     14  C   UNL     1       0.749  10.523  19.934  0.00  0.00    +0.000 A 
ENDROOT
BRANCH   1  15
ATOM     15  C   UNL     1       0.660  12.850  18.974  0.00  0.00    +0.000 C 
BRANCH  15  17
ATOM     16  C   UNL     1       2.720  13.998  18.083  0.00  0.00    +0.000 C 
ATOM     17  C   UNL     1       1.936  13.610  19.327  0.00  0.00    +0.000 C 
ENDBRANCH  15  17
ENDBRANCH   1  15
BRANCH  11  18
ATOM     18  C   UNL     1       2.731   7.713  18.490  0.00  0.00    +0.000 C 
BRANCH  18  19
ATOM     19  C   UNL     1       2.587   6.218  18.741  0.00  0.00    +0.000 C 
ATOM     20  O   UNL     1       1.811   5.521  18.089  0.00  0.00    +0.000 OA
ATOM     21  N   UNL     1       3.478   5.688  19.660  0.00  0.00    +0.000 N 
ATOM     22  H   UNL     1       3.890   6.350  20.313  0.00  0.00    +0.000 HD
BRANCH  21  23
ATOM     23  C   UNL     1       3.374   4.287  20.020  0.00  0.00    +0.000 C 
BRANCH  23  24
ATOM     24  C   UNL     1       4.269   3.360  19.185  0.00  0.00    +0.000 C 
BRANCH  24  25
ATOM     25  C   UNL     1       4.972   3.987  17.991  0.00  0.00    +0.000 A 
ATOM     26  C   UNL     1       4.406   3.868  16.704  0.00  0.00    +0.000 A 
ATOM     27  C   UNL     1       5.005   4.430  15.575  0.00  0.00    +0.000 A 
ATOM     28  C   UNL     1       6.195   5.133  15.685  0.00  0.00    +0.000 A 
ATOM     29  C   UNL     1       6.756   5.299  16.948  0.00  0.00    +0.000 A 
ATOM     30  C   UNL     1       6.163   4.734  18.098  0.00  0.00    +0.000 A 
BRANCH  28  31
ATOM     31  O   UNL     1       6.688   5.603  14.501  0.00  0.00    +0.000 OA
ATOM     32  C   UNL     1       7.637   4.786  13.826  0.00  0.00    +0.000 C 
ENDBRANCH  28  31
BRANCH  30  33
ATOM     33  O   UNL     1       6.815   5.108  19.245  0.00  0.00    +0.000 OA
ATOM     34  C   UNL     1       7.993   5.891  19.137  0.00  0.00    +0.000 C 
ENDBRANCH  30  33
ENDBRANCH  24  25
ENDBRANCH  23  24
ENDBRANCH  21  23
ENDBRANCH  18  19
ENDBRANCH  11  18
TORSDOF 9
ENDMDL
MODEL 6
REMARK VINA RESULT:      -7.3      2.531      3.584
REMARK  Name = 
REMARK  12 active torsions:
REMARK  status: ('A' for Active; 'I' for Inactive)
REMARK    1  A    between atoms: C_1  and  C_2
REMARK    2  A    between atoms: C_2  and  C_3
REMARK    3  A    between atoms: C_3  and  N_4
REMARK    4  A    between atoms: N_14  and  C_15
REMARK    5  A    between atoms: C_15  and  C_16
REMARK    6  A    between atoms: N_18  and  C_19
REMARK    7  A    between atoms: C_19  and  C_20
REMARK    8  A    between atoms: C_20  and  C_21
REMARK    9  A    between atoms: C_24  and  O_25
REMARK   10  A    between atoms: O_25  and  C_26
REMARK   11  A    between atoms: C_28  and  O_29
REMARK   12  A    between atoms: O_29  and  C_30
REMARK                            x       y       z     vdW  Elec       q    Type
REMARK                         _______ _______ _______ _____ _____    ______ ____
ROOT
ATOM      1  N   UNL     1       3.806   4.699  18.682  0.00  0.00    +0.000 N 
ATOM      2  C   UNL     1       4.513   4.857  17.497  0.00  0.00    +0.000 A 
ATOM      3  C   UNL     1       5.336   3.970  16.780  0.00  0.00    +0.000 A 
ATOM      4  C   UNL     1       5.933   4.428  15.599  0.00  0.00    +0.000 A 
ATOM      5  C   UNL     1       5.723   5.725  15.144  0.00  0.00    +0.000 A 
ATOM      6  C   UNL     1       4.904   6.603  15.857  0.00  0.00    +0.000 A 
ATOM      7  C   UNL     1       4.286   6.164  17.047  0.00  0.00    +0.000 A 
ATOM      8  C   UNL     1       3.417   6.771  17.980  0.00  0.00    +0.000 A 
ATOM      9  C   UNL     1       2.849   8.090  18.042  0.00  0.00    +0.000 A 
ATOM     10  N   UNL     1       2.056   8.438  19.014  0.00  0.00    +0.000 NA
ATOM     11  N   UNL     1       1.771   7.510  20.029  0.00  0.00    +0.000 N 
ATOM     12  C   UNL     1       2.256   6.185  20.073  0.00  0.00    +0.000 A 
ATOM     13  O   UNL     1       1.983   5.393  20.970  0.00  0.00    +0.000 OA
ATOM     14  C   UNL     1       3.122   5.860  18.968  0.00  0.00    +0.000 A 
ENDROOT
BRANCH   1  15
ATOM     15  C   UNL     1       3.824   3.505  19.520  0.00  0.00    +0.000 C 
BRANCH  15  17
ATOM     16  C   UNL     1       2.316   2.368  17.850  0.00  0.00    +0.000 C 
ATOM     17  C   UNL     1       2.590   2.628  19.323  0.00  0.00    +0.000 C 
ENDBRANCH  15  17
ENDBRANCH   1  15
BRANCH  11  18
ATOM     18  C   UNL     1       0.992   8.001  21.156  0.00  0.00    +0.000 C 
BRANCH  18  19
ATOM     19  C   UNL     1       0.703   9.490  21.030  0.00  0.00    +0.000 C 
ATOM     20  O   UNL     1       1.382  10.336  21.610  0.00  0.00    +0.000 OA
ATOM     21  N   UNL     1      -0.289   9.820  20.120  0.00  0.00    +0.000 N 
ATOM     22  H   UNL     1      -0.945   9.080  19.890  0.00  0.00    +0.000 HD
BRANCH  21  23
ATOM     23  C   UNL     1      -0.686  11.209  19.980  0.00  0.00    +0.000 C 
BRANCH  23  24
ATOM     24  C   UNL     1      -0.313  11.830  18.627  0.00  0.00    +0.000 C 
BRANCH  24  25
ATOM     25  C   UNL     1       0.758  12.910  18.646  0.00  0.00    +0.000 A 
ATOM     26  C   UNL     1       2.094  12.577  18.335  0.00  0.00    +0.000 A 
ATOM     27  C   UNL     1       3.114  13.530  18.329  0.00  0.00    +0.000 A 
ATOM     28  C   UNL     1       2.843  14.854  18.635  0.00  0.00    +0.000 A 
ATOM     29  C   UNL     1       1.527  15.219  18.908  0.00  0.00    +0.000 A 
ATOM     30  C   UNL     1       0.486  14.266  18.920  0.00  0.00    +0.000 A 
BRANCH  28  31
ATOM     31  O   UNL     1       3.935  15.675  18.623  0.00  0.00    +0.000 OA
ATOM     32  C   UNL     1       3.985  16.698  19.609  0.00  0.00    +0.000 C 
ENDBRANCH  28  31
BRANCH  30  33
ATOM     33  O   UNL     1      -0.741  14.852  19.104  0.00  0.00    +0.000 OA
ATOM     34  C   UNL     1      -1.125  15.234  20.414  0.00  0.00    +0.000 C 
ENDBRANCH  30  33
ENDBRANCH  24  25
ENDBRANCH  23  24
ENDBRANCH  21  23
ENDBRANCH  18  19
ENDBRANCH  11  18
TORSDOF 9
ENDMDL
MODEL 7
REMARK VINA RESULT:      -7.3      3.343      4.373
REMARK  Name = 
REMARK  12 active torsions:
REMARK  status: ('A' for Active; 'I' for Inactive)
REMARK    1  A    between atoms: C_1  and  C_2
REMARK    2  A    between atoms: C_2  and  C_3
REMARK    3  A    between atoms: C_3  and  N_4
REMARK    4  A    between atoms: N_14  and  C_15
REMARK    5  A    between atoms: C_15  and  C_16
REMARK    6  A    between atoms: N_18  and  C_19
REMARK    7  A    between atoms: C_19  and  C_20
REMARK    8  A    between atoms: C_20  and  C_21
REMARK    9  A    between atoms: C_24  and  O_25
REMARK   10  A    between atoms: O_25  and  C_26
REMARK   11  A    between atoms: C_28  and  O_29
REMARK   12  A    between atoms: O_29  and  C_30
REMARK                            x       y       z     vdW  Elec       q    Type
REMARK                         _______ _______ _______ _____ _____    ______ ____
ROOT
ATOM      1  N   UNL     1       3.451   5.009  18.781  0.00  0.00    +0.000 N 
ATOM      2  C   UNL     1       4.224   4.988  17.627  0.00  0.00    +0.000 A 
ATOM      3  C   UNL     1       4.974   3.960  17.028  0.00  0.00    +0.000 A 
ATOM      4  C   UNL     1       5.671   4.249  15.849  0.00  0.00    +0.000 A 
ATOM      5  C   UNL     1       5.630   5.519  15.283  0.00  0.00    +0.000 A 
ATOM      6  C   UNL     1       4.884   6.537  15.879  0.00  0.00    +0.000 A 
ATOM      7  C   UNL     1       4.166   6.270  17.064  0.00  0.00    +0.000 A 
ATOM      8  C   UNL     1       3.331   7.044  17.898  0.00  0.00    +0.000 A 
ATOM      9  C   UNL     1       2.912   8.417  17.825  0.00  0.00    +0.000 A 
ATOM     10  N   UNL     1       2.121   8.931  18.722  0.00  0.00    +0.000 NA
ATOM     11  N   UNL     1       1.687   8.128  19.789  0.00  0.00    +0.000 N 
ATOM     12  C   UNL     1       2.017   6.766  19.963  0.00  0.00    +0.000 A 
ATOM     13  O   UNL     1       1.616   6.087  20.904  0.00  0.00    +0.000 OA
ATOM     14  C   UNL     1       2.890   6.257  18.936  0.00  0.00    +0.000 A 
ENDROOT
BRANCH   1  15
ATOM     15  C   UNL     1       3.296   3.894  19.710  0.00  0.00    +0.000 C 
BRANCH  15  17
ATOM     16  C   UNL     1       2.518   1.752  18.631  0.00  0.00    +0.000 C 
ATOM     17  C   UNL     1       2.097   3.010  19.374  0.00  0.00    +0.000 C 
ENDBRANCH  15  17
ENDBRANCH   1  15
BRANCH  11  18
ATOM     18  C   UNL     1       0.918   8.794  20.831  0.00  0.00    +0.000 C 
BRANCH  18  19
ATOM     19  C   UNL     1       0.195  10.020  20.293  0.00  0.00    +0.000 C 
ATOM     20  O   UNL     1      -0.925   9.948  19.789  0.00  0.00    +0.000 OA
ATOM     21  N   UNL     1       0.833  11.228  20.529  0.00  0.00    +0.000 N 
ATOM     22  H   UNL     1       1.832  11.175  20.711  0.00  0.00    +0.000 HD
BRANCH  21  23
ATOM     23  C   UNL     1       0.259  12.448  19.993  0.00  0.00    +0.000 C 
BRANCH  23  24
ATOM     24  C   UNL     1       0.807  12.842  18.615  0.00  0.00    +0.000 C 
BRANCH  24  25
ATOM     25  C   UNL     1       1.750  14.035  18.573  0.00  0.00    +0.000 A 
ATOM     26  C   UNL     1       3.136  13.825  18.408  0.00  0.00    +0.000 A 
ATOM     27  C   UNL     1       4.046  14.883  18.354  0.00  0.00    +0.000 A 
ATOM     28  C   UNL     1       3.608  16.194  18.465  0.00  0.00    +0.000 A 
ATOM     29  C   UNL     1       2.242  16.432  18.590  0.00  0.00    +0.000 A 
ATOM     30  C   UNL     1       1.311  15.372  18.648  0.00  0.00    +0.000 A 
BRANCH  28  31
ATOM     31  O   UNL     1       4.603  17.130  18.428  0.00  0.00    +0.000 OA
ATOM     32  C   UNL     1       5.595  17.058  19.443  0.00  0.00    +0.000 C 
ENDBRANCH  28  31
BRANCH  30  33
ATOM     33  O   UNL     1       0.018  15.828  18.662  0.00  0.00    +0.000 OA
ATOM     34  C   UNL     1      -0.489  16.406  19.854  0.00  0.00    +0.000 C 
ENDBRANCH  30  33
ENDBRANCH  24  25
ENDBRANCH  23  24
ENDBRANCH  21  23
ENDBRANCH  18  19
ENDBRANCH  11  18
TORSDOF 9
ENDMDL
MODEL 8
REMARK VINA RESULT:      -7.2      1.883      3.465
REMARK  Name = 
REMARK  12 active torsions:
REMARK  status: ('A' for Active; 'I' for Inactive)
REMARK    1  A    between atoms: C_1  and  C_2
REMARK    2  A    between atoms: C_2  and  C_3
REMARK    3  A    between atoms: C_3  and  N_4
REMARK    4  A    between atoms: N_14  and  C_15
REMARK    5  A    between atoms: C_15  and  C_16
REMARK    6  A    between atoms: N_18  and  C_19
REMARK    7  A    between atoms: C_19  and  C_20
REMARK    8  A    between atoms: C_20  and  C_21
REMARK    9  A    between atoms: C_24  and  O_25
REMARK   10  A    between atoms: O_25  and  C_26
REMARK   11  A    between atoms: C_28  and  O_29
REMARK   12  A    between atoms: O_29  and  C_30
REMARK                            x       y       z     vdW  Elec       q    Type
REMARK                         _______ _______ _______ _____ _____    ______ ____
ROOT
ATOM      1  N   UNL     1       3.585   4.465  18.508  0.00  0.00    +0.000 N 
ATOM      2  C   UNL     1       4.359   4.583  17.359  0.00  0.00    +0.000 A 
ATOM      3  C   UNL     1       5.091   3.630  16.629  0.00  0.00    +0.000 A 
ATOM      4  C   UNL     1       5.793   4.059  15.498  0.00  0.00    +0.000 A 
ATOM      5  C   UNL     1       5.773   5.393  15.102  0.00  0.00    +0.000 A 
ATOM      6  C   UNL     1       5.043   6.336  15.828  0.00  0.00    +0.000 A 
ATOM      7  C   UNL     1       4.321   5.928  16.969  0.00  0.00    +0.000 A 
ATOM      8  C   UNL     1       3.498   6.600  17.899  0.00  0.00    +0.000 A 
ATOM      9  C   UNL     1       3.102   7.977  18.007  0.00  0.00    +0.000 A 
ATOM     10  N   UNL     1       2.319   8.382  18.965  0.00  0.00    +0.000 NA
ATOM     11  N   UNL     1       1.872   7.453  19.919  0.00  0.00    +0.000 N 
ATOM     12  C   UNL     1       2.180   6.075  19.913  0.00  0.00    +0.000 A 
ATOM     13  O   UNL     1       1.768   5.285  20.757  0.00  0.00    +0.000 OA
ATOM     14  C   UNL     1       3.045   5.690  18.826  0.00  0.00    +0.000 A 
ENDROOT
BRANCH   1  15
ATOM     15  C   UNL     1       3.412   3.241  19.283  0.00  0.00    +0.000 C 
BRANCH  15  17
ATOM     16  C   UNL     1       1.068   2.488  18.742  0.00  0.00    +0.000 C 
ATOM     17  C   UNL     1       2.551   2.205  18.564  0.00  0.00    +0.000 C 
ENDBRANCH  15  17
ENDBRANCH   1  15
BRANCH  11  18
ATOM     18  C   UNL     1       1.114   7.989  21.041  0.00  0.00    +0.000 C 
BRANCH  18  19
ATOM     19  C   UNL     1       0.871   9.484  20.887  0.00  0.00    +0.000 C 
ATOM     20  O   UNL     1       1.424  10.311  21.611  0.00  0.00    +0.000 OA
ATOM     21  N   UNL     1       0.090   9.843  19.800  0.00  0.00    +0.000 N 
ATOM     22  H   UNL     1      -0.512   9.115  19.425  0.00  0.00    +0.000 HD
BRANCH  21  23
ATOM     23  C   UNL     1      -0.257  11.238  19.608  0.00  0.00    +0.000 C 
BRANCH  23  24
ATOM     24  C   UNL     1      -1.700  11.581  19.999  0.00  0.00    +0.000 C 
BRANCH  24  25
ATOM     25  C   UNL     1      -1.881  12.581  21.130  0.00  0.00    +0.000 A 
ATOM     26  C   UNL     1      -0.778  12.926  21.942  0.00  0.00    +0.000 A 
ATOM     27  C   UNL     1      -0.885  13.844  22.988  0.00  0.00    +0.000 A 
ATOM     28  C   UNL     1      -2.098  14.454  23.269  0.00  0.00    +0.000 A 
ATOM     29  C   UNL     1      -3.194  14.161  22.461  0.00  0.00    +0.000 A 
ATOM     30  C   UNL     1      -3.101  13.234  21.401  0.00  0.00    +0.000 A 
BRANCH  28  31
ATOM     31  O   UNL     1      -2.072  15.306  24.337  0.00  0.00    +0.000 OA
ATOM     32  C   UNL     1      -2.922  14.994  25.433  0.00  0.00    +0.000 C 
ENDBRANCH  28  31
BRANCH  30  33
ATOM     33  O   UNL     1      -4.259  13.176  20.669  0.00  0.00    +0.000 OA
ATOM     34  C   UNL     1      -5.496  13.389  21.331  0.00  0.00    +0.000 C 
ENDBRANCH  30  33
ENDBRANCH  24  25
ENDBRANCH  23  24
ENDBRANCH  21  23
ENDBRANCH  18  19
ENDBRANCH  11  18
TORSDOF 9
ENDMDL
MODEL 9
REMARK VINA RESULT:      -7.2      2.375      4.706
REMARK  Name = 
REMARK  12 active torsions:
REMARK  status: ('A' for Active; 'I' for Inactive)
REMARK    1  A    between atoms: C_1  and  C_2
REMARK    2  A    between atoms: C_2  and  C_3
REMARK    3  A    between atoms: C_3  and  N_4
REMARK    4  A    between atoms: N_14  and  C_15
REMARK    5  A    between atoms: C_15  and  C_16
REMARK    6  A    between atoms: N_18  and  C_19
REMARK    7  A    between atoms: C_19  and  C_20
REMARK    8  A    between atoms: C_20  and  C_21
REMARK    9  A    between atoms: C_24  and  O_25
REMARK   10  A    between atoms: O_25  and  C_26
REMARK   11  A    between atoms: C_28  and  O_29
REMARK   12  A    between atoms: O_29  and  C_30
REMARK                            x       y       z     vdW  Elec       q    Type
REMARK                         _______ _______ _______ _____ _____    ______ ____
ROOT
ATOM      1  N   UNL     1       3.311   5.697  18.459  0.00  0.00    +0.000 N 
ATOM      2  C   UNL     1       3.224   4.623  19.338  0.00  0.00    +0.000 A 
ATOM      3  C   UNL     1       3.772   3.329  19.282  0.00  0.00    +0.000 A 
ATOM      4  C   UNL     1       3.495   2.447  20.333  0.00  0.00    +0.000 A 
ATOM      5  C   UNL     1       2.697   2.835  21.405  0.00  0.00    +0.000 A 
ATOM      6  C   UNL     1       2.157   4.120  21.457  0.00  0.00    +0.000 A 
ATOM      7  C   UNL     1       2.426   5.031  20.414  0.00  0.00    +0.000 A 
ATOM      8  C   UNL     1       2.056   6.370  20.163  0.00  0.00    +0.000 A 
ATOM      9  C   UNL     1       1.249   7.296  20.910  0.00  0.00    +0.000 A 
ATOM     10  N   UNL     1       1.038   8.507  20.481  0.00  0.00    +0.000 NA
ATOM     11  N   UNL     1       1.596   8.903  19.255  0.00  0.00    +0.000 N 
ATOM     12  C   UNL     1       2.416   8.092  18.439  0.00  0.00    +0.000 A 
ATOM     13  O   UNL     1       2.897   8.470  17.375  0.00  0.00    +0.000 OA
ATOM     14  C   UNL     1       2.615   6.768  18.972  0.00  0.00    +0.000 A 
ENDROOT
BRANCH   1  15
ATOM     15  C   UNL     1       3.995   5.675  17.170  0.00  0.00    +0.000 C 
BRANCH  15  17
ATOM     16  C   UNL     1       6.416   5.265  17.740  0.00  0.00    +0.000 C 
ATOM     17  C   UNL     1       5.397   6.275  17.236  0.00  0.00    +0.000 C 
ENDBRANCH  15  17
ENDBRANCH   1  15
BRANCH  11  18
ATOM     18  C   UNL     1       1.214  10.219  18.762  0.00  0.00    +0.000 C 
BRANCH  18  19
ATOM     19  C   UNL     1       0.642  11.086  19.875  0.00  0.00    +0.000 C 
ATOM     20  O   UNL     1       1.325  11.919  20.468  0.00  0.00    +0.000 OA
ATOM     21  N   UNL     1      -0.724  10.957  20.076  0.00  0.00    +0.000 N 
ATOM     22  H   UNL     1      -1.144  10.096  19.735  0.00  0.00    +0.000 HD
BRANCH  21  23
ATOM     23  C   UNL     1      -1.351  11.689  21.160  0.00  0.00    +0.000 C 
BRANCH  23  24
ATOM     24  C   UNL     1      -2.457  12.651  20.705  0.00  0.00    +0.000 C 
BRANCH  24  25
ATOM     25  C   UNL     1      -3.704  12.716  21.574  0.00  0.00    +0.000 A 
ATOM     26  C   UNL     1      -3.575  12.799  22.977  0.00  0.00    +0.000 A 
ATOM     27  C   UNL     1      -4.685  12.868  23.821  0.00  0.00    +0.000 A 
ATOM     28  C   UNL     1      -5.969  12.856  23.298  0.00  0.00    +0.000 A 
ATOM     29  C   UNL     1      -6.125  12.814  21.915  0.00  0.00    +0.000 A 
ATOM     30  C   UNL     1      -5.012  12.741  21.050  0.00  0.00    +0.000 A 
BRANCH  28  31
ATOM     31  O   UNL     1      -6.964  12.898  24.234  0.00  0.00    +0.000 OA
ATOM     32  C   UNL     1      -7.769  14.069  24.268  0.00  0.00    +0.000 C 
ENDBRANCH  28  31
BRANCH  30  33
ATOM     33  O   UNL     1      -5.383  12.818  19.732  0.00  0.00    +0.000 OA
ATOM     34  C   UNL     1      -6.102  11.737  19.161  0.00  0.00    +0.000 C 
ENDBRANCH  30  33
ENDBRANCH  24  25
ENDBRANCH  23  24
ENDBRANCH  21  23
ENDBRANCH  18  19
ENDBRANCH  11  18
TORSDOF 9
ENDMDL
