MODEL 1
REMARK VINA RESULT:      -7.7      0.000      0.000
REMARK  Name = 
REMARK  4 active torsions:
REMARK  status: ('A' for Active; 'I' for Inactive)
REMARK    1  A    between atoms: C_1  and  C_2
REMARK    2  A    between atoms: C_5  and  O_6
REMARK    3  A    between atoms: C_7  and  C_8
REMARK    4  A    between atoms: N_9  and  C_10
REMARK                            x       y       z     vdW  Elec       q    Type
REMARK                         _______ _______ _______ _____ _____    ______ ____
ROOT
ATOM      1  C   UNL     1       5.203   4.147  16.241  0.00  0.00    +0.000 C 
ATOM      2  N   UNL     1       4.422   5.090  16.670  0.00  0.00    +0.000 NA
ENDROOT
BRANCH   2   3
ATOM      3  C   UNL     1       3.840   4.974  17.949  0.00  0.00    +0.000 A 
ATOM      4  C   UNL     1       3.092   5.997  18.549  0.00  0.00    +0.000 A 
ATOM      5  C   UNL     1       2.500   5.851  19.809  0.00  0.00    +0.000 A 
ATOM      6  C   UNL     1       2.651   4.614  20.434  0.00  0.00    +0.000 A 
ATOM      7  N   UNL     1       2.193   4.140  21.633  0.00  0.00    +0.000 N 
ATOM      8  N   UNL     1       2.535   2.864  21.889  0.00  0.00    +0.000 NA
ATOM      9  C   UNL     1       3.243   2.516  20.810  0.00  0.00    +0.000 A 
ATOM     10  C   UNL     1       3.359   3.561  19.869  0.00  0.00    +0.000 A 
ATOM     11  C   UNL     1       3.967   3.742  18.610  0.00  0.00    +0.000 A 
ATOM     12  H   UNL     1       1.632   4.634  22.319  0.00  0.00    +0.000 HD
ENDBRANCH   2   3
BRANCH   1  18
ATOM     13  C   UNL     1       5.454   2.700  11.462  0.00  0.00    +0.000 C 
ATOM     14  C   UNL     1       6.001   3.507  12.602  0.00  0.00    +0.000 A 
ATOM     15  C   UNL     1       7.134   4.315  12.439  0.00  0.00    +0.000 A 
ATOM     16  C   UNL     1       7.622   5.079  13.504  0.00  0.00    +0.000 A 
ATOM     17  C   UNL     1       6.983   5.031  14.742  0.00  0.00    +0.000 A 
ATOM     18  C   UNL     1       5.863   4.213  14.923  0.00  0.00    +0.000 A 
ATOM     19  C   UNL     1       5.369   3.459  13.852  0.00  0.00    +0.000 A 
BRANCH  17  20
ATOM     20  O   UNL     1       7.450   5.795  15.775  0.00  0.00    +0.000 OA
ATOM     21  H   UNL     1       7.956   6.542  15.413  0.00  0.00    +0.000 HD
ENDBRANCH  17  20
ENDBRANCH   1  18
TORSDOF 3
ENDMDL
MODEL 2
REMARK VINA RESULT:      -7.5      3.576      7.823
REMARK  Name = 
REMARK  4 active torsions:
REMARK  status: ('A' for Active; 'I' for Inactive)
REMARK    1  A    between atoms: C_1  and  C_2
REMARK    2  A    between atoms: C_5  and  O_6
REMARK    3  A    between atoms: C_7  and  C_8
REMARK    4  A    between atoms: N_9  and  C_10
REMARK                            x       y       z     vdW  Elec       q    Type
REMARK                         _______ _______ _______ _____ _____    ______ ____
ROOT
ATOM      1  C   UNL     1       2.543   7.723  19.031  0.00  0.00    +0.000 C 
ATOM      2  N   UNL     1       2.246   6.756  18.218  0.00  0.00    +0.000 NA
ENDROOT
BRANCH   2   3
ATOM      3  C   UNL     1       3.265   5.885  17.782  0.00  0.00    +0.000 A 
ATOM      4  C   UNL     1       3.065   4.513  17.571  0.00  0.00    +0.000 A 
ATOM      5  C   UNL     1       4.084   3.671  17.111  0.00  0.00    +0.000 A 
ATOM      6  C   UNL     1       5.313   4.268  16.829  0.00  0.00    +0.000 A 
ATOM      7  N   UNL     1       6.487   3.749  16.356  0.00  0.00    +0.000 N 
ATOM      8  N   UNL     1       7.465   4.658  16.192  0.00  0.00    +0.000 NA
ATOM      9  C   UNL     1       6.889   5.800  16.582  0.00  0.00    +0.000 A 
ATOM     10  C   UNL     1       5.551   5.625  16.997  0.00  0.00    +0.000 A 
ATOM     11  C   UNL     1       4.515   6.448  17.484  0.00  0.00    +0.000 A 
ATOM     12  H   UNL     1       6.683   2.783  16.115  0.00  0.00    +0.000 HD
ENDBRANCH   2   3
BRANCH   1  18
ATOM     13  C   UNL     1      -0.384   9.296  22.767  0.00  0.00    +0.000 C 
ATOM     14  C   UNL     1       0.088   9.424  21.348  0.00  0.00    +0.000 A 
ATOM     15  C   UNL     1      -0.429  10.411  20.499  0.00  0.00    +0.000 A 
ATOM     16  C   UNL     1       0.033  10.532  19.185  0.00  0.00    +0.000 A 
ATOM     17  C   UNL     1       1.012   9.661  18.712  0.00  0.00    +0.000 A 
ATOM     18  C   UNL     1       1.523   8.659  19.544  0.00  0.00    +0.000 A 
ATOM     19  C   UNL     1       1.067   8.547  20.862  0.00  0.00    +0.000 A 
BRANCH  17  20
ATOM     20  O   UNL     1       1.478   9.797  17.433  0.00  0.00    +0.000 OA
ATOM     21  H   UNL     1       2.365  10.194  17.460  0.00  0.00    +0.000 HD
ENDBRANCH  17  20
ENDBRANCH   1  18
TORSDOF 3
ENDMDL
MODEL 3
REMARK VINA RESULT:      -7.4      6.432      7.935
REMARK  Name = 
REMARK  4 active torsions:
REMARK  status: ('A' for Active; 'I' for Inactive)
REMARK    1  A    between atoms: C_1  and  C_2
REMARK    2  A    between atoms: C_5  and  O_6
REMARK    3  A    between atoms: C_7  and  C_8
REMARK    4  A    between atoms: N_9  and  C_10
REMARK                            x       y       z     vdW  Elec       q    Type
REMARK                         _______ _______ _______ _____ _____    ______ ____
ROOT
ATOM      1  C   UNL     1       8.998   9.389  19.024  0.00  0.00    +0.000 C 
ATOM      2  N   UNL     1       8.346   8.994  17.974  0.00  0.00    +0.000 NA
ENDROOT
BRANCH   2   3
ATOM      3  C   UNL     1       7.777   7.704  17.961  0.00  0.00    +0.000 A 
ATOM      4  C   UNL     1       8.187   6.676  18.821  0.00  0.00    +0.000 A 
ATOM      5  C   UNL     1       7.590   5.409  18.810  0.00  0.00    +0.000 A 
ATOM      6  C   UNL     1       6.528   5.223  17.925  0.00  0.00    +0.000 A 
ATOM      7  N   UNL     1       5.728   4.140  17.681  0.00  0.00    +0.000 N 
ATOM      8  N   UNL     1       4.782   4.353  16.749  0.00  0.00    +0.000 NA
ATOM      9  C   UNL     1       4.992   5.621  16.384  0.00  0.00    +0.000 A 
ATOM     10  C   UNL     1       6.069   6.219  17.073  0.00  0.00    +0.000 A 
ATOM     11  C   UNL     1       6.703   7.478  17.086  0.00  0.00    +0.000 A 
ATOM     12  H   UNL     1       5.770   3.228  18.125  0.00  0.00    +0.000 HD
ENDBRANCH   2   3
BRANCH   1  18
ATOM     13  C   UNL     1      11.119  13.329  16.793  0.00  0.00    +0.000 C 
ATOM     14  C   UNL     1      10.644  12.648  18.042  0.00  0.00    +0.000 A 
ATOM     15  C   UNL     1      10.769  13.262  19.295  0.00  0.00    +0.000 A 
ATOM     16  C   UNL     1      10.303  12.626  20.449  0.00  0.00    +0.000 A 
ATOM     17  C   UNL     1       9.715  11.366  20.357  0.00  0.00    +0.000 A 
ATOM     18  C   UNL     1       9.601  10.733  19.114  0.00  0.00    +0.000 A 
ATOM     19  C   UNL     1      10.057  11.378  17.959  0.00  0.00    +0.000 A 
BRANCH  17  20
ATOM     20  O   UNL     1       9.241  10.756  21.485  0.00  0.00    +0.000 OA
ATOM     21  H   UNL     1       8.496  11.273  21.835  0.00  0.00    +0.000 HD
ENDBRANCH  17  20
ENDBRANCH   1  18
TORSDOF 3
ENDMDL
MODEL 4
REMARK VINA RESULT:      -7.3      0.939      1.895
REMARK  Name = 
REMARK  4 active torsions:
REMARK  status: ('A' for Active; 'I' for Inactive)
REMARK    1  A    between atoms: C_1  and  C_2
REMARK    2  A    between atoms: C_5  and  O_6
REMARK    3  A    between atoms: C_7  and  C_8
REMARK    4  A    between atoms: N_9  and  C_10
REMARK                            x       y       z     vdW  Elec       q    Type
REMARK                         _______ _______ _______ _____ _____    ______ ____
ROOT
ATOM      1  C   UNL     1       5.159   4.668  15.790  0.00  0.00    +0.000 C 
ATOM      2  N   UNL     1       4.718   3.701  16.535  0.00  0.00    +0.000 NA
ENDROOT
BRANCH   2   3
ATOM      3  C   UNL     1       4.068   4.008  17.747  0.00  0.00    +0.000 A 
ATOM      4  C   UNL     1       4.022   3.128  18.838  0.00  0.00    +0.000 A 
ATOM      5  C   UNL     1       3.394   3.464  20.044  0.00  0.00    +0.000 A 
ATOM      6  C   UNL     1       2.844   4.742  20.131  0.00  0.00    +0.000 A 
ATOM      7  N   UNL     1       2.192   5.383  21.149  0.00  0.00    +0.000 N 
ATOM      8  N   UNL     1       1.817   6.642  20.857  0.00  0.00    +0.000 NA
ATOM      9  C   UNL     1       2.245   6.805  19.602  0.00  0.00    +0.000 A 
ATOM     10  C   UNL     1       2.887   5.658  19.088  0.00  0.00    +0.000 A 
ATOM     11  C   UNL     1       3.504   5.287  17.876  0.00  0.00    +0.000 A 
ATOM     12  H   UNL     1       1.979   5.020  22.072  0.00  0.00    +0.000 HD
ENDBRANCH   2   3
BRANCH   1  18
ATOM     13  C   UNL     1       5.177   2.519  11.276  0.00  0.00    +0.000 C 
ATOM     14  C   UNL     1       5.854   3.372  12.308  0.00  0.00    +0.000 A 
ATOM     15  C   UNL     1       7.117   3.930  12.071  0.00  0.00    +0.000 A 
ATOM     16  C   UNL     1       7.729   4.740  13.033  0.00  0.00    +0.000 A 
ATOM     17  C   UNL     1       7.082   4.989  14.242  0.00  0.00    +0.000 A 
ATOM     18  C   UNL     1       5.830   4.421  14.499  0.00  0.00    +0.000 A 
ATOM     19  C   UNL     1       5.215   3.621  13.530  0.00  0.00    +0.000 A 
BRANCH  17  20
ATOM     20  O   UNL     1       7.674   5.798  15.171  0.00  0.00    +0.000 OA
ATOM     21  H   UNL     1       7.153   6.615  15.257  0.00  0.00    +0.000 HD
ENDBRANCH  17  20
ENDBRANCH   1  18
TORSDOF 3
ENDMDL
MODEL 5
REMARK VINA RESULT:      -7.2      3.800      7.695
REMARK  Name = 
REMARK  4 active torsions:
REMARK  status: ('A' for Active; 'I' for Inactive)
REMARK    1  A    between atoms: C_1  and  C_2
REMARK    2  A    between atoms: C_5  and  O_6
REMARK    3  A    between atoms: C_7  and  C_8
REMARK    4  A    between atoms: N_9  and  C_10
REMARK                            x       y       z     vdW  Elec       q    Type
REMARK                         _______ _______ _______ _____ _____    ______ ____
ROOT
ATOM      1  C   UNL     1       2.413   7.860  18.521  0.00  0.00    +0.000 C 
ATOM      2  N   UNL     1       2.366   6.572  18.664  0.00  0.00    +0.000 NA
ENDROOT
BRANCH   2   3
ATOM      3  C   UNL     1       3.335   5.772  18.026  0.00  0.00    +0.000 A 
ATOM      4  C   UNL     1       3.090   4.457  17.603  0.00  0.00    +0.000 A 
ATOM      5  C   UNL     1       4.059   3.690  16.946  0.00  0.00    +0.000 A 
ATOM      6  C   UNL     1       5.283   4.308  16.690  0.00  0.00    +0.000 A 
ATOM      7  N   UNL     1       6.414   3.860  16.064  0.00  0.00    +0.000 N 
ATOM      8  N   UNL     1       7.402   4.770  15.992  0.00  0.00    +0.000 NA
ATOM      9  C   UNL     1       6.878   5.838  16.601  0.00  0.00    +0.000 A 
ATOM     10  C   UNL     1       5.564   5.615  17.066  0.00  0.00    +0.000 A 
ATOM     11  C   UNL     1       4.579   6.359  17.747  0.00  0.00    +0.000 A 
ATOM     12  H   UNL     1       6.571   2.945  15.653  0.00  0.00    +0.000 HD
ENDBRANCH   2   3
BRANCH   1  18
ATOM     13  C   UNL     1      -0.918  11.576  18.220  0.00  0.00    +0.000 C 
ATOM     14  C   UNL     1      -0.168  10.572  19.044  0.00  0.00    +0.000 A 
ATOM     15  C   UNL     1      -0.364  10.480  20.428  0.00  0.00    +0.000 A 
ATOM     16  C   UNL     1       0.326   9.526  21.182  0.00  0.00    +0.000 A 
ATOM     17  C   UNL     1       1.225   8.664  20.555  0.00  0.00    +0.000 A 
ATOM     18  C   UNL     1       1.444   8.759  19.177  0.00  0.00    +0.000 A 
ATOM     19  C   UNL     1       0.743   9.707  18.423  0.00  0.00    +0.000 A 
BRANCH  17  20
ATOM     20  O   UNL     1       1.882   7.718  21.292  0.00  0.00    +0.000 OA
ATOM     21  H   UNL     1       2.596   8.147  21.793  0.00  0.00    +0.000 HD
ENDBRANCH  17  20
ENDBRANCH   1  18
TORSDOF 3
ENDMDL
MODEL 6
REMARK VINA RESULT:      -7.2      1.599      2.517
REMARK  Name = 
REMARK  4 active torsions:
REMARK  status: ('A' for Active; 'I' for Inactive)
REMARK    1  A    between atoms: C_1  and  C_2
REMARK    2  A    between atoms: C_5  and  O_6
REMARK    3  A    between atoms: C_7  and  C_8
REMARK    4  A    between atoms: N_9  and  C_10
REMARK                            x       y       z     vdW  Elec       q    Type
REMARK                         _______ _______ _______ _____ _____    ______ ____
ROOT
ATOM      1  C   UNL     1       4.967   4.703  15.828  0.00  0.00    +0.000 C 
ATOM      2  N   UNL     1       4.824   5.891  16.329  0.00  0.00    +0.000 NA
ENDROOT
BRANCH   2   3
ATOM      3  C   UNL     1       4.094   6.051  17.525  0.00  0.00    +0.000 A 
ATOM      4  C   UNL     1       4.173   5.153  18.599  0.00  0.00    +0.000 A 
ATOM      5  C   UNL     1       3.459   5.345  19.788  0.00  0.00    +0.000 A 
ATOM      6  C   UNL     1       2.689   6.505  19.878  0.00  0.00    +0.000 A 
ATOM      7  N   UNL     1       1.904   6.997  20.885  0.00  0.00    +0.000 N 
ATOM      8  N   UNL     1       1.322   8.177  20.602  0.00  0.00    +0.000 NA
ATOM      9  C   UNL     1       1.752   8.441  19.365  0.00  0.00    +0.000 A 
ATOM     10  C   UNL     1       2.601   7.436  18.853  0.00  0.00    +0.000 A 
ATOM     11  C   UNL     1       3.310   7.207  17.656  0.00  0.00    +0.000 A 
ATOM     12  H   UNL     1       1.732   6.581  21.794  0.00  0.00    +0.000 HD
ENDBRANCH   2   3
BRANCH   1  18
ATOM     13  C   UNL     1       5.360   2.523  11.346  0.00  0.00    +0.000 C 
ATOM     14  C   UNL     1       5.943   3.395  12.418  0.00  0.00    +0.000 A 
ATOM     15  C   UNL     1       7.209   3.976  12.270  0.00  0.00    +0.000 A 
ATOM     16  C   UNL     1       7.733   4.803  13.268  0.00  0.00    +0.000 A 
ATOM     17  C   UNL     1       6.994   5.049  14.424  0.00  0.00    +0.000 A 
ATOM     18  C   UNL     1       5.736   4.459  14.592  0.00  0.00    +0.000 A 
ATOM     19  C   UNL     1       5.210   3.641  13.587  0.00  0.00    +0.000 A 
BRANCH  17  20
ATOM     20  O   UNL     1       7.500   5.876  15.388  0.00  0.00    +0.000 OA
ATOM     21  H   UNL     1       7.953   5.339  16.060  0.00  0.00    +0.000 HD
ENDBRANCH  17  20
ENDBRANCH   1  18
TORSDOF 3
ENDMDL
MODEL 7
REMARK VINA RESULT:      -7.2      4.136      5.817
REMARK  Name = 
REMARK  4 active torsions:
REMARK  status: ('A' for Active; 'I' for Inactive)
REMARK    1  A    between atoms: C_1  and  C_2
REMARK    2  A    between atoms: C_5  and  O_6
REMARK    3  A    between atoms: C_7  and  C_8
REMARK    4  A    between atoms: N_9  and  C_10
REMARK                            x       y       z     vdW  Elec       q    Type
REMARK                         _______ _______ _______ _____ _____    ______ ____
ROOT
ATOM      1  C   UNL     1       2.561   7.165  18.376  0.00  0.00    +0.000 C 
ATOM      2  N   UNL     1       2.316   7.237  19.649  0.00  0.00    +0.000 NA
ENDROOT
BRANCH   2   3
ATOM      3  C   UNL     1       1.572   8.327  20.146  0.00  0.00    +0.000 A 
ATOM      4  C   UNL     1       1.140   9.393  19.344  0.00  0.00    +0.000 A 
ATOM      5  C   UNL     1       0.379  10.452  19.853  0.00  0.00    +0.000 A 
ATOM      6  C   UNL     1       0.027  10.381  21.201  0.00  0.00    +0.000 A 
ATOM      7  N   UNL     1      -0.710  11.219  21.992  0.00  0.00    +0.000 N 
ATOM      8  N   UNL     1      -0.849  10.798  23.262  0.00  0.00    +0.000 NA
ATOM      9  C   UNL     1      -0.168   9.648  23.279  0.00  0.00    +0.000 A 
ATOM     10  C   UNL     1       0.409   9.334  22.029  0.00  0.00    +0.000 A 
ATOM     11  C   UNL     1       1.195   8.292  21.498  0.00  0.00    +0.000 A 
ATOM     12  H   UNL     1      -1.156  12.090  21.723  0.00  0.00    +0.000 HD
ENDBRANCH   2   3
BRANCH   1  18
ATOM     13  C   UNL     1       6.616   5.465  15.998  0.00  0.00    +0.000 C 
ATOM     14  C   UNL     1       5.275   5.208  16.618  0.00  0.00    +0.000 A 
ATOM     15  C   UNL     1       4.720   3.922  16.637  0.00  0.00    +0.000 A 
ATOM     16  C   UNL     1       3.478   3.691  17.236  0.00  0.00    +0.000 A 
ATOM     17  C   UNL     1       2.780   4.750  17.814  0.00  0.00    +0.000 A 
ATOM     18  C   UNL     1       3.314   6.043  17.784  0.00  0.00    +0.000 A 
ATOM     19  C   UNL     1       4.563   6.268  17.194  0.00  0.00    +0.000 A 
BRANCH  17  20
ATOM     20  O   UNL     1       1.576   4.517  18.418  0.00  0.00    +0.000 OA
ATOM     21  H   UNL     1       1.669   3.771  19.033  0.00  0.00    +0.000 HD
ENDBRANCH  17  20
ENDBRANCH   1  18
TORSDOF 3
ENDMDL
MODEL 8
REMARK VINA RESULT:      -7.1      1.092      1.360
REMARK  Name = 
REMARK  4 active torsions:
REMARK  status: ('A' for Active; 'I' for Inactive)
REMARK    1  A    between atoms: C_1  and  C_2
REMARK    2  A    between atoms: C_5  and  O_6
REMARK    3  A    between atoms: C_7  and  C_8
REMARK    4  A    between atoms: N_9  and  C_10
REMARK                            x       y       z     vdW  Elec       q    Type
REMARK                         _______ _______ _______ _____ _____    ______ ____
ROOT
ATOM      1  C   UNL     1       5.637   3.960  16.032  0.00  0.00    +0.000 C 
ATOM      2  N   UNL     1       4.378   3.790  16.297  0.00  0.00    +0.000 NA
ENDROOT
BRANCH   2   3
ATOM      3  C   UNL     1       3.963   3.690  17.641  0.00  0.00    +0.000 A 
ATOM      4  C   UNL     1       4.800   3.988  18.726  0.00  0.00    +0.000 A 
ATOM      5  C   UNL     1       4.359   3.908  20.053  0.00  0.00    +0.000 A 
ATOM      6  C   UNL     1       3.024   3.556  20.252  0.00  0.00    +0.000 A 
ATOM      7  N   UNL     1       2.284   3.410  21.393  0.00  0.00    +0.000 N 
ATOM      8  N   UNL     1       1.000   3.070  21.178  0.00  0.00    +0.000 NA
ATOM      9  C   UNL     1       0.924   2.994  19.846  0.00  0.00    +0.000 A 
ATOM     10  C   UNL     1       2.152   3.278  19.209  0.00  0.00    +0.000 A 
ATOM     11  C   UNL     1       2.626   3.341  17.883  0.00  0.00    +0.000 A 
ATOM     12  H   UNL     1       2.593   3.537  22.351  0.00  0.00    +0.000 HD
ENDBRANCH   2   3
BRANCH   1  18
ATOM     13  C   UNL     1       5.468   2.592  11.227  0.00  0.00    +0.000 C 
ATOM     14  C   UNL     1       6.072   3.428  12.316  0.00  0.00    +0.000 A 
ATOM     15  C   UNL     1       7.111   4.328  12.045  0.00  0.00    +0.000 A 
ATOM     16  C   UNL     1       7.652   5.117  13.064  0.00  0.00    +0.000 A 
ATOM     17  C   UNL     1       7.161   5.004  14.364  0.00  0.00    +0.000 A 
ATOM     18  C   UNL     1       6.138   4.094  14.651  0.00  0.00    +0.000 A 
ATOM     19  C   UNL     1       5.590   3.315  13.626  0.00  0.00    +0.000 A 
BRANCH  17  20
ATOM     20  O   UNL     1       7.678   5.792  15.354  0.00  0.00    +0.000 OA
ATOM     21  H   UNL     1       6.987   6.398  15.670  0.00  0.00    +0.000 HD
ENDBRANCH  17  20
ENDBRANCH   1  18
TORSDOF 3
ENDMDL
MODEL 9
REMARK VINA RESULT:      -7.1      7.025      8.620
REMARK  Name = 
REMARK  4 active torsions:
REMARK  status: ('A' for Active; 'I' for Inactive)
REMARK    1  A    between atoms: C_1  and  C_2
REMARK    2  A    between atoms: C_5  and  O_6
REMARK    3  A    between atoms: C_7  and  C_8
REMARK    4  A    between atoms: N_9  and  C_10
REMARK                            x       y       z     vdW  Elec       q    Type
REMARK                         _______ _______ _______ _____ _____    ______ ____
ROOT
ATOM      1  C   UNL     1       8.454   8.119  18.726  0.00  0.00    +0.000 C 
ATOM      2  N   UNL     1       8.425   9.300  18.189  0.00  0.00    +0.000 NA
ENDROOT
BRANCH   2   3
ATOM      3  C   UNL     1       9.228  10.323  18.732  0.00  0.00    +0.000 A 
ATOM      4  C   UNL     1       9.353  10.552  20.109  0.00  0.00    +0.000 A 
ATOM      5  C   UNL     1      10.178  11.558  20.628  0.00  0.00    +0.000 A 
ATOM      6  C   UNL     1      10.912  12.306  19.708  0.00  0.00    +0.000 A 
ATOM      7  N   UNL     1      11.808  13.326  19.875  0.00  0.00    +0.000 N 
ATOM      8  N   UNL     1      12.333  13.792  18.727  0.00  0.00    +0.000 NA
ATOM      9  C   UNL     1      11.744  13.039  17.794  0.00  0.00    +0.000 A 
ATOM     10  C   UNL     1      10.842  12.098  18.337  0.00  0.00    +0.000 A 
ATOM     11  C   UNL     1       9.986  11.096  17.838  0.00  0.00    +0.000 A 
ATOM     12  H   UNL     1      12.112  13.745  20.748  0.00  0.00    +0.000 HD
ENDBRANCH   2   3
BRANCH   1  18
ATOM     13  C   UNL     1       5.317   6.294  15.288  0.00  0.00    +0.000 C 
ATOM     14  C   UNL     1       6.122   6.102  16.539  0.00  0.00    +0.000 A 
ATOM     15  C   UNL     1       6.124   4.877  17.218  0.00  0.00    +0.000 A 
ATOM     16  C   UNL     1       6.895   4.705  18.372  0.00  0.00    +0.000 A 
ATOM     17  C   UNL     1       7.664   5.761  18.856  0.00  0.00    +0.000 A 
ATOM     18  C   UNL     1       7.656   6.995  18.197  0.00  0.00    +0.000 A 
ATOM     19  C   UNL     1       6.893   7.161  17.036  0.00  0.00    +0.000 A 
BRANCH  17  20
ATOM     20  O   UNL     1       8.434   5.583  19.972  0.00  0.00    +0.000 OA
ATOM     21  H   UNL     1       9.167   4.981  19.758  0.00  0.00    +0.000 HD
ENDBRANCH  17  20
ENDBRANCH   1  18
TORSDOF 3
ENDMDL
