MODEL 1
REMARK VINA RESULT:      -8.1      0.000      0.000
REMARK  Name = 
REMARK  11 active torsions:
REMARK  status: ('A' for Active; 'I' for Inactive)
REMARK    1  A    between atoms: C_1  and  C_2
REMARK    2  A    between atoms: C_2  and  C_4
REMARK    3  A    between atoms: C_5  and  C_6
REMARK    4  A    between atoms: C_8  and  C_9
REMARK    5  A    between atoms: C_9  and  O_11
REMARK    6  A    between atoms: O_11  and  C_12
REMARK    7  A    between atoms: C_12  and  C_13
REMARK    8  A    between atoms: N_15  and  C_16
REMARK    9  A    between atoms: C_19  and  C_20
REMARK   10  A    between atoms: C_22  and  N_23
REMARK   11  A    between atoms: C_26  and  C_27
REMARK                            x       y       z     vdW  Elec       q    Type
REMARK                         _______ _______ _______ _____ _____    ______ ____
ROOT
ATOM      1  C   UNL     1       2.837   4.132  21.007  0.00  0.00    +0.000 C 
ENDROOT
BRANCH   1   2
ATOM      2  C   UNL     1       1.812   5.231  20.709  0.00  0.00    +0.000 C 
ATOM      3  O   UNL     1       0.646   4.941  20.452  0.00  0.00    +0.000 OA
ATOM      4  N   UNL     1       2.365   6.504  20.655  0.00  0.00    +0.000 N 
ATOM      5  H   UNL     1       3.385   6.551  20.639  0.00  0.00    +0.000 HD
BRANCH   4   6
ATOM      6  C   UNL     1       1.667   7.715  20.387  0.00  0.00    +0.000 A 
ATOM      7  C   UNL     1       0.935   8.339  21.404  0.00  0.00    +0.000 A 
ATOM      8  C   UNL     1       0.162   9.477  21.158  0.00  0.00    +0.000 A 
ATOM      9  C   UNL     1       0.108  10.039  19.884  0.00  0.00    +0.000 A 
ATOM     10  C   UNL     1      -0.792  11.205  19.602  0.00  0.00    +0.000 C 
ATOM     11  C   UNL     1       0.890   9.478  18.868  0.00  0.00    +0.000 A 
ATOM     12  C   UNL     1       1.678   8.334  19.120  0.00  0.00    +0.000 A 
BRANCH  12  13
ATOM     13  N   UNL     1       2.471   7.798  17.997  0.00  0.00    +0.000 N 
ATOM     14  O   UNL     1       2.537   6.565  17.860  0.00  0.00    +0.000 OA
ATOM     15  O   UNL     1       3.043   8.606  17.249  0.00  0.00    +0.000 OA
ENDBRANCH  12  13
ENDBRANCH   4   6
ENDBRANCH   1   2
BRANCH   1  16
ATOM     16  O   UNL     1       3.050   3.222  19.928  0.00  0.00    +0.000 OA
BRANCH  16  17
ATOM     17  C   UNL     1       4.363   2.876  19.779  0.00  0.00    +0.000 C 
ATOM     18  O   UNL     1       4.887   1.926  20.340  0.00  0.00    +0.000 OA
BRANCH  17  23
ATOM     19  C   UNL     1       5.715   5.062  17.089  0.00  0.00    +0.000 A 
ATOM     20  C   UNL     1       6.508   5.374  18.187  0.00  0.00    +0.000 A 
ATOM     21  C   UNL     1       7.615   6.344  18.414  0.00  0.00    +0.000 C 
ATOM     22  N   UNL     1       6.084   4.597  19.240  0.00  0.00    +0.000 N 
ATOM     23  C   UNL     1       5.019   3.805  18.881  0.00  0.00    +0.000 A 
ATOM     24  C   UNL     1       4.746   4.090  17.548  0.00  0.00    +0.000 A 
ATOM     25  C   UNL     1       3.664   3.498  16.702  0.00  0.00    +0.000 C 
ATOM     26  H   UNL     1       6.484   4.610  20.170  0.00  0.00    +0.000 HD
BRANCH  19  28
ATOM     27  C   UNL     1       6.458   4.808  14.630  0.00  0.00    +0.000 C 
ATOM     28  C   UNL     1       5.781   5.599  15.719  0.00  0.00    +0.000 C 
ATOM     29  O   UNL     1       5.253   6.675  15.433  0.00  0.00    +0.000 OA
ENDBRANCH  19  28
ENDBRANCH  17  23
ENDBRANCH  16  17
ENDBRANCH   1  16
TORSDOF 7
ENDMDL
MODEL 2
REMARK VINA RESULT:      -7.8      3.166      7.750
REMARK  Name = 
REMARK  11 active torsions:
REMARK  status: ('A' for Active; 'I' for Inactive)
REMARK    1  A    between atoms: C_1  and  C_2
REMARK    2  A    between atoms: C_2  and  C_4
REMARK    3  A    between atoms: C_5  and  C_6
REMARK    4  A    between atoms: C_8  and  C_9
REMARK    5  A    between atoms: C_9  and  O_11
REMARK    6  A    between atoms: O_11  and  C_12
REMARK    7  A    between atoms: C_12  and  C_13
REMARK    8  A    between atoms: N_15  and  C_16
REMARK    9  A    between atoms: C_19  and  C_20
REMARK   10  A    between atoms: C_22  and  N_23
REMARK   11  A    between atoms: C_26  and  C_27
REMARK                            x       y       z     vdW  Elec       q    Type
REMARK                         _______ _______ _______ _____ _____    ______ ____
ROOT
ATOM      1  C   UNL     1       6.858   6.537  17.127  0.00  0.00    +0.000 C 
ENDROOT
BRANCH   1   2
ATOM      2  C   UNL     1       7.025   5.357  16.165  0.00  0.00    +0.000 C 
ATOM      3  O   UNL     1       7.707   4.386  16.483  0.00  0.00    +0.000 OA
ATOM      4  N   UNL     1       6.440   5.568  14.923  0.00  0.00    +0.000 N 
ATOM      5  H   UNL     1       6.130   6.522  14.727  0.00  0.00    +0.000 HD
BRANCH   4   6
ATOM      6  C   UNL     1       6.441   4.661  13.826  0.00  0.00    +0.000 A 
ATOM      7  C   UNL     1       5.532   3.596  13.798  0.00  0.00    +0.000 A 
ATOM      8  C   UNL     1       5.563   2.633  12.786  0.00  0.00    +0.000 A 
ATOM      9  C   UNL     1       6.499   2.712  11.757  0.00  0.00    +0.000 A 
ATOM     10  C   UNL     1       6.589   1.628  10.724  0.00  0.00    +0.000 C 
ATOM     11  C   UNL     1       7.369   3.807  11.721  0.00  0.00    +0.000 A 
ATOM     12  C   UNL     1       7.331   4.786  12.739  0.00  0.00    +0.000 A 
BRANCH  12  13
ATOM     13  N   UNL     1       8.282   5.908  12.633  0.00  0.00    +0.000 N 
ATOM     14  O   UNL     1       9.110   6.064  13.547  0.00  0.00    +0.000 OA
ATOM     15  O   UNL     1       8.203   6.649  11.641  0.00  0.00    +0.000 OA
ENDBRANCH  12  13
ENDBRANCH   4   6
ENDBRANCH   1   2
BRANCH   1  16
ATOM     16  O   UNL     1       5.755   6.410  18.024  0.00  0.00    +0.000 OA
BRANCH  16  17
ATOM     17  C   UNL     1       6.012   5.559  19.062  0.00  0.00    +0.000 C 
ATOM     18  O   UNL     1       6.988   5.647  19.790  0.00  0.00    +0.000 OA
BRANCH  17  23
ATOM     19  C   UNL     1       3.036   3.371  19.503  0.00  0.00    +0.000 A 
ATOM     20  C   UNL     1       3.996   2.509  18.984  0.00  0.00    +0.000 A 
ATOM     21  C   UNL     1       3.985   1.072  18.594  0.00  0.00    +0.000 C 
ATOM     22  N   UNL     1       5.148   3.236  18.796  0.00  0.00    +0.000 N 
ATOM     23  C   UNL     1       4.972   4.554  19.146  0.00  0.00    +0.000 A 
ATOM     24  C   UNL     1       3.653   4.678  19.569  0.00  0.00    +0.000 A 
ATOM     25  C   UNL     1       2.969   5.922  20.037  0.00  0.00    +0.000 C 
ATOM     26  H   UNL     1       6.016   2.865  18.430  0.00  0.00    +0.000 HD
BRANCH  19  28
ATOM     27  C   UNL     1       1.316   2.800  21.342  0.00  0.00    +0.000 C 
ATOM     28  C   UNL     1       1.648   3.076  19.899  0.00  0.00    +0.000 C 
ATOM     29  O   UNL     1       0.735   3.092  19.071  0.00  0.00    +0.000 OA
ENDBRANCH  19  28
ENDBRANCH  17  23
ENDBRANCH  16  17
ENDBRANCH   1  16
TORSDOF 7
ENDMDL
MODEL 3
REMARK VINA RESULT:      -7.6      2.967      7.818
REMARK  Name = 
REMARK  11 active torsions:
REMARK  status: ('A' for Active; 'I' for Inactive)
REMARK    1  A    between atoms: C_1  and  C_2
REMARK    2  A    between atoms: C_2  and  C_4
REMARK    3  A    between atoms: C_5  and  C_6
REMARK    4  A    between atoms: C_8  and  C_9
REMARK    5  A    between atoms: C_9  and  O_11
REMARK    6  A    between atoms: O_11  and  C_12
REMARK    7  A    between atoms: C_12  and  C_13
REMARK    8  A    between atoms: N_15  and  C_16
REMARK    9  A    between atoms: C_19  and  C_20
REMARK   10  A    between atoms: C_22  and  N_23
REMARK   11  A    between atoms: C_26  and  C_27
REMARK                            x       y       z     vdW  Elec       q    Type
REMARK                         _______ _______ _______ _____ _____    ______ ____
ROOT
ATOM      1  C   UNL     1       7.160   6.494  17.243  0.00  0.00    +0.000 C 
ENDROOT
BRANCH   1   2
ATOM      2  C   UNL     1       7.223   5.318  16.264  0.00  0.00    +0.000 C 
ATOM      3  O   UNL     1       7.848   4.301  16.554  0.00  0.00    +0.000 OA
ATOM      4  N   UNL     1       6.621   5.581  15.040  0.00  0.00    +0.000 N 
ATOM      5  H   UNL     1       6.370   6.556  14.863  0.00  0.00    +0.000 HD
BRANCH   4   6
ATOM      6  C   UNL     1       6.534   4.689  13.935  0.00  0.00    +0.000 A 
ATOM      7  C   UNL     1       5.597   3.650  13.948  0.00  0.00    +0.000 A 
ATOM      8  C   UNL     1       5.543   2.700  12.924  0.00  0.00    +0.000 A 
ATOM      9  C   UNL     1       6.418   2.768  11.843  0.00  0.00    +0.000 A 
ATOM     10  C   UNL     1       6.419   1.696  10.793  0.00  0.00    +0.000 C 
ATOM     11  C   UNL     1       7.314   3.840  11.769  0.00  0.00    +0.000 A 
ATOM     12  C   UNL     1       7.361   4.806  12.798  0.00  0.00    +0.000 A 
BRANCH  12  13
ATOM     13  N   UNL     1       8.335   5.904  12.651  0.00  0.00    +0.000 N 
ATOM     14  O   UNL     1       9.189   6.056  13.541  0.00  0.00    +0.000 OA
ATOM     15  O   UNL     1       8.248   6.630  11.649  0.00  0.00    +0.000 OA
ENDBRANCH  12  13
ENDBRANCH   4   6
ENDBRANCH   1   2
BRANCH   1  16
ATOM     16  O   UNL     1       6.125   6.388  18.220  0.00  0.00    +0.000 OA
BRANCH  16  17
ATOM     17  C   UNL     1       4.877   6.354  17.668  0.00  0.00    +0.000 C 
ATOM     18  O   UNL     1       4.463   7.175  16.865  0.00  0.00    +0.000 OA
BRANCH  17  23
ATOM     19  C   UNL     1       2.720   3.812  19.320  0.00  0.00    +0.000 A 
ATOM     20  C   UNL     1       3.537   3.052  18.492  0.00  0.00    +0.000 A 
ATOM     21  C   UNL     1       3.622   1.597  18.184  0.00  0.00    +0.000 C 
ATOM     22  N   UNL     1       4.386   3.915  17.840  0.00  0.00    +0.000 N 
ATOM     23  C   UNL     1       4.137   5.222  18.188  0.00  0.00    +0.000 A 
ATOM     24  C   UNL     1       3.082   5.195  19.095  0.00  0.00    +0.000 A 
ATOM     25  C   UNL     1       2.429   6.367  19.755  0.00  0.00    +0.000 C 
ATOM     26  H   UNL     1       5.096   3.640  17.173  0.00  0.00    +0.000 HD
BRANCH  19  28
ATOM     27  C   UNL     1       1.983   3.101  21.690  0.00  0.00    +0.000 C 
ATOM     28  C   UNL     1       1.662   3.361  20.241  0.00  0.00    +0.000 C 
ATOM     29  O   UNL     1       0.499   3.230  19.856  0.00  0.00    +0.000 OA
ENDBRANCH  19  28
ENDBRANCH  17  23
ENDBRANCH  16  17
ENDBRANCH   1  16
TORSDOF 7
ENDMDL
MODEL 4
REMARK VINA RESULT:      -7.5      2.975      5.231
REMARK  Name = 
REMARK  11 active torsions:
REMARK  status: ('A' for Active; 'I' for Inactive)
REMARK    1  A    between atoms: C_1  and  C_2
REMARK    2  A    between atoms: C_2  and  C_4
REMARK    3  A    between atoms: C_5  and  C_6
REMARK    4  A    between atoms: C_8  and  C_9
REMARK    5  A    between atoms: C_9  and  O_11
REMARK    6  A    between atoms: O_11  and  C_12
REMARK    7  A    between atoms: C_12  and  C_13
REMARK    8  A    between atoms: N_15  and  C_16
REMARK    9  A    between atoms: C_19  and  C_20
REMARK   10  A    between atoms: C_22  and  N_23
REMARK   11  A    between atoms: C_26  and  C_27
REMARK                            x       y       z     vdW  Elec       q    Type
REMARK                         _______ _______ _______ _____ _____    ______ ____
ROOT
ATOM      1  C   UNL     1       6.051   6.703  16.868  0.00  0.00    +0.000 C 
ENDROOT
BRANCH   1   2
ATOM      2  C   UNL     1       5.571   6.044  18.165  0.00  0.00    +0.000 C 
ATOM      3  O   UNL     1       6.320   5.962  19.134  0.00  0.00    +0.000 OA
ATOM      4  N   UNL     1       4.303   5.486  18.066  0.00  0.00    +0.000 N 
ATOM      5  H   UNL     1       3.914   5.415  17.124  0.00  0.00    +0.000 HD
BRANCH   4   6
ATOM      6  C   UNL     1       3.602   4.801  19.098  0.00  0.00    +0.000 A 
ATOM      7  C   UNL     1       3.923   3.472  19.398  0.00  0.00    +0.000 A 
ATOM      8  C   UNL     1       3.197   2.737  20.339  0.00  0.00    +0.000 A 
ATOM      9  C   UNL     1       2.130   3.315  21.024  0.00  0.00    +0.000 A 
ATOM     10  C   UNL     1       1.296   2.498  21.965  0.00  0.00    +0.000 C 
ATOM     11  C   UNL     1       1.836   4.664  20.796  0.00  0.00    +0.000 A 
ATOM     12  C   UNL     1       2.577   5.409  19.852  0.00  0.00    +0.000 A 
BRANCH  12  13
ATOM     13  N   UNL     1       2.205   6.824  19.665  0.00  0.00    +0.000 N 
ATOM     14  O   UNL     1       1.809   7.463  20.655  0.00  0.00    +0.000 OA
ATOM     15  O   UNL     1       2.297   7.306  18.526  0.00  0.00    +0.000 OA
ENDBRANCH  12  13
ENDBRANCH   4   6
ENDBRANCH   1   2
BRANCH   1  16
ATOM     16  O   UNL     1       7.399   6.390  16.516  0.00  0.00    +0.000 OA
BRANCH  16  17
ATOM     17  C   UNL     1       7.585   5.062  16.258  0.00  0.00    +0.000 C 
ATOM     18  O   UNL     1       8.012   4.261  17.074  0.00  0.00    +0.000 OA
BRANCH  17  23
ATOM     19  C   UNL     1       6.311   3.926  12.952  0.00  0.00    +0.000 A 
ATOM     20  C   UNL     1       7.249   4.898  12.620  0.00  0.00    +0.000 A 
ATOM     21  C   UNL     1       7.704   5.489  11.332  0.00  0.00    +0.000 C 
ATOM     22  N   UNL     1       7.786   5.373  13.793  0.00  0.00    +0.000 N 
ATOM     23  C   UNL     1       7.216   4.769  14.888  0.00  0.00    +0.000 A 
ATOM     24  C   UNL     1       6.269   3.875  14.397  0.00  0.00    +0.000 A 
ATOM     25  C   UNL     1       5.368   2.988  15.195  0.00  0.00    +0.000 C 
ATOM     26  H   UNL     1       8.500   6.090  13.857  0.00  0.00    +0.000 HD
BRANCH  19  28
ATOM     27  C   UNL     1       4.150   3.621  11.573  0.00  0.00    +0.000 C 
ATOM     28  C   UNL     1       5.479   3.102  12.059  0.00  0.00    +0.000 C 
ATOM     29  O   UNL     1       5.869   2.002  11.663  0.00  0.00    +0.000 OA
ENDBRANCH  19  28
ENDBRANCH  17  23
ENDBRANCH  16  17
ENDBRANCH   1  16
TORSDOF 7
ENDMDL
MODEL 5
REMARK VINA RESULT:      -7.5      1.525      2.289
REMARK  Name = 
REMARK  11 active torsions:
REMARK  status: ('A' for Active; 'I' for Inactive)
REMARK    1  A    between atoms: C_1  and  C_2
REMARK    2  A    between atoms: C_2  and  C_4
REMARK    3  A    between atoms: C_5  and  C_6
REMARK    4  A    between atoms: C_8  and  C_9
REMARK    5  A    between atoms: C_9  and  O_11
REMARK    6  A    between atoms: O_11  and  C_12
REMARK    7  A    between atoms: C_12  and  C_13
REMARK    8  A    between atoms: N_15  and  C_16
REMARK    9  A    between atoms: C_19  and  C_20
REMARK   10  A    between atoms: C_22  and  N_23
REMARK   11  A    between atoms: C_26  and  C_27
REMARK                            x       y       z     vdW  Elec       q    Type
REMARK                         _______ _______ _______ _____ _____    ______ ____
ROOT
ATOM      1  C   UNL     1       2.197   3.847  21.423  0.00  0.00    +0.000 C 
ENDROOT
BRANCH   1   2
ATOM      2  C   UNL     1       1.650   4.948  20.509  0.00  0.00    +0.000 C 
ATOM      3  O   UNL     1       0.709   4.718  19.754  0.00  0.00    +0.000 OA
ATOM      4  N   UNL     1       2.386   6.125  20.558  0.00  0.00    +0.000 N 
ATOM      5  H   UNL     1       3.285   6.074  21.041  0.00  0.00    +0.000 HD
BRANCH   4   6
ATOM      6  C   UNL     1       2.128   7.311  19.815  0.00  0.00    +0.000 A 
ATOM      7  C   UNL     1       2.639   7.450  18.519  0.00  0.00    +0.000 A 
ATOM      8  C   UNL     1       2.486   8.635  17.794  0.00  0.00    +0.000 A 
ATOM      9  C   UNL     1       1.801   9.718  18.338  0.00  0.00    +0.000 A 
ATOM     10  C   UNL     1       1.717  11.019  17.595  0.00  0.00    +0.000 C 
ATOM     11  C   UNL     1       1.216   9.579  19.602  0.00  0.00    +0.000 A 
ATOM     12  C   UNL     1       1.362   8.378  20.330  0.00  0.00    +0.000 A 
BRANCH  12  13
ATOM     13  N   UNL     1       0.720   8.309  21.657  0.00  0.00    +0.000 N 
ATOM     14  O   UNL     1       1.375   8.677  22.646  0.00  0.00    +0.000 OA
ATOM     15  O   UNL     1      -0.441   7.876  21.721  0.00  0.00    +0.000 OA
ENDBRANCH  12  13
ENDBRANCH   4   6
ENDBRANCH   1   2
BRANCH   1  16
ATOM     16  O   UNL     1       3.499   3.383  21.068  0.00  0.00    +0.000 OA
BRANCH  16  17
ATOM     17  C   UNL     1       3.527   2.769  19.848  0.00  0.00    +0.000 C 
ATOM     18  O   UNL     1       2.937   1.731  19.593  0.00  0.00    +0.000 OA
BRANCH  17  23
ATOM     19  C   UNL     1       5.244   4.687  17.162  0.00  0.00    +0.000 A 
ATOM     20  C   UNL     1       6.225   4.550  18.138  0.00  0.00    +0.000 A 
ATOM     21  C   UNL     1       7.628   5.033  18.260  0.00  0.00    +0.000 C 
ATOM     22  N   UNL     1       5.678   3.836  19.178  0.00  0.00    +0.000 N 
ATOM     23  C   UNL     1       4.362   3.523  18.935  0.00  0.00    +0.000 A 
ATOM     24  C   UNL     1       4.051   4.062  17.691  0.00  0.00    +0.000 A 
ATOM     25  C   UNL     1       2.732   4.006  16.988  0.00  0.00    +0.000 C 
ATOM     26  H   UNL     1       6.166   3.583  20.029  0.00  0.00    +0.000 HD
BRANCH  19  28
ATOM     27  C   UNL     1       5.560   4.528  14.605  0.00  0.00    +0.000 C 
ATOM     28  C   UNL     1       5.333   5.348  15.849  0.00  0.00    +0.000 C 
ATOM     29  O   UNL     1       5.183   6.566  15.739  0.00  0.00    +0.000 OA
ENDBRANCH  19  28
ENDBRANCH  17  23
ENDBRANCH  16  17
ENDBRANCH   1  16
TORSDOF 7
ENDMDL
MODEL 6
REMARK VINA RESULT:      -7.5      3.315      5.427
REMARK  Name = 
REMARK  11 active torsions:
REMARK  status: ('A' for Active; 'I' for Inactive)
REMARK    1  A    between atoms: C_1  and  C_2
REMARK    2  A    between atoms: C_2  and  C_4
REMARK    3  A    between atoms: C_5  and  C_6
REMARK    4  A    between atoms: C_8  and  C_9
REMARK    5  A    between atoms: C_9  and  O_11
REMARK    6  A    between atoms: O_11  and  C_12
REMARK    7  A    between atoms: C_12  and  C_13
REMARK    8  A    between atoms: N_15  and  C_16
REMARK    9  A    between atoms: C_19  and  C_20
REMARK   10  A    between atoms: C_22  and  N_23
REMARK   11  A    between atoms: C_26  and  C_27
REMARK                            x       y       z     vdW  Elec       q    Type
REMARK                         _______ _______ _______ _____ _____    ______ ____
ROOT
ATOM      1  C   UNL     1       8.077   4.676  18.165  0.00  0.00    +0.000 C 
ENDROOT
BRANCH   1   2
ATOM      2  C   UNL     1       6.756   4.767  18.935  0.00  0.00    +0.000 C 
ATOM      3  O   UNL     1       6.671   5.464  19.942  0.00  0.00    +0.000 OA
ATOM      4  N   UNL     1       5.769   3.921  18.445  0.00  0.00    +0.000 N 
ATOM      5  H   UNL     1       6.073   3.223  17.763  0.00  0.00    +0.000 HD
BRANCH   4   6
ATOM      6  C   UNL     1       4.450   3.779  18.959  0.00  0.00    +0.000 A 
ATOM      7  C   UNL     1       4.131   2.682  19.769  0.00  0.00    +0.000 A 
ATOM      8  C   UNL     1       2.826   2.458  20.217  0.00  0.00    +0.000 A 
ATOM      9  C   UNL     1       1.797   3.335  19.879  0.00  0.00    +0.000 A 
ATOM     10  C   UNL     1       0.383   3.043  20.285  0.00  0.00    +0.000 C 
ATOM     11  C   UNL     1       2.105   4.478  19.134  0.00  0.00    +0.000 A 
ATOM     12  C   UNL     1       3.425   4.709  18.690  0.00  0.00    +0.000 A 
BRANCH  12  13
ATOM     13  N   UNL     1       3.670   5.935  17.905  0.00  0.00    +0.000 N 
ATOM     14  O   UNL     1       4.245   5.825  16.809  0.00  0.00    +0.000 OA
ATOM     15  O   UNL     1       3.299   7.018  18.383  0.00  0.00    +0.000 OA
ENDBRANCH  12  13
ENDBRANCH   4   6
ENDBRANCH   1   2
BRANCH   1  16
ATOM     16  O   UNL     1       7.928   4.357  16.781  0.00  0.00    +0.000 OA
BRANCH  16  17
ATOM     17  C   UNL     1       7.536   5.428  16.030  0.00  0.00    +0.000 C 
ATOM     18  O   UNL     1       7.469   6.571  16.454  0.00  0.00    +0.000 OA
BRANCH  17  23
ATOM     19  C   UNL     1       6.386   3.934  12.823  0.00  0.00    +0.000 A 
ATOM     20  C   UNL     1       7.268   4.929  12.417  0.00  0.00    +0.000 A 
ATOM     21  C   UNL     1       7.708   5.434  11.087  0.00  0.00    +0.000 C 
ATOM     22  N   UNL     1       7.758   5.536  13.549  0.00  0.00    +0.000 N 
ATOM     23  C   UNL     1       7.207   4.996  14.687  0.00  0.00    +0.000 A 
ATOM     24  C   UNL     1       6.324   4.006  14.267  0.00  0.00    +0.000 A 
ATOM     25  C   UNL     1       5.465   3.138  15.129  0.00  0.00    +0.000 C 
ATOM     26  H   UNL     1       8.426   6.298  13.558  0.00  0.00    +0.000 HD
BRANCH  19  28
ATOM     27  C   UNL     1       4.228   3.339  11.537  0.00  0.00    +0.000 C 
ATOM     28  C   UNL     1       5.619   2.986  11.997  0.00  0.00    +0.000 C 
ATOM     29  O   UNL     1       6.112   1.916  11.634  0.00  0.00    +0.000 OA
ENDBRANCH  19  28
ENDBRANCH  17  23
ENDBRANCH  16  17
ENDBRANCH   1  16
TORSDOF 7
ENDMDL
MODEL 7
REMARK VINA RESULT:      -7.4      1.187      1.982
REMARK  Name = 
REMARK  11 active torsions:
REMARK  status: ('A' for Active; 'I' for Inactive)
REMARK    1  A    between atoms: C_1  and  C_2
REMARK    2  A    between atoms: C_2  and  C_4
REMARK    3  A    between atoms: C_5  and  C_6
REMARK    4  A    between atoms: C_8  and  C_9
REMARK    5  A    between atoms: C_9  and  O_11
REMARK    6  A    between atoms: O_11  and  C_12
REMARK    7  A    between atoms: C_12  and  C_13
REMARK    8  A    between atoms: N_15  and  C_16
REMARK    9  A    between atoms: C_19  and  C_20
REMARK   10  A    between atoms: C_22  and  N_23
REMARK   11  A    between atoms: C_26  and  C_27
REMARK                            x       y       z     vdW  Elec       q    Type
REMARK                         _______ _______ _______ _____ _____    ______ ____
ROOT
ATOM      1  C   UNL     1       2.513   3.236  20.695  0.00  0.00    +0.000 C 
ENDROOT
BRANCH   1   2
ATOM      2  C   UNL     1       1.695   4.513  20.477  0.00  0.00    +0.000 C 
ATOM      3  O   UNL     1       0.489   4.449  20.257  0.00  0.00    +0.000 OA
ATOM      4  N   UNL     1       2.468   5.667  20.447  0.00  0.00    +0.000 N 
ATOM      5  H   UNL     1       3.479   5.531  20.393  0.00  0.00    +0.000 HD
BRANCH   4   6
ATOM      6  C   UNL     1       1.993   6.994  20.251  0.00  0.00    +0.000 A 
ATOM      7  C   UNL     1       1.329   7.660  21.288  0.00  0.00    +0.000 A 
ATOM      8  C   UNL     1       0.767   8.926  21.104  0.00  0.00    +0.000 A 
ATOM      9  C   UNL     1       0.865   9.577  19.877  0.00  0.00    +0.000 A 
ATOM     10  C   UNL     1       0.184  10.895  19.656  0.00  0.00    +0.000 C 
ATOM     11  C   UNL     1       1.589   8.965  18.847  0.00  0.00    +0.000 A 
ATOM     12  C   UNL     1       2.164   7.690  19.036  0.00  0.00    +0.000 A 
BRANCH  12  13
ATOM     13  N   UNL     1       2.909   7.109  17.902  0.00  0.00    +0.000 N 
ATOM     14  O   UNL     1       3.689   7.845  17.274  0.00  0.00    +0.000 OA
ATOM     15  O   UNL     1       2.712   5.917  17.624  0.00  0.00    +0.000 OA
ENDBRANCH  12  13
ENDBRANCH   4   6
ENDBRANCH   1   2
BRANCH   1  16
ATOM     16  O   UNL     1       3.147   2.739  19.517  0.00  0.00    +0.000 OA
BRANCH  16  17
ATOM     17  C   UNL     1       4.510   2.781  19.592  0.00  0.00    +0.000 C 
ATOM     18  O   UNL     1       5.161   2.265  20.488  0.00  0.00    +0.000 OA
BRANCH  17  23
ATOM     19  C   UNL     1       6.124   5.019  17.097  0.00  0.00    +0.000 A 
ATOM     20  C   UNL     1       5.362   4.159  16.314  0.00  0.00    +0.000 A 
ATOM     21  C   UNL     1       5.173   4.002  14.845  0.00  0.00    +0.000 C 
ATOM     22  N   UNL     1       4.714   3.292  17.161  0.00  0.00    +0.000 N 
ATOM     23  C   UNL     1       5.044   3.532  18.474  0.00  0.00    +0.000 A 
ATOM     24  C   UNL     1       5.945   4.591  18.467  0.00  0.00    +0.000 A 
ATOM     25  C   UNL     1       6.612   5.215  19.652  0.00  0.00    +0.000 C 
ATOM     26  H   UNL     1       4.084   2.555  16.867  0.00  0.00    +0.000 HD
BRANCH  19  28
ATOM     27  C   UNL     1       7.010   7.414  17.476  0.00  0.00    +0.000 C 
ATOM     28  C   UNL     1       6.982   6.139  16.673  0.00  0.00    +0.000 C 
ATOM     29  O   UNL     1       7.716   6.039  15.689  0.00  0.00    +0.000 OA
ENDBRANCH  19  28
ENDBRANCH  17  23
ENDBRANCH  16  17
ENDBRANCH   1  16
TORSDOF 7
ENDMDL
MODEL 8
REMARK VINA RESULT:      -7.3      3.304      8.659
REMARK  Name = 
REMARK  11 active torsions:
REMARK  status: ('A' for Active; 'I' for Inactive)
REMARK    1  A    between atoms: C_1  and  C_2
REMARK    2  A    between atoms: C_2  and  C_4
REMARK    3  A    between atoms: C_5  and  C_6
REMARK    4  A    between atoms: C_8  and  C_9
REMARK    5  A    between atoms: C_9  and  O_11
REMARK    6  A    between atoms: O_11  and  C_12
REMARK    7  A    between atoms: C_12  and  C_13
REMARK    8  A    between atoms: N_15  and  C_16
REMARK    9  A    between atoms: C_19  and  C_20
REMARK   10  A    between atoms: C_22  and  N_23
REMARK   11  A    between atoms: C_26  and  C_27
REMARK                            x       y       z     vdW  Elec       q    Type
REMARK                         _______ _______ _______ _____ _____    ______ ____
ROOT
ATOM      1  C   UNL     1       1.324   9.340  19.199  0.00  0.00    +0.000 C 
ENDROOT
BRANCH   1   2
ATOM      2  C   UNL     1       2.158   8.570  18.170  0.00  0.00    +0.000 C 
ATOM      3  O   UNL     1       2.223   8.958  17.007  0.00  0.00    +0.000 OA
ATOM      4  N   UNL     1       2.699   7.391  18.666  0.00  0.00    +0.000 N 
ATOM      5  H   UNL     1       2.347   7.082  19.574  0.00  0.00    +0.000 HD
BRANCH   4   6
ATOM      6  C   UNL     1       3.505   6.465  17.946  0.00  0.00    +0.000 A 
ATOM      7  C   UNL     1       4.728   6.878  17.404  0.00  0.00    +0.000 A 
ATOM      8  C   UNL     1       5.503   6.025  16.613  0.00  0.00    +0.000 A 
ATOM      9  C   UNL     1       5.086   4.722  16.351  0.00  0.00    +0.000 A 
ATOM     10  C   UNL     1       5.874   3.840  15.428  0.00  0.00    +0.000 C 
ATOM     11  C   UNL     1       3.904   4.262  16.943  0.00  0.00    +0.000 A 
ATOM     12  C   UNL     1       3.127   5.121  17.750  0.00  0.00    +0.000 A 
BRANCH  12  13
ATOM     13  N   UNL     1       1.893   4.564  18.337  0.00  0.00    +0.000 N 
ATOM     14  O   UNL     1       1.671   4.770  19.542  0.00  0.00    +0.000 OA
ATOM     15  O   UNL     1       1.140   3.909  17.599  0.00  0.00    +0.000 OA
ENDBRANCH  12  13
ENDBRANCH   4   6
ENDBRANCH   1   2
BRANCH   1  16
ATOM     16  O   UNL     1       0.937  10.648  18.778  0.00  0.00    +0.000 OA
BRANCH  16  17
ATOM     17  C   UNL     1      -0.157  11.118  19.448  0.00  0.00    +0.000 C 
ATOM     18  O   UNL     1      -0.128  11.537  20.594  0.00  0.00    +0.000 OA
BRANCH  17  23
ATOM     19  C   UNL     1      -3.432  11.140  17.683  0.00  0.00    +0.000 A 
ATOM     20  C   UNL     1      -2.604  10.433  16.817  0.00  0.00    +0.000 A 
ATOM     21  C   UNL     1      -2.801   9.826  15.472  0.00  0.00    +0.000 C 
ATOM     22  N   UNL     1      -1.359  10.365  17.398  0.00  0.00    +0.000 N 
ATOM     23  C   UNL     1      -1.331  11.025  18.602  0.00  0.00    +0.000 A 
ATOM     24  C   UNL     1      -2.606  11.544  18.799  0.00  0.00    +0.000 A 
ATOM     25  C   UNL     1      -3.079  12.361  19.959  0.00  0.00    +0.000 C 
ATOM     26  H   UNL     1      -0.553   9.904  16.992  0.00  0.00    +0.000 HD
BRANCH  19  28
ATOM     27  C   UNL     1      -5.886  10.777  18.398  0.00  0.00    +0.000 C 
ATOM     28  C   UNL     1      -4.861  11.465  17.534  0.00  0.00    +0.000 C 
ATOM     29  O   UNL     1      -5.236  12.327  16.737  0.00  0.00    +0.000 OA
ENDBRANCH  19  28
ENDBRANCH  17  23
ENDBRANCH  16  17
ENDBRANCH   1  16
TORSDOF 7
ENDMDL
MODEL 9
REMARK VINA RESULT:      -7.2      1.464      2.081
REMARK  Name = 
REMARK  11 active torsions:
REMARK  status: ('A' for Active; 'I' for Inactive)
REMARK    1  A    between atoms: C_1  and  C_2
REMARK    2  A    between atoms: C_2  and  C_4
REMARK    3  A    between atoms: C_5  and  C_6
REMARK    4  A    between atoms: C_8  and  C_9
REMARK    5  A    between atoms: C_9  and  O_11
REMARK    6  A    between atoms: O_11  and  C_12
REMARK    7  A    between atoms: C_12  and  C_13
REMARK    8  A    between atoms: N_15  and  C_16
REMARK    9  A    between atoms: C_19  and  C_20
REMARK   10  A    between atoms: C_22  and  N_23
REMARK   11  A    between atoms: C_26  and  C_27
REMARK                            x       y       z     vdW  Elec       q    Type
REMARK                         _______ _______ _______ _____ _____    ______ ____
ROOT
ATOM      1  C   UNL     1       2.855   4.636  20.972  0.00  0.00    +0.000 C 
ENDROOT
BRANCH   1   2
ATOM      2  C   UNL     1       1.882   5.701  20.457  0.00  0.00    +0.000 C 
ATOM      3  O   UNL     1       0.712   5.412  20.221  0.00  0.00    +0.000 OA
ATOM      4  N   UNL     1       2.486   6.925  20.197  0.00  0.00    +0.000 N 
ATOM      5  H   UNL     1       3.507   6.933  20.203  0.00  0.00    +0.000 HD
BRANCH   4   6
ATOM      6  C   UNL     1       1.842   8.094  19.702  0.00  0.00    +0.000 A 
ATOM      7  C   UNL     1       1.905   8.402  18.338  0.00  0.00    +0.000 A 
ATOM      8  C   UNL     1       1.366   9.587  17.830  0.00  0.00    +0.000 A 
ATOM      9  C   UNL     1       0.731  10.498  18.670  0.00  0.00    +0.000 A 
ATOM     10  C   UNL     1       0.234  11.810  18.137  0.00  0.00    +0.000 C 
ATOM     11  C   UNL     1       0.589  10.178  20.025  0.00  0.00    +0.000 A 
ATOM     12  C   UNL     1       1.126   8.977  20.537  0.00  0.00    +0.000 A 
BRANCH  12  13
ATOM     13  N   UNL     1       0.939   8.712  21.976  0.00  0.00    +0.000 N 
ATOM     14  O   UNL     1      -0.122   8.178  22.342  0.00  0.00    +0.000 OA
ATOM     15  O   UNL     1       1.847   9.045  22.753  0.00  0.00    +0.000 OA
ENDBRANCH  12  13
ENDBRANCH   4   6
ENDBRANCH   1   2
BRANCH   1  16
ATOM     16  O   UNL     1       2.900   3.451  20.177  0.00  0.00    +0.000 OA
BRANCH  16  17
ATOM     17  C   UNL     1       4.174   3.014  19.951  0.00  0.00    +0.000 C 
ATOM     18  O   UNL     1       4.663   2.030  20.485  0.00  0.00    +0.000 OA
BRANCH  17  23
ATOM     19  C   UNL     1       5.502   5.108  17.178  0.00  0.00    +0.000 A 
ATOM     20  C   UNL     1       6.404   5.333  18.212  0.00  0.00    +0.000 A 
ATOM     21  C   UNL     1       7.608   6.197  18.357  0.00  0.00    +0.000 C 
ATOM     22  N   UNL     1       5.995   4.582  19.289  0.00  0.00    +0.000 N 
ATOM     23  C   UNL     1       4.839   3.893  19.011  0.00  0.00    +0.000 A 
ATOM     24  C   UNL     1       4.489   4.220  17.705  0.00  0.00    +0.000 A 
ATOM     25  C   UNL     1       3.295   3.739  16.944  0.00  0.00    +0.000 C 
ATOM     26  H   UNL     1       6.467   4.546  20.185  0.00  0.00    +0.000 HD
BRANCH  19  28
ATOM     27  C   UNL     1       5.939   4.795  14.653  0.00  0.00    +0.000 C 
ATOM     28  C   UNL     1       5.508   5.658  15.811  0.00  0.00    +0.000 C 
ATOM     29  O   UNL     1       5.125   6.807  15.587  0.00  0.00    +0.000 OA
ENDBRANCH  19  28
ENDBRANCH  17  23
ENDBRANCH  16  17
ENDBRANCH   1  16
TORSDOF 7
ENDMDL
