MODEL 1
REMARK VINA RESULT:      -7.1      0.000      0.000
REMARK  Name = 
REMARK  5 active torsions:
REMARK  status: ('A' for Active; 'I' for Inactive)
REMARK    1  A    between atoms: C_1  and  C_2
REMARK    2  A    between atoms: C_2  and  O_3
REMARK    3  A    between atoms: O_3  and  C_4
REMARK    4  A    between atoms: C_4  and  C_6
REMARK    5  A    between atoms: N_8  and  C_9
REMARK                            x       y       z     vdW  Elec       q    Type
REMARK                         _______ _______ _______ _____ _____    ______ ____
ROOT
ATOM      1  C   UNL     1       5.722   4.490  17.898  0.00  0.00    +0.000 C 
ATOM      2  O   UNL     1       5.835   5.468  18.621  0.00  0.00    +0.000 OA
ATOM      3  N   UNL     1       4.737   3.511  17.963  0.00  0.00    +0.000 N 
ATOM      4  H   UNL     1       4.897   2.650  17.436  0.00  0.00    +0.000 HD
ENDROOT
BRANCH   3   5
ATOM      5  C   UNL     1       3.689   3.501  18.888  0.00  0.00    +0.000 A 
ATOM      6  C   UNL     1       2.585   4.216  18.643  0.00  0.00    +0.000 A 
ATOM      7  C   UNL     1       1.351   4.380  19.346  0.00  0.00    +0.000 A 
ATOM      8  C   UNL     1       0.957   3.822  20.491  0.00  0.00    +0.000 A 
ATOM      9  C   UNL     1       1.697   2.938  21.334  0.00  0.00    +0.000 A 
ATOM     10  C   UNL     1       2.932   2.457  21.186  0.00  0.00    +0.000 A 
ATOM     11  C   UNL     1       3.945   2.675  20.109  0.00  0.00    +0.000 A 
ATOM     12  O   UNL     1       5.059   2.169  20.279  0.00  0.00    +0.000 OA
ENDBRANCH   3   5
BRANCH   1  13
ATOM     13  C   UNL     1       6.795   4.231  16.836  0.00  0.00    +0.000 C 
ATOM     14  O   UNL     1       7.987   4.452  17.055  0.00  0.00    +0.000 OA
BRANCH  13  15
ATOM     15  O   UNL     1       6.228   3.792  15.697  0.00  0.00    +0.000 OA
BRANCH  15  17
ATOM     16  C   UNL     1       6.181   3.759  13.284  0.00  0.00    +0.000 C 
ATOM     17  C   UNL     1       6.521   4.562  14.526  0.00  0.00    +0.000 C 
ENDBRANCH  15  17
ENDBRANCH  13  15
ENDBRANCH   1  13
TORSDOF 4
ENDMDL
MODEL 2
REMARK VINA RESULT:      -7.1      1.996      2.833
REMARK  Name = 
REMARK  5 active torsions:
REMARK  status: ('A' for Active; 'I' for Inactive)
REMARK    1  A    between atoms: C_1  and  C_2
REMARK    2  A    between atoms: C_2  and  O_3
REMARK    3  A    between atoms: O_3  and  C_4
REMARK    4  A    between atoms: C_4  and  C_6
REMARK    5  A    between atoms: N_8  and  C_9
REMARK                            x       y       z     vdW  Elec       q    Type
REMARK                         _______ _______ _______ _____ _____    ______ ____
ROOT
ATOM      1  C   UNL     1       5.731   4.852  17.016  0.00  0.00    +0.000 C 
ATOM      2  O   UNL     1       4.982   5.418  16.234  0.00  0.00    +0.000 OA
ATOM      3  N   UNL     1       5.366   4.034  18.079  0.00  0.00    +0.000 N 
ATOM      4  H   UNL     1       6.089   3.810  18.767  0.00  0.00    +0.000 HD
ENDROOT
BRANCH   3   5
ATOM      5  C   UNL     1       4.048   3.716  18.420  0.00  0.00    +0.000 A 
ATOM      6  C   UNL     1       3.452   2.666  17.844  0.00  0.00    +0.000 A 
ATOM      7  C   UNL     1       2.164   2.065  18.001  0.00  0.00    +0.000 A 
ATOM      8  C   UNL     1       1.170   2.415  18.819  0.00  0.00    +0.000 A 
ATOM      9  C   UNL     1       1.129   3.516  19.726  0.00  0.00    +0.000 A 
ATOM     10  C   UNL     1       2.054   4.443  19.981  0.00  0.00    +0.000 A 
ATOM     11  C   UNL     1       3.422   4.642  19.415  0.00  0.00    +0.000 A 
ATOM     12  O   UNL     1       4.034   5.654  19.772  0.00  0.00    +0.000 OA
ENDBRANCH   3   5
BRANCH   1  13
ATOM     13  C   UNL     1       7.238   5.096  16.899  0.00  0.00    +0.000 C 
ATOM     14  O   UNL     1       8.050   4.171  16.975  0.00  0.00    +0.000 OA
BRANCH  13  15
ATOM     15  O   UNL     1       7.489   6.410  16.753  0.00  0.00    +0.000 OA
BRANCH  15  17
ATOM     16  C   UNL     1       7.883   8.610  17.662  0.00  0.00    +0.000 C 
ATOM     17  C   UNL     1       7.720   7.132  17.967  0.00  0.00    +0.000 C 
ENDBRANCH  15  17
ENDBRANCH  13  15
ENDBRANCH   1  13
TORSDOF 4
ENDMDL
MODEL 3
REMARK VINA RESULT:      -6.9      1.248      1.308
REMARK  Name = 
REMARK  5 active torsions:
REMARK  status: ('A' for Active; 'I' for Inactive)
REMARK    1  A    between atoms: C_1  and  C_2
REMARK    2  A    between atoms: C_2  and  O_3
REMARK    3  A    between atoms: O_3  and  C_4
REMARK    4  A    between atoms: C_4  and  C_6
REMARK    5  A    between atoms: N_8  and  C_9
REMARK                            x       y       z     vdW  Elec       q    Type
REMARK                         _______ _______ _______ _____ _____    ______ ____
ROOT
ATOM      1  C   UNL     1       5.211   4.734  16.584  0.00  0.00    +0.000 C 
ATOM      2  O   UNL     1       4.829   5.832  16.961  0.00  0.00    +0.000 OA
ATOM      3  N   UNL     1       4.737   3.496  17.001  0.00  0.00    +0.000 N 
ATOM      4  H   UNL     1       5.297   2.675  16.760  0.00  0.00    +0.000 HD
ENDROOT
BRANCH   3   5
ATOM      5  C   UNL     1       3.714   3.312  17.936  0.00  0.00    +0.000 A 
ATOM      6  C   UNL     1       2.438   3.375  17.539  0.00  0.00    +0.000 A 
ATOM      7  C   UNL     1       1.193   3.194  18.219  0.00  0.00    +0.000 A 
ATOM      8  C   UNL     1       0.973   2.889  19.498  0.00  0.00    +0.000 A 
ATOM      9  C   UNL     1       1.938   2.702  20.533  0.00  0.00    +0.000 A 
ATOM     10  C   UNL     1       3.269   2.777  20.477  0.00  0.00    +0.000 A 
ATOM     11  C   UNL     1       4.186   3.079  19.337  0.00  0.00    +0.000 A 
ATOM     12  O   UNL     1       5.389   3.175  19.597  0.00  0.00    +0.000 OA
ENDBRANCH   3   5
BRANCH   1  13
ATOM     13  C   UNL     1       6.384   4.659  15.601  0.00  0.00    +0.000 C 
ATOM     14  O   UNL     1       7.346   5.426  15.684  0.00  0.00    +0.000 OA
BRANCH  13  15
ATOM     15  O   UNL     1       6.162   3.702  14.681  0.00  0.00    +0.000 OA
BRANCH  15  17
ATOM     16  C   UNL     1       5.726   3.248  12.352  0.00  0.00    +0.000 C 
ATOM     17  C   UNL     1       6.568   4.025  13.347  0.00  0.00    +0.000 C 
ENDBRANCH  15  17
ENDBRANCH  13  15
ENDBRANCH   1  13
TORSDOF 4
ENDMDL
MODEL 4
REMARK VINA RESULT:      -6.8      1.705      2.380
REMARK  Name = 
REMARK  5 active torsions:
REMARK  status: ('A' for Active; 'I' for Inactive)
REMARK    1  A    between atoms: C_1  and  C_2
REMARK    2  A    between atoms: C_2  and  O_3
REMARK    3  A    between atoms: O_3  and  C_4
REMARK    4  A    between atoms: C_4  and  C_6
REMARK    5  A    between atoms: N_8  and  C_9
REMARK                            x       y       z     vdW  Elec       q    Type
REMARK                         _______ _______ _______ _____ _____    ______ ____
ROOT
ATOM      1  C   UNL     1       6.016   4.222  17.043  0.00  0.00    +0.000 C 
ATOM      2  O   UNL     1       5.550   3.875  15.968  0.00  0.00    +0.000 OA
ATOM      3  N   UNL     1       5.364   4.235  18.271  0.00  0.00    +0.000 N 
ATOM      4  H   UNL     1       5.812   4.750  19.032  0.00  0.00    +0.000 HD
ENDROOT
BRANCH   3   5
ATOM      5  C   UNL     1       4.040   3.834  18.471  0.00  0.00    +0.000 A 
ATOM      6  C   UNL     1       3.055   4.462  17.819  0.00  0.00    +0.000 A 
ATOM      7  C   UNL     1       1.639   4.271  17.770  0.00  0.00    +0.000 A 
ATOM      8  C   UNL     1       0.894   3.357  18.393  0.00  0.00    +0.000 A 
ATOM      9  C   UNL     1       1.326   2.351  19.309  0.00  0.00    +0.000 A 
ATOM     10  C   UNL     1       2.554   2.076  19.752  0.00  0.00    +0.000 A 
ATOM     11  C   UNL     1       3.870   2.716  19.450  0.00  0.00    +0.000 A 
ATOM     12  O   UNL     1       4.848   2.310  20.086  0.00  0.00    +0.000 OA
ENDBRANCH   3   5
BRANCH   1  13
ATOM     13  C   UNL     1       7.443   4.776  17.083  0.00  0.00    +0.000 C 
ATOM     14  O   UNL     1       8.354   4.175  17.658  0.00  0.00    +0.000 OA
BRANCH  13  15
ATOM     15  O   UNL     1       7.500   5.966  16.459  0.00  0.00    +0.000 OA
BRANCH  15  17
ATOM     16  C   UNL     1       7.980   7.805  17.946  0.00  0.00    +0.000 C 
ATOM     17  C   UNL     1       6.911   7.062  17.167  0.00  0.00    +0.000 C 
ENDBRANCH  15  17
ENDBRANCH  13  15
ENDBRANCH   1  13
TORSDOF 4
ENDMDL
MODEL 5
REMARK VINA RESULT:      -6.8      2.134      2.785
REMARK  Name = 
REMARK  5 active torsions:
REMARK  status: ('A' for Active; 'I' for Inactive)
REMARK    1  A    between atoms: C_1  and  C_2
REMARK    2  A    between atoms: C_2  and  O_3
REMARK    3  A    between atoms: O_3  and  C_4
REMARK    4  A    between atoms: C_4  and  C_6
REMARK    5  A    between atoms: N_8  and  C_9
REMARK                            x       y       z     vdW  Elec       q    Type
REMARK                         _______ _______ _______ _____ _____    ______ ____
ROOT
ATOM      1  C   UNL     1       6.158   5.022  18.751  0.00  0.00    +0.000 C 
ATOM      2  O   UNL     1       6.411   4.830  19.931  0.00  0.00    +0.000 OA
ATOM      3  N   UNL     1       4.920   4.892  18.131  0.00  0.00    +0.000 N 
ATOM      4  H   UNL     1       4.909   4.876  17.108  0.00  0.00    +0.000 HD
ENDROOT
BRANCH   3   5
ATOM      5  C   UNL     1       3.741   4.522  18.782  0.00  0.00    +0.000 A 
ATOM      6  C   UNL     1       3.189   5.355  19.673  0.00  0.00    +0.000 A 
ATOM      7  C   UNL     1       1.996   5.295  20.458  0.00  0.00    +0.000 A 
ATOM      8  C   UNL     1       1.066   4.341  20.499  0.00  0.00    +0.000 A 
ATOM      9  C   UNL     1       1.049   3.103  19.788  0.00  0.00    +0.000 A 
ATOM     10  C   UNL     1       1.934   2.609  18.921  0.00  0.00    +0.000 A 
ATOM     11  C   UNL     1       3.221   3.169  18.409  0.00  0.00    +0.000 A 
ATOM     12  O   UNL     1       3.894   2.442  17.672  0.00  0.00    +0.000 OA
ENDBRANCH   3   5
BRANCH   1  13
ATOM     13  C   UNL     1       7.304   5.373  17.799  0.00  0.00    +0.000 C 
ATOM     14  O   UNL     1       7.615   4.635  16.862  0.00  0.00    +0.000 OA
BRANCH  13  15
ATOM     15  O   UNL     1       7.887   6.526  18.174  0.00  0.00    +0.000 OA
BRANCH  15  17
ATOM     16  C   UNL     1       8.197   8.912  17.986  0.00  0.00    +0.000 C 
ATOM     17  C   UNL     1       7.467   7.691  17.457  0.00  0.00    +0.000 C 
ENDBRANCH  15  17
ENDBRANCH  13  15
ENDBRANCH   1  13
TORSDOF 4
ENDMDL
MODEL 6
REMARK VINA RESULT:      -6.7      1.823      2.711
REMARK  Name = 
REMARK  5 active torsions:
REMARK  status: ('A' for Active; 'I' for Inactive)
REMARK    1  A    between atoms: C_1  and  C_2
REMARK    2  A    between atoms: C_2  and  O_3
REMARK    3  A    between atoms: O_3  and  C_4
REMARK    4  A    between atoms: C_4  and  C_6
REMARK    5  A    between atoms: N_8  and  C_9
REMARK                            x       y       z     vdW  Elec       q    Type
REMARK                         _______ _______ _______ _____ _____    ______ ____
ROOT
ATOM      1  C   UNL     1       5.964   4.619  18.113  0.00  0.00    +0.000 C 
ATOM      2  O   UNL     1       6.324   4.419  19.263  0.00  0.00    +0.000 OA
ATOM      3  N   UNL     1       4.674   4.495  17.608  0.00  0.00    +0.000 N 
ATOM      4  H   UNL     1       4.569   4.486  16.591  0.00  0.00    +0.000 HD
ENDROOT
BRANCH   3   5
ATOM      5  C   UNL     1       3.559   4.120  18.363  0.00  0.00    +0.000 A 
ATOM      6  C   UNL     1       3.144   2.848  18.341  0.00  0.00    +0.000 A 
ATOM      7  C   UNL     1       2.093   2.151  19.015  0.00  0.00    +0.000 A 
ATOM      8  C   UNL     1       1.210   2.617  19.899  0.00  0.00    +0.000 A 
ATOM      9  C   UNL     1       1.065   3.957  20.370  0.00  0.00    +0.000 A 
ATOM     10  C   UNL     1       1.766   5.049  20.056  0.00  0.00    +0.000 A 
ATOM     11  C   UNL     1       2.917   5.238  19.122  0.00  0.00    +0.000 A 
ATOM     12  O   UNL     1       3.316   6.395  18.955  0.00  0.00    +0.000 OA
ENDBRANCH   3   5
BRANCH   1  13
ATOM     13  C   UNL     1       7.018   4.977  17.062  0.00  0.00    +0.000 C 
ATOM     14  O   UNL     1       8.007   4.266  16.871  0.00  0.00    +0.000 OA
BRANCH  13  15
ATOM     15  O   UNL     1       6.706   6.142  16.465  0.00  0.00    +0.000 OA
BRANCH  15  17
ATOM     16  C   UNL     1       7.842   7.937  17.610  0.00  0.00    +0.000 C 
ATOM     17  C   UNL     1       6.513   7.254  17.346  0.00  0.00    +0.000 C 
ENDBRANCH  15  17
ENDBRANCH  13  15
ENDBRANCH   1  13
TORSDOF 4
ENDMDL
MODEL 7
REMARK VINA RESULT:      -6.7      1.803      2.156
REMARK  Name = 
REMARK  5 active torsions:
REMARK  status: ('A' for Active; 'I' for Inactive)
REMARK    1  A    between atoms: C_1  and  C_2
REMARK    2  A    between atoms: C_2  and  O_3
REMARK    3  A    between atoms: O_3  and  C_4
REMARK    4  A    between atoms: C_4  and  C_6
REMARK    5  A    between atoms: N_8  and  C_9
REMARK                            x       y       z     vdW  Elec       q    Type
REMARK                         _______ _______ _______ _____ _____    ______ ____
ROOT
ATOM      1  C   UNL     1       5.867   5.457  18.263  0.00  0.00    +0.000 C 
ATOM      2  O   UNL     1       6.320   4.647  19.057  0.00  0.00    +0.000 OA
ATOM      3  N   UNL     1       4.524   5.707  17.999  0.00  0.00    +0.000 N 
ATOM      4  H   UNL     1       4.306   6.253  17.162  0.00  0.00    +0.000 HD
ENDROOT
BRANCH   3   5
ATOM      5  C   UNL     1       3.458   5.058  18.626  0.00  0.00    +0.000 A 
ATOM      6  C   UNL     1       3.042   5.480  19.826  0.00  0.00    +0.000 A 
ATOM      7  C   UNL     1       1.981   5.071  20.692  0.00  0.00    +0.000 A 
ATOM      8  C   UNL     1       1.072   4.112  20.510  0.00  0.00    +0.000 A 
ATOM      9  C   UNL     1       0.955   3.214  19.406  0.00  0.00    +0.000 A 
ATOM     10  C   UNL     1       1.703   3.119  18.306  0.00  0.00    +0.000 A 
ATOM     11  C   UNL     1       2.896   3.901  17.862  0.00  0.00    +0.000 A 
ATOM     12  O   UNL     1       3.454   3.529  16.824  0.00  0.00    +0.000 OA
ENDBRANCH   3   5
BRANCH   1  13
ATOM     13  C   UNL     1       6.838   6.256  17.389  0.00  0.00    +0.000 C 
ATOM     14  O   UNL     1       7.684   7.005  17.882  0.00  0.00    +0.000 OA
BRANCH  13  15
ATOM     15  O   UNL     1       6.586   6.033  16.086  0.00  0.00    +0.000 OA
BRANCH  15  17
ATOM     16  C   UNL     1       6.058   4.279  14.515  0.00  0.00    +0.000 C 
ATOM     17  C   UNL     1       7.021   4.766  15.582  0.00  0.00    +0.000 C 
ENDBRANCH  15  17
ENDBRANCH  13  15
ENDBRANCH   1  13
TORSDOF 4
ENDMDL
MODEL 8
REMARK VINA RESULT:      -6.7      2.093      2.752
REMARK  Name = 
REMARK  5 active torsions:
REMARK  status: ('A' for Active; 'I' for Inactive)
REMARK    1  A    between atoms: C_1  and  C_2
REMARK    2  A    between atoms: C_2  and  O_3
REMARK    3  A    between atoms: O_3  and  C_4
REMARK    4  A    between atoms: C_4  and  C_6
REMARK    5  A    between atoms: N_8  and  C_9
REMARK                            x       y       z     vdW  Elec       q    Type
REMARK                         _______ _______ _______ _____ _____    ______ ____
ROOT
ATOM      1  C   UNL     1       5.598   5.334  17.193  0.00  0.00    +0.000 C 
ATOM      2  O   UNL     1       4.808   6.056  16.604  0.00  0.00    +0.000 OA
ATOM      3  N   UNL     1       5.318   4.478  18.252  0.00  0.00    +0.000 N 
ATOM      4  H   UNL     1       6.114   4.106  18.775  0.00  0.00    +0.000 HD
ENDROOT
BRANCH   3   5
ATOM      5  C   UNL     1       4.051   4.299  18.814  0.00  0.00    +0.000 A 
ATOM      6  C   UNL     1       3.596   5.182  19.710  0.00  0.00    +0.000 A 
ATOM      7  C   UNL     1       2.362   5.307  20.420  0.00  0.00    +0.000 A 
ATOM      8  C   UNL     1       1.278   4.532  20.359  0.00  0.00    +0.000 A 
ATOM      9  C   UNL     1       1.092   3.345  19.589  0.00  0.00    +0.000 A 
ATOM     10  C   UNL     1       1.933   2.734  18.752  0.00  0.00    +0.000 A 
ATOM     11  C   UNL     1       3.329   3.075  18.346  0.00  0.00    +0.000 A 
ATOM     12  O   UNL     1       3.912   2.268  17.614  0.00  0.00    +0.000 OA
ENDBRANCH   3   5
BRANCH   1  13
ATOM     13  C   UNL     1       7.079   5.396  16.810  0.00  0.00    +0.000 C 
ATOM     14  O   UNL     1       7.744   4.373  16.633  0.00  0.00    +0.000 OA
BRANCH  13  15
ATOM     15  O   UNL     1       7.493   6.675  16.748  0.00  0.00    +0.000 OA
BRANCH  15  17
ATOM     16  C   UNL     1       8.022   8.774  17.814  0.00  0.00    +0.000 C 
ATOM     17  C   UNL     1       7.796   7.286  18.006  0.00  0.00    +0.000 C 
ENDBRANCH  15  17
ENDBRANCH  13  15
ENDBRANCH   1  13
TORSDOF 4
ENDMDL
MODEL 9
REMARK VINA RESULT:      -6.7      1.544      1.717
REMARK  Name = 
REMARK  5 active torsions:
REMARK  status: ('A' for Active; 'I' for Inactive)
REMARK    1  A    between atoms: C_1  and  C_2
REMARK    2  A    between atoms: C_2  and  O_3
REMARK    3  A    between atoms: O_3  and  C_4
REMARK    4  A    between atoms: C_4  and  C_6
REMARK    5  A    between atoms: N_8  and  C_9
REMARK                            x       y       z     vdW  Elec       q    Type
REMARK                         _______ _______ _______ _____ _____    ______ ____
ROOT
ATOM      1  C   UNL     1       5.511   4.884  16.496  0.00  0.00    +0.000 C 
ATOM      2  O   UNL     1       4.881   5.883  16.185  0.00  0.00    +0.000 OA
ATOM      3  N   UNL     1       5.135   3.913  17.418  0.00  0.00    +0.000 N 
ATOM      4  H   UNL     1       5.857   3.258  17.727  0.00  0.00    +0.000 HD
ENDROOT
BRANCH   3   5
ATOM      5  C   UNL     1       3.941   3.928  18.143  0.00  0.00    +0.000 A 
ATOM      6  C   UNL     1       2.867   3.293  17.660  0.00  0.00    +0.000 A 
ATOM      7  C   UNL     1       1.544   3.088  18.162  0.00  0.00    +0.000 A 
ATOM      8  C   UNL     1       1.014   3.493  19.316  0.00  0.00    +0.000 A 
ATOM      9  C   UNL     1       1.630   4.279  20.336  0.00  0.00    +0.000 A 
ATOM     10  C   UNL     1       2.864   4.784  20.390  0.00  0.00    +0.000 A 
ATOM     11  C   UNL     1       3.998   4.705  19.421  0.00  0.00    +0.000 A 
ATOM     12  O   UNL     1       5.012   5.356  19.692  0.00  0.00    +0.000 OA
ENDBRANCH   3   5
BRANCH   1  13
ATOM     13  C   UNL     1       6.900   4.669  15.889  0.00  0.00    +0.000 C 
ATOM     14  O   UNL     1       7.888   4.455  16.594  0.00  0.00    +0.000 OA
BRANCH  13  15
ATOM     15  O   UNL     1       6.848   4.790  14.549  0.00  0.00    +0.000 OA
BRANCH  15  17
ATOM     16  C   UNL     1       6.543   3.693  12.422  0.00  0.00    +0.000 C 
ATOM     17  C   UNL     1       6.093   3.783  13.868  0.00  0.00    +0.000 C 
ENDBRANCH  15  17
ENDBRANCH  13  15
ENDBRANCH   1  13
TORSDOF 4
ENDMDL
