MODEL 1
REMARK VINA RESULT:      -8.4      0.000      0.000
REMARK  Name = 
REMARK  8 active torsions:
REMARK  status: ('A' for Active; 'I' for Inactive)
REMARK    1  A    between atoms: C_1  and  O_2
REMARK    2  A    between atoms: O_2  and  C_3
REMARK    3  A    between atoms: N_9  and  C_10
REMARK    4  A    between atoms: C_15  and  C_16
REMARK    5  A    between atoms: C_17  and  C_18
REMARK    6  A    between atoms: C_18  and  C_19
REMARK    7  A    between atoms: C_19  and  C_20
REMARK    8  A    between atoms: C_20  and  O_22
REMARK                            x       y       z     vdW  Elec       q    Type
REMARK                         _______ _______ _______ _____ _____    ______ ____
ROOT
ATOM      1  C   UNL     1       5.716   5.290  18.555  0.00  0.00    +0.000 A 
ATOM      2  N   UNL     1       6.464   4.940  19.623  0.00  0.00    +0.000 NA
ATOM      3  C   UNL     1       7.618   5.573  19.826  0.00  0.00    +0.000 A 
ATOM      4  N   UNL     1       8.406   5.178  20.889  0.00  0.00    +0.000 N 
ATOM      5  N   UNL     1       8.095   6.535  19.050  0.00  0.00    +0.000 NA
ATOM      6  C   UNL     1       7.350   6.899  17.986  0.00  0.00    +0.000 A 
ATOM      7  C   UNL     1       7.925   8.033  17.192  0.00  0.00    +0.000 C 
ATOM      8  C   UNL     1       6.132   6.291  17.670  0.00  0.00    +0.000 A 
ATOM      9  H   UNL     1       8.217   4.206  21.098  0.00  0.00    +0.000 HD
ATOM     10  H   UNL     1       9.364   5.426  20.692  0.00  0.00    +0.000 HD
ENDROOT
BRANCH   1  17
ATOM     11  C   UNL     1       2.266   3.066  19.579  0.00  0.00    +0.000 C 
ATOM     12  C   UNL     1       3.097   2.579  18.392  0.00  0.00    +0.000 C 
ATOM     13  C   UNL     1       2.283   3.110  17.198  0.00  0.00    +0.000 C 
ATOM     14  C   UNL     1       1.635   4.409  17.705  0.00  0.00    +0.000 C 
ATOM     15  C   UNL     1       2.089   4.532  19.169  0.00  0.00    +0.000 C 
ATOM     16  C   UNL     1       3.435   5.269  19.294  0.00  0.00    +0.000 C 
ATOM     17  N   UNL     1       4.448   4.669  18.398  0.00  0.00    +0.000 N 
ATOM     18  C   UNL     1       4.516   3.194  18.464  0.00  0.00    +0.000 C 
BRANCH  11  20
ATOM     19  C   UNL     1       2.136   3.009  21.950  0.00  0.00    +0.000 C 
ATOM     20  O   UNL     1       2.950   2.841  20.801  0.00  0.00    +0.000 OA
ENDBRANCH  11  20
ENDBRANCH   1  17
BRANCH   8  21
ATOM     21  C   UNL     1       5.346   6.689  16.443  0.00  0.00    +0.000 C 
BRANCH  21  22
ATOM     22  C   UNL     1       5.271   5.632  15.340  0.00  0.00    +0.000 C 
BRANCH  22  23
ATOM     23  C   UNL     1       6.597   4.932  15.181  0.00  0.00    +0.000 C 
ATOM     24  O   UNL     1       7.610   5.431  14.715  0.00  0.00    +0.000 OA
BRANCH  23  25
ATOM     25  O   UNL     1       6.562   3.654  15.626  0.00  0.00    +0.000 OA
ATOM     26  H   UNL     1       6.428   2.998  14.913  0.00  0.00    +0.000 HD
ENDBRANCH  23  25
ENDBRANCH  22  23
ENDBRANCH  21  22
ENDBRANCH   8  21
TORSDOF 6
ENDMDL
MODEL 2
REMARK VINA RESULT:      -7.9      2.166      5.747
REMARK  Name = 
REMARK  8 active torsions:
REMARK  status: ('A' for Active; 'I' for Inactive)
REMARK    1  A    between atoms: C_1  and  O_2
REMARK    2  A    between atoms: O_2  and  C_3
REMARK    3  A    between atoms: N_9  and  C_10
REMARK    4  A    between atoms: C_15  and  C_16
REMARK    5  A    between atoms: C_17  and  C_18
REMARK    6  A    between atoms: C_18  and  C_19
REMARK    7  A    between atoms: C_19  and  C_20
REMARK    8  A    between atoms: C_20  and  O_22
REMARK                            x       y       z     vdW  Elec       q    Type
REMARK                         _______ _______ _______ _____ _____    ______ ____
ROOT
ATOM      1  C   UNL     1       3.919   5.288  19.190  0.00  0.00    +0.000 A 
ATOM      2  N   UNL     1       3.327   6.489  19.366  0.00  0.00    +0.000 NA
ATOM      3  C   UNL     1       2.264   6.562  20.164  0.00  0.00    +0.000 A 
ATOM      4  N   UNL     1       1.629   7.782  20.302  0.00  0.00    +0.000 N 
ATOM      5  N   UNL     1       1.733   5.533  20.808  0.00  0.00    +0.000 NA
ATOM      6  C   UNL     1       2.323   4.331  20.646  0.00  0.00    +0.000 A 
ATOM      7  C   UNL     1       1.705   3.230  21.453  0.00  0.00    +0.000 C 
ATOM      8  C   UNL     1       3.434   4.137  19.821  0.00  0.00    +0.000 A 
ATOM      9  H   UNL     1       1.785   8.333  19.468  0.00  0.00    +0.000 HD
ATOM     10  H   UNL     1       0.670   7.619  20.570  0.00  0.00    +0.000 HD
ENDROOT
BRANCH   1  17
ATOM     11  C   UNL     1       7.376   6.675  17.185  0.00  0.00    +0.000 C 
ATOM     12  C   UNL     1       6.320   5.946  16.355  0.00  0.00    +0.000 C 
ATOM     13  C   UNL     1       6.932   4.539  16.234  0.00  0.00    +0.000 C 
ATOM     14  C   UNL     1       7.728   4.337  17.534  0.00  0.00    +0.000 C 
ATOM     15  C   UNL     1       7.553   5.652  18.312  0.00  0.00    +0.000 C 
ATOM     16  C   UNL     1       6.292   5.634  19.195  0.00  0.00    +0.000 C 
ATOM     17  N   UNL     1       5.104   5.238  18.408  0.00  0.00    +0.000 N 
ATOM     18  C   UNL     1       4.972   5.944  17.115  0.00  0.00    +0.000 C 
BRANCH  11  20
ATOM     19  C   UNL     1       7.954   8.893  17.813  0.00  0.00    +0.000 C 
ATOM     20  O   UNL     1       6.913   7.958  17.577  0.00  0.00    +0.000 OA
ENDBRANCH  11  20
ENDBRANCH   1  17
BRANCH   8  21
ATOM     21  C   UNL     1       4.041   2.768  19.623  0.00  0.00    +0.000 C 
BRANCH  21  22
ATOM     22  C   UNL     1       3.815   2.143  18.246  0.00  0.00    +0.000 C 
BRANCH  22  23
ATOM     23  C   UNL     1       2.392   2.349  17.793  0.00  0.00    +0.000 C 
ATOM     24  O   UNL     1       2.025   3.159  16.956  0.00  0.00    +0.000 OA
BRANCH  23  25
ATOM     25  O   UNL     1       1.526   1.517  18.418  0.00  0.00    +0.000 OA
ATOM     26  H   UNL     1       1.065   1.932  19.173  0.00  0.00    +0.000 HD
ENDBRANCH  23  25
ENDBRANCH  22  23
ENDBRANCH  21  22
ENDBRANCH   8  21
TORSDOF 6
ENDMDL
MODEL 3
REMARK VINA RESULT:      -7.1      2.216      5.766
REMARK  Name = 
REMARK  8 active torsions:
REMARK  status: ('A' for Active; 'I' for Inactive)
REMARK    1  A    between atoms: C_1  and  O_2
REMARK    2  A    between atoms: O_2  and  C_3
REMARK    3  A    between atoms: N_9  and  C_10
REMARK    4  A    between atoms: C_15  and  C_16
REMARK    5  A    between atoms: C_17  and  C_18
REMARK    6  A    between atoms: C_18  and  C_19
REMARK    7  A    between atoms: C_19  and  C_20
REMARK    8  A    between atoms: C_20  and  O_22
REMARK                            x       y       z     vdW  Elec       q    Type
REMARK                         _______ _______ _______ _____ _____    ______ ____
ROOT
ATOM      1  C   UNL     1       3.499   5.225  19.056  0.00  0.00    +0.000 A 
ATOM      2  N   UNL     1       3.065   6.432  19.478  0.00  0.00    +0.000 NA
ATOM      3  C   UNL     1       2.234   6.481  20.518  0.00  0.00    +0.000 A 
ATOM      4  N   UNL     1       1.751   7.712  20.915  0.00  0.00    +0.000 N 
ATOM      5  N   UNL     1       1.794   5.421  21.180  0.00  0.00    +0.000 NA
ATOM      6  C   UNL     1       2.229   4.211  20.772  0.00  0.00    +0.000 A 
ATOM      7  C   UNL     1       1.738   3.068  21.607  0.00  0.00    +0.000 C 
ATOM      8  C   UNL     1       3.090   4.043  19.683  0.00  0.00    +0.000 A 
ATOM      9  H   UNL     1       1.745   8.339  20.120  0.00  0.00    +0.000 HD
ATOM     10  H   UNL     1       0.875   7.577  21.397  0.00  0.00    +0.000 HD
ENDROOT
BRANCH   1  17
ATOM     11  C   UNL     1       7.046   6.103  16.925  0.00  0.00    +0.000 C 
ATOM     12  C   UNL     1       5.714   6.419  16.245  0.00  0.00    +0.000 C 
ATOM     13  C   UNL     1       5.553   5.221  15.293  0.00  0.00    +0.000 C 
ATOM     14  C   UNL     1       6.238   4.047  16.013  0.00  0.00    +0.000 C 
ATOM     15  C   UNL     1       6.780   4.647  17.321  0.00  0.00    +0.000 C 
ATOM     16  C   UNL     1       5.733   4.603  18.450  0.00  0.00    +0.000 C 
ATOM     17  N   UNL     1       4.452   5.191  18.003  0.00  0.00    +0.000 N 
ATOM     18  C   UNL     1       4.592   6.488  17.309  0.00  0.00    +0.000 C 
BRANCH  11  20
ATOM     19  C   UNL     1       7.810   8.256  17.577  0.00  0.00    +0.000 C 
ATOM     20  O   UNL     1       7.294   7.002  17.994  0.00  0.00    +0.000 OA
ENDBRANCH  11  20
ENDBRANCH   1  17
BRANCH   8  21
ATOM     21  C   UNL     1       3.519   2.671  19.223  0.00  0.00    +0.000 C 
BRANCH  21  22
ATOM     22  C   UNL     1       2.793   2.136  17.988  0.00  0.00    +0.000 C 
BRANCH  22  23
ATOM     23  C   UNL     1       1.365   2.620  17.957  0.00  0.00    +0.000 C 
ATOM     24  O   UNL     1       0.424   2.084  18.522  0.00  0.00    +0.000 OA
BRANCH  23  25
ATOM     25  O   UNL     1       1.218   3.748  17.224  0.00  0.00    +0.000 OA
ATOM     26  H   UNL     1       0.289   4.040  17.141  0.00  0.00    +0.000 HD
ENDBRANCH  23  25
ENDBRANCH  22  23
ENDBRANCH  21  22
ENDBRANCH   8  21
TORSDOF 6
ENDMDL
MODEL 4
REMARK VINA RESULT:      -6.9      2.557      5.643
REMARK  Name = 
REMARK  8 active torsions:
REMARK  status: ('A' for Active; 'I' for Inactive)
REMARK    1  A    between atoms: C_1  and  O_2
REMARK    2  A    between atoms: O_2  and  C_3
REMARK    3  A    between atoms: N_9  and  C_10
REMARK    4  A    between atoms: C_15  and  C_16
REMARK    5  A    between atoms: C_17  and  C_18
REMARK    6  A    between atoms: C_18  and  C_19
REMARK    7  A    between atoms: C_19  and  C_20
REMARK    8  A    between atoms: C_20  and  O_22
REMARK                            x       y       z     vdW  Elec       q    Type
REMARK                         _______ _______ _______ _____ _____    ______ ____
ROOT
ATOM      1  C   UNL     1       4.474   4.189  19.131  0.00  0.00    +0.000 A 
ATOM      2  N   UNL     1       5.159   3.142  19.640  0.00  0.00    +0.000 NA
ATOM      3  C   UNL     1       4.506   2.265  20.400  0.00  0.00    +0.000 A 
ATOM      4  N   UNL     1       5.219   1.224  20.962  0.00  0.00    +0.000 N 
ATOM      5  N   UNL     1       3.218   2.341  20.699  0.00  0.00    +0.000 NA
ATOM      6  C   UNL     1       2.523   3.378  20.187  0.00  0.00    +0.000 A 
ATOM      7  C   UNL     1       1.062   3.362  20.519  0.00  0.00    +0.000 C 
ATOM      8  C   UNL     1       3.111   4.364  19.391  0.00  0.00    +0.000 A 
ATOM      9  H   UNL     1       6.184   1.507  21.077  0.00  0.00    +0.000 HD
ATOM     10  H   UNL     1       4.734   0.908  21.788  0.00  0.00    +0.000 HD
ENDROOT
BRANCH   1  17
ATOM     11  C   UNL     1       6.643   5.453  15.726  0.00  0.00    +0.000 C 
ATOM     12  C   UNL     1       7.276   5.688  17.097  0.00  0.00    +0.000 C 
ATOM     13  C   UNL     1       6.969   7.177  17.335  0.00  0.00    +0.000 C 
ATOM     14  C   UNL     1       5.633   7.427  16.616  0.00  0.00    +0.000 C 
ATOM     15  C   UNL     1       5.266   6.075  15.981  0.00  0.00    +0.000 C 
ATOM     16  C   UNL     1       4.468   5.183  16.949  0.00  0.00    +0.000 C 
ATOM     17  N   UNL     1       5.160   5.068  18.251  0.00  0.00    +0.000 N 
ATOM     18  C   UNL     1       6.604   4.768  18.144  0.00  0.00    +0.000 C 
BRANCH  11  20
ATOM     19  C   UNL     1       6.315   3.808  14.043  0.00  0.00    +0.000 C 
ATOM     20  O   UNL     1       6.649   4.073  15.396  0.00  0.00    +0.000 OA
ENDBRANCH  11  20
ENDBRANCH   1  17
BRANCH   8  21
ATOM     21  C   UNL     1       2.315   5.539  18.874  0.00  0.00    +0.000 C 
BRANCH  21  22
ATOM     22  C   UNL     1       2.401   6.812  19.716  0.00  0.00    +0.000 C 
BRANCH  22  23
ATOM     23  C   UNL     1       2.110   8.029  18.875  0.00  0.00    +0.000 C 
ATOM     24  O   UNL     1       2.464   8.191  17.718  0.00  0.00    +0.000 OA
BRANCH  23  25
ATOM     25  O   UNL     1       1.386   8.957  19.544  0.00  0.00    +0.000 OA
ATOM     26  H   UNL     1       1.930   9.541  20.108  0.00  0.00    +0.000 HD
ENDBRANCH  23  25
ENDBRANCH  22  23
ENDBRANCH  21  22
ENDBRANCH   8  21
TORSDOF 6
ENDMDL
MODEL 5
REMARK VINA RESULT:      -6.9      2.252      5.705
REMARK  Name = 
REMARK  8 active torsions:
REMARK  status: ('A' for Active; 'I' for Inactive)
REMARK    1  A    between atoms: C_1  and  O_2
REMARK    2  A    between atoms: O_2  and  C_3
REMARK    3  A    between atoms: N_9  and  C_10
REMARK    4  A    between atoms: C_15  and  C_16
REMARK    5  A    between atoms: C_17  and  C_18
REMARK    6  A    between atoms: C_18  and  C_19
REMARK    7  A    between atoms: C_19  and  C_20
REMARK    8  A    between atoms: C_20  and  O_22
REMARK                            x       y       z     vdW  Elec       q    Type
REMARK                         _______ _______ _______ _____ _____    ______ ____
ROOT
ATOM      1  C   UNL     1       3.372   5.394  18.608  0.00  0.00    +0.000 A 
ATOM      2  N   UNL     1       3.206   6.503  19.360  0.00  0.00    +0.000 NA
ATOM      3  C   UNL     1       2.225   6.519  20.260  0.00  0.00    +0.000 A 
ATOM      4  N   UNL     1       2.024   7.672  20.992  0.00  0.00    +0.000 N 
ATOM      5  N   UNL     1       1.386   5.516  20.477  0.00  0.00    +0.000 NA
ATOM      6  C   UNL     1       1.550   4.400  19.737  0.00  0.00    +0.000 A 
ATOM      7  C   UNL     1       0.605   3.290  20.082  0.00  0.00    +0.000 C 
ATOM      8  C   UNL     1       2.537   4.281  18.754  0.00  0.00    +0.000 A 
ATOM      9  H   UNL     1       2.352   8.467  20.457  0.00  0.00    +0.000 HD
ATOM     10  H   UNL     1       1.065   7.696  21.303  0.00  0.00    +0.000 HD
ENDROOT
BRANCH   1  17
ATOM     11  C   UNL     1       6.976   6.594  16.745  0.00  0.00    +0.000 C 
ATOM     12  C   UNL     1       5.741   6.430  15.859  0.00  0.00    +0.000 C 
ATOM     13  C   UNL     1       5.987   5.048  15.228  0.00  0.00    +0.000 C 
ATOM     14  C   UNL     1       6.764   4.257  16.293  0.00  0.00    +0.000 C 
ATOM     15  C   UNL     1       6.946   5.240  17.461  0.00  0.00    +0.000 C 
ATOM     16  C   UNL     1       5.756   5.199  18.437  0.00  0.00    +0.000 C 
ATOM     17  N   UNL     1       4.476   5.355  17.714  0.00  0.00    +0.000 N 
ATOM     18  C   UNL     1       4.465   6.464  16.735  0.00  0.00    +0.000 C 
BRANCH  11  20
ATOM     19  C   UNL     1       8.095   8.354  17.883  0.00  0.00    +0.000 C 
ATOM     20  O   UNL     1       6.855   7.739  17.574  0.00  0.00    +0.000 OA
ENDBRANCH  11  20
ENDBRANCH   1  17
BRANCH   8  21
ATOM     21  C   UNL     1       2.663   3.035  17.910  0.00  0.00    +0.000 C 
BRANCH  21  22
ATOM     22  C   UNL     1       2.742   1.721  18.687  0.00  0.00    +0.000 C 
BRANCH  22  23
ATOM     23  C   UNL     1       4.131   1.506  19.233  0.00  0.00    +0.000 C 
ATOM     24  O   UNL     1       4.724   2.269  19.979  0.00  0.00    +0.000 OA
BRANCH  23  25
ATOM     25  O   UNL     1       4.677   0.342  18.810  0.00  0.00    +0.000 OA
ATOM     26  H   UNL     1       4.017  -0.361  18.651  0.00  0.00    +0.000 HD
ENDBRANCH  23  25
ENDBRANCH  22  23
ENDBRANCH  21  22
ENDBRANCH   8  21
TORSDOF 6
ENDMDL
MODEL 6
REMARK VINA RESULT:      -6.8      2.453      6.038
REMARK  Name = 
REMARK  8 active torsions:
REMARK  status: ('A' for Active; 'I' for Inactive)
REMARK    1  A    between atoms: C_1  and  O_2
REMARK    2  A    between atoms: O_2  and  C_3
REMARK    3  A    between atoms: N_9  and  C_10
REMARK    4  A    between atoms: C_15  and  C_16
REMARK    5  A    between atoms: C_17  and  C_18
REMARK    6  A    between atoms: C_18  and  C_19
REMARK    7  A    between atoms: C_19  and  C_20
REMARK    8  A    between atoms: C_20  and  O_22
REMARK                            x       y       z     vdW  Elec       q    Type
REMARK                         _______ _______ _______ _____ _____    ______ ____
ROOT
ATOM      1  C   UNL     1       4.247   4.047  18.692  0.00  0.00    +0.000 A 
ATOM      2  N   UNL     1       4.329   2.743  18.354  0.00  0.00    +0.000 NA
ATOM      3  C   UNL     1       3.410   1.904  18.831  0.00  0.00    +0.000 A 
ATOM      4  N   UNL     1       3.526   0.562  18.525  0.00  0.00    +0.000 N 
ATOM      5  N   UNL     1       2.408   2.256  19.622  0.00  0.00    +0.000 NA
ATOM      6  C   UNL     1       2.312   3.560  19.957  0.00  0.00    +0.000 A 
ATOM      7  C   UNL     1       1.119   3.890  20.803  0.00  0.00    +0.000 C 
ATOM      8  C   UNL     1       3.229   4.522  19.527  0.00  0.00    +0.000 A 
ATOM      9  H   UNL     1       4.499   0.343  18.356  0.00  0.00    +0.000 HD
ATOM     10  H   UNL     1       3.054   0.026  19.238  0.00  0.00    +0.000 HD
ENDROOT
BRANCH   1  17
ATOM     11  C   UNL     1       7.045   5.557  15.902  0.00  0.00    +0.000 C 
ATOM     12  C   UNL     1       7.508   5.387  17.349  0.00  0.00    +0.000 C 
ATOM     13  C   UNL     1       7.408   6.828  17.882  0.00  0.00    +0.000 C 
ATOM     14  C   UNL     1       6.242   7.460  17.103  0.00  0.00    +0.000 C 
ATOM     15  C   UNL     1       5.761   6.357  16.147  0.00  0.00    +0.000 C 
ATOM     16  C   UNL     1       4.705   5.449  16.801  0.00  0.00    +0.000 C 
ATOM     17  N   UNL     1       5.179   4.946  18.109  0.00  0.00    +0.000 N 
ATOM     18  C   UNL     1       6.559   4.413  18.087  0.00  0.00    +0.000 C 
BRANCH  11  20
ATOM     19  C   UNL     1       6.645   4.381  13.876  0.00  0.00    +0.000 C 
ATOM     20  O   UNL     1       6.880   4.296  15.273  0.00  0.00    +0.000 OA
ENDBRANCH  11  20
ENDBRANCH   1  17
BRANCH   8  21
ATOM     21  C   UNL     1       3.121   5.964  19.961  0.00  0.00    +0.000 C 
BRANCH  21  22
ATOM     22  C   UNL     1       2.308   6.869  19.034  0.00  0.00    +0.000 C 
BRANCH  22  23
ATOM     23  C   UNL     1       1.786   8.070  19.781  0.00  0.00    +0.000 C 
ATOM     24  O   UNL     1       1.419   9.117  19.271  0.00  0.00    +0.000 OA
BRANCH  23  25
ATOM     25  O   UNL     1       1.755   7.871  21.120  0.00  0.00    +0.000 OA
ATOM     26  H   UNL     1       2.621   7.618  21.495  0.00  0.00    +0.000 HD
ENDBRANCH  23  25
ENDBRANCH  22  23
ENDBRANCH  21  22
ENDBRANCH   8  21
TORSDOF 6
ENDMDL
MODEL 7
REMARK VINA RESULT:      -6.8      2.893      5.906
REMARK  Name = 
REMARK  8 active torsions:
REMARK  status: ('A' for Active; 'I' for Inactive)
REMARK    1  A    between atoms: C_1  and  O_2
REMARK    2  A    between atoms: O_2  and  C_3
REMARK    3  A    between atoms: N_9  and  C_10
REMARK    4  A    between atoms: C_15  and  C_16
REMARK    5  A    between atoms: C_17  and  C_18
REMARK    6  A    between atoms: C_18  and  C_19
REMARK    7  A    between atoms: C_19  and  C_20
REMARK    8  A    between atoms: C_20  and  O_22
REMARK                            x       y       z     vdW  Elec       q    Type
REMARK                         _______ _______ _______ _____ _____    ______ ____
ROOT
ATOM      1  C   UNL     1       2.631   7.017  18.819  0.00  0.00    +0.000 A 
ATOM      2  N   UNL     1       2.596   8.120  18.040  0.00  0.00    +0.000 NA
ATOM      3  C   UNL     1       1.901   9.174  18.462  0.00  0.00    +0.000 A 
ATOM      4  N   UNL     1       1.825  10.282  17.641  0.00  0.00    +0.000 N 
ATOM      5  N   UNL     1       1.231   9.226  19.604  0.00  0.00    +0.000 NA
ATOM      6  C   UNL     1       1.267   8.132  20.394  0.00  0.00    +0.000 A 
ATOM      7  C   UNL     1       0.537   8.289  21.693  0.00  0.00    +0.000 C 
ATOM      8  C   UNL     1       1.952   6.966  20.042  0.00  0.00    +0.000 A 
ATOM      9  H   UNL     1       1.934   9.989  16.678  0.00  0.00    +0.000 HD
ATOM     10  H   UNL     1       0.989  10.798  17.869  0.00  0.00    +0.000 HD
ENDROOT
BRANCH   1  17
ATOM     11  C   UNL     1       6.148   4.891  17.816  0.00  0.00    +0.000 C 
ATOM     12  C   UNL     1       5.060   5.006  16.748  0.00  0.00    +0.000 C 
ATOM     13  C   UNL     1       4.374   3.633  16.847  0.00  0.00    +0.000 C 
ATOM     14  C   UNL     1       4.511   3.225  18.324  0.00  0.00    +0.000 C 
ATOM     15  C   UNL     1       5.295   4.374  18.979  0.00  0.00    +0.000 C 
ATOM     16  C   UNL     1       4.365   5.496  19.475  0.00  0.00    +0.000 C 
ATOM     17  N   UNL     1       3.446   5.932  18.401  0.00  0.00    +0.000 N 
ATOM     18  C   UNL     1       4.107   6.174  17.101  0.00  0.00    +0.000 C 
BRANCH  11  20
ATOM     19  C   UNL     1       7.885   6.077  18.919  0.00  0.00    +0.000 C 
ATOM     20  O   UNL     1       6.788   6.140  18.021  0.00  0.00    +0.000 OA
ENDBRANCH  11  20
ENDBRANCH   1  17
BRANCH   8  21
ATOM     21  C   UNL     1       1.932   5.743  20.926  0.00  0.00    +0.000 C 
BRANCH  21  22
ATOM     22  C   UNL     1       1.046   4.595  20.439  0.00  0.00    +0.000 C 
BRANCH  22  23
ATOM     23  C   UNL     1       1.542   3.274  20.971  0.00  0.00    +0.000 C 
ATOM     24  O   UNL     1       1.917   3.068  22.115  0.00  0.00    +0.000 OA
BRANCH  23  25
ATOM     25  O   UNL     1       1.526   2.301  20.031  0.00  0.00    +0.000 OA
ATOM     26  H   UNL     1       1.458   2.644  19.118  0.00  0.00    +0.000 HD
ENDBRANCH  23  25
ENDBRANCH  22  23
ENDBRANCH  21  22
ENDBRANCH   8  21
TORSDOF 6
ENDMDL
MODEL 8
REMARK VINA RESULT:      -6.7      2.896      5.555
REMARK  Name = 
REMARK  8 active torsions:
REMARK  status: ('A' for Active; 'I' for Inactive)
REMARK    1  A    between atoms: C_1  and  O_2
REMARK    2  A    between atoms: O_2  and  C_3
REMARK    3  A    between atoms: N_9  and  C_10
REMARK    4  A    between atoms: C_15  and  C_16
REMARK    5  A    between atoms: C_17  and  C_18
REMARK    6  A    between atoms: C_18  and  C_19
REMARK    7  A    between atoms: C_19  and  C_20
REMARK    8  A    between atoms: C_20  and  O_22
REMARK                            x       y       z     vdW  Elec       q    Type
REMARK                         _______ _______ _______ _____ _____    ______ ____
ROOT
ATOM      1  C   UNL     1       2.853   6.998  18.551  0.00  0.00    +0.000 A 
ATOM      2  N   UNL     1       2.735   8.133  17.830  0.00  0.00    +0.000 NA
ATOM      3  C   UNL     1       2.004   9.129  18.327  0.00  0.00    +0.000 A 
ATOM      4  N   UNL     1       1.843  10.269  17.564  0.00  0.00    +0.000 N 
ATOM      5  N   UNL     1       1.375   9.092  19.492  0.00  0.00    +0.000 NA
ATOM      6  C   UNL     1       1.495   7.966  20.225  0.00  0.00    +0.000 A 
ATOM      7  C   UNL     1       0.807   8.023  21.555  0.00  0.00    +0.000 C 
ATOM      8  C   UNL     1       2.224   6.854  19.793  0.00  0.00    +0.000 A 
ATOM      9  H   UNL     1       1.931  10.029  16.585  0.00  0.00    +0.000 HD
ATOM     10  H   UNL     1       0.991  10.730  17.847  0.00  0.00    +0.000 HD
ENDROOT
BRANCH   1  17
ATOM     11  C   UNL     1       4.808   3.252  18.342  0.00  0.00    +0.000 C 
ATOM     12  C   UNL     1       5.681   4.505  18.401  0.00  0.00    +0.000 C 
ATOM     13  C   UNL     1       6.075   4.684  16.924  0.00  0.00    +0.000 C 
ATOM     14  C   UNL     1       4.878   4.141  16.125  0.00  0.00    +0.000 C 
ATOM     15  C   UNL     1       3.882   3.652  17.189  0.00  0.00    +0.000 C 
ATOM     16  C   UNL     1       2.938   4.777  17.652  0.00  0.00    +0.000 C 
ATOM     17  N   UNL     1       3.705   5.977  18.052  0.00  0.00    +0.000 N 
ATOM     18  C   UNL     1       4.850   5.693  18.943  0.00  0.00    +0.000 C 
BRANCH  11  20
ATOM     19  C   UNL     1       4.719   1.915  20.304  0.00  0.00    +0.000 C 
ATOM     20  O   UNL     1       4.178   3.017  19.592  0.00  0.00    +0.000 OA
ENDBRANCH  11  20
ENDBRANCH   1  17
BRANCH   8  21
ATOM     21  C   UNL     1       2.297   5.591  20.616  0.00  0.00    +0.000 C 
BRANCH  21  22
ATOM     22  C   UNL     1       1.063   4.690  20.547  0.00  0.00    +0.000 C 
BRANCH  22  23
ATOM     23  C   UNL     1       1.401   3.287  20.985  0.00  0.00    +0.000 C 
ATOM     24  O   UNL     1       1.738   2.960  22.113  0.00  0.00    +0.000 OA
BRANCH  23  25
ATOM     25  O   UNL     1       1.284   2.390  19.979  0.00  0.00    +0.000 OA
ATOM     26  H   UNL     1       2.096   2.299  19.443  0.00  0.00    +0.000 HD
ENDBRANCH  23  25
ENDBRANCH  22  23
ENDBRANCH  21  22
ENDBRANCH   8  21
TORSDOF 6
ENDMDL
MODEL 9
REMARK VINA RESULT:      -6.7      2.779      5.942
REMARK  Name = 
REMARK  8 active torsions:
REMARK  status: ('A' for Active; 'I' for Inactive)
REMARK    1  A    between atoms: C_1  and  O_2
REMARK    2  A    between atoms: O_2  and  C_3
REMARK    3  A    between atoms: N_9  and  C_10
REMARK    4  A    between atoms: C_15  and  C_16
REMARK    5  A    between atoms: C_17  and  C_18
REMARK    6  A    between atoms: C_18  and  C_19
REMARK    7  A    between atoms: C_19  and  C_20
REMARK    8  A    between atoms: C_20  and  O_22
REMARK                            x       y       z     vdW  Elec       q    Type
REMARK                         _______ _______ _______ _____ _____    ______ ____
ROOT
ATOM      1  C   UNL     1       2.559   6.796  18.969  0.00  0.00    +0.000 A 
ATOM      2  N   UNL     1       2.650   7.836  18.113  0.00  0.00    +0.000 NA
ATOM      3  C   UNL     1       2.030   8.972  18.425  0.00  0.00    +0.000 A 
ATOM      4  N   UNL     1       2.081  10.018  17.524  0.00  0.00    +0.000 N 
ATOM      5  N   UNL     1       1.320   9.164  19.527  0.00  0.00    +0.000 NA
ATOM      6  C   UNL     1       1.231   8.133  20.394  0.00  0.00    +0.000 A 
ATOM      7  C   UNL     1       0.465   8.446  21.643  0.00  0.00    +0.000 C 
ATOM      8  C   UNL     1       1.829   6.892  20.159  0.00  0.00    +0.000 A 
ATOM      9  H   UNL     1       2.204   9.646  16.591  0.00  0.00    +0.000 HD
ATOM     10  H   UNL     1       1.283  10.616  17.676  0.00  0.00    +0.000 HD
ENDROOT
BRANCH   1  17
ATOM     11  C   UNL     1       5.338   4.285  17.002  0.00  0.00    +0.000 C 
ATOM     12  C   UNL     1       3.875   3.843  17.023  0.00  0.00    +0.000 C 
ATOM     13  C   UNL     1       3.877   2.799  18.153  0.00  0.00    +0.000 C 
ATOM     14  C   UNL     1       4.958   3.278  19.136  0.00  0.00    +0.000 C 
ATOM     15  C   UNL     1       5.535   4.553  18.498  0.00  0.00    +0.000 C 
ATOM     16  C   UNL     1       4.743   5.809  18.905  0.00  0.00    +0.000 C 
ATOM     17  N   UNL     1       3.296   5.619  18.667  0.00  0.00    +0.000 N 
ATOM     18  C   UNL     1       2.970   5.058  17.339  0.00  0.00    +0.000 C 
BRANCH  11  20
ATOM     19  C   UNL     1       6.127   5.072  14.904  0.00  0.00    +0.000 C 
ATOM     20  O   UNL     1       5.517   5.399  16.142  0.00  0.00    +0.000 OA
ENDBRANCH  11  20
ENDBRANCH   1  17
BRANCH   8  21
ATOM     21  C   UNL     1       1.670   5.744  21.126  0.00  0.00    +0.000 C 
BRANCH  21  22
ATOM     22  C   UNL     1       1.048   4.475  20.541  0.00  0.00    +0.000 C 
BRANCH  22  23
ATOM     23  C   UNL     1       1.642   3.245  21.182  0.00  0.00    +0.000 C 
ATOM     24  O   UNL     1       2.241   3.221  22.246  0.00  0.00    +0.000 OA
BRANCH  23  25
ATOM     25  O   UNL     1       1.437   2.129  20.445  0.00  0.00    +0.000 OA
ATOM     26  H   UNL     1       2.067   2.032  19.704  0.00  0.00    +0.000 HD
ENDBRANCH  23  25
ENDBRANCH  22  23
ENDBRANCH  21  22
ENDBRANCH   8  21
TORSDOF 6
ENDMDL
