MODEL 1
REMARK VINA RESULT:      -7.3      0.000      0.000
REMARK  Name = 
REMARK  6 active torsions:
REMARK  status: ('A' for Active; 'I' for Inactive)
REMARK    1  A    between atoms: C_5  and  N_6
REMARK    2  A    between atoms: N_6  and  C_7
REMARK    3  A    between atoms: C_7  and  C_8
REMARK    4  A    between atoms: C_11  and  C_12
REMARK    5  A    between atoms: C_12  and  N_13
REMARK    6  A    between atoms: N_13  and  C_14
REMARK                            x       y       z     vdW  Elec       q    Type
REMARK                         _______ _______ _______ _____ _____    ______ ____
ROOT
ATOM      1  C   UNL     1       2.703   6.898  18.691  0.00  0.00    +0.000 A 
ATOM      2  C   UNL     1       2.602   7.881  17.697  0.00  0.00    +0.000 A 
ATOM      3  C   UNL     1       1.939   9.085  17.952  0.00  0.00    +0.000 A 
ATOM      4  C   UNL     1       1.387   9.345  19.215  0.00  0.00    +0.000 A 
ATOM      5  C   UNL     1       1.495   8.367  20.212  0.00  0.00    +0.000 A 
ATOM      6  C   UNL     1       2.153   7.159  19.954  0.00  0.00    +0.000 A 
ENDROOT
BRANCH   1   7
ATOM      7  C   UNL     1       3.382   5.579  18.404  0.00  0.00    +0.000 C 
BRANCH   7   8
ATOM      8  N   UNL     1       4.824   5.751  18.334  0.00  0.00    +0.000 N 
ATOM      9  H   UNL     1       5.306   5.515  19.198  0.00  0.00    +0.000 HD
BRANCH   8  14
ATOM     10  C   UNL     1       5.749   4.164  15.084  0.00  0.00    +0.000 A 
ATOM     11  C   UNL     1       6.952   4.814  14.878  0.00  0.00    +0.000 A 
ATOM     12  N   UNL     1       7.467   5.711  15.739  0.00  0.00    +0.000 NA
ATOM     13  C   UNL     1       6.736   5.963  16.858  0.00  0.00    +0.000 A 
ATOM     14  C   UNL     1       5.524   5.350  17.192  0.00  0.00    +0.000 A 
ATOM     15  C   UNL     1       5.028   4.451  16.245  0.00  0.00    +0.000 A 
ENDBRANCH   8  14
ENDBRANCH   7   8
ENDBRANCH   1   7
BRANCH   4  16
ATOM     16  C   UNL     1       0.690  10.660  19.484  0.00  0.00    +0.000 C 
BRANCH  16  17
ATOM     17  N   UNL     1       0.107  11.179  18.252  0.00  0.00    +0.000 N 
ATOM     18  H   UNL     1       0.665  10.937  17.437  0.00  0.00    +0.000 HD
BRANCH  17  19
ATOM     19  C   UNL     1      -1.264  11.006  18.030  0.00  0.00    +0.000 A 
ATOM     20  C   UNL     1      -1.803   9.951  17.286  0.00  0.00    +0.000 A 
ATOM     21  C   UNL     1      -3.185   9.786  17.177  0.00  0.00    +0.000 A 
ATOM     22  C   UNL     1      -4.011  10.674  17.841  0.00  0.00    +0.000 A 
ATOM     23  N   UNL     1      -3.551  11.687  18.600  0.00  0.00    +0.000 NA
ATOM     24  C   UNL     1      -2.201  11.809  18.689  0.00  0.00    +0.000 A 
ENDBRANCH  17  19
ENDBRANCH  16  17
ENDBRANCH   4  16
TORSDOF 6
ENDMDL
MODEL 2
REMARK VINA RESULT:      -7.3      5.679      8.497
REMARK  Name = 
REMARK  6 active torsions:
REMARK  status: ('A' for Active; 'I' for Inactive)
REMARK    1  A    between atoms: C_5  and  N_6
REMARK    2  A    between atoms: N_6  and  C_7
REMARK    3  A    between atoms: C_7  and  C_8
REMARK    4  A    between atoms: C_11  and  C_12
REMARK    5  A    between atoms: C_12  and  N_13
REMARK    6  A    between atoms: N_13  and  C_14
REMARK                            x       y       z     vdW  Elec       q    Type
REMARK                         _______ _______ _______ _____ _____    ______ ____
ROOT
ATOM      1  C   UNL     1       6.621   5.339  17.739  0.00  0.00    +0.000 A 
ATOM      2  C   UNL     1       6.165   6.383  16.923  0.00  0.00    +0.000 A 
ATOM      3  C   UNL     1       6.713   7.664  17.035  0.00  0.00    +0.000 A 
ATOM      4  C   UNL     1       7.748   7.923  17.945  0.00  0.00    +0.000 A 
ATOM      5  C   UNL     1       8.210   6.879  18.755  0.00  0.00    +0.000 A 
ATOM      6  C   UNL     1       7.657   5.597  18.648  0.00  0.00    +0.000 A 
ENDROOT
BRANCH   1   7
ATOM      7  C   UNL     1       6.000   3.964  17.650  0.00  0.00    +0.000 C 
BRANCH   7   8
ATOM      8  N   UNL     1       5.251   3.662  18.859  0.00  0.00    +0.000 N 
ATOM      9  H   UNL     1       5.551   4.198  19.670  0.00  0.00    +0.000 HD
BRANCH   8  14
ATOM     10  C   UNL     1       1.623   4.115  18.104  0.00  0.00    +0.000 A 
ATOM     11  C   UNL     1       1.163   2.906  18.591  0.00  0.00    +0.000 A 
ATOM     12  N   UNL     1       1.963   1.981  19.155  0.00  0.00    +0.000 NA
ATOM     13  C   UNL     1       3.285   2.292  19.231  0.00  0.00    +0.000 A 
ATOM     14  C   UNL     1       3.865   3.490  18.801  0.00  0.00    +0.000 A 
ATOM     15  C   UNL     1       2.988   4.396  18.199  0.00  0.00    +0.000 A 
ENDBRANCH   8  14
ENDBRANCH   7   8
ENDBRANCH   1   7
BRANCH   4  16
ATOM     16  C   UNL     1       8.346   9.309  18.042  0.00  0.00    +0.000 C 
BRANCH  16  17
ATOM     17  N   UNL     1       9.095   9.445  19.286  0.00  0.00    +0.000 N 
ATOM     18  H   UNL     1       9.806   8.723  19.382  0.00  0.00    +0.000 HD
BRANCH  17  19
ATOM     19  C   UNL     1       9.568  10.711  19.653  0.00  0.00    +0.000 A 
ATOM     20  C   UNL     1       9.405  11.260  20.930  0.00  0.00    +0.000 A 
ATOM     21  C   UNL     1       9.979  12.489  21.257  0.00  0.00    +0.000 A 
ATOM     22  C   UNL     1      10.733  13.143  20.301  0.00  0.00    +0.000 A 
ATOM     23  N   UNL     1      10.954  12.648  19.067  0.00  0.00    +0.000 NA
ATOM     24  C   UNL     1      10.388  11.446  18.790  0.00  0.00    +0.000 A 
ENDBRANCH  17  19
ENDBRANCH  16  17
ENDBRANCH   4  16
TORSDOF 6
ENDMDL
MODEL 3
REMARK VINA RESULT:      -7.3      5.619      7.830
REMARK  Name = 
REMARK  6 active torsions:
REMARK  status: ('A' for Active; 'I' for Inactive)
REMARK    1  A    between atoms: C_5  and  N_6
REMARK    2  A    between atoms: N_6  and  C_7
REMARK    3  A    between atoms: C_7  and  C_8
REMARK    4  A    between atoms: C_11  and  C_12
REMARK    5  A    between atoms: C_12  and  N_13
REMARK    6  A    between atoms: N_13  and  C_14
REMARK                            x       y       z     vdW  Elec       q    Type
REMARK                         _______ _______ _______ _____ _____    ______ ____
ROOT
ATOM      1  C   UNL     1       7.421   7.488  17.820  0.00  0.00    +0.000 A 
ATOM      2  C   UNL     1       7.868   6.445  18.643  0.00  0.00    +0.000 A 
ATOM      3  C   UNL     1       7.136   5.259  18.749  0.00  0.00    +0.000 A 
ATOM      4  C   UNL     1       5.956   5.077  18.013  0.00  0.00    +0.000 A 
ATOM      5  C   UNL     1       5.513   6.115  17.183  0.00  0.00    +0.000 A 
ATOM      6  C   UNL     1       6.242   7.305  17.082  0.00  0.00    +0.000 A 
ENDROOT
BRANCH   1   7
ATOM      7  C   UNL     1       8.187   8.787  17.738  0.00  0.00    +0.000 C 
BRANCH   7   8
ATOM      8  N   UNL     1       8.820   9.088  19.012  0.00  0.00    +0.000 N 
ATOM      9  H   UNL     1       9.387   8.326  19.377  0.00  0.00    +0.000 HD
BRANCH   8  14
ATOM     10  C   UNL     1      10.256  12.497  18.513  0.00  0.00    +0.000 A 
ATOM     11  C   UNL     1      10.311  12.889  19.837  0.00  0.00    +0.000 A 
ATOM     12  N   UNL     1       9.924  12.103  20.859  0.00  0.00    +0.000 NA
ATOM     13  C   UNL     1       9.463  10.867  20.529  0.00  0.00    +0.000 A 
ATOM     14  C   UNL     1       9.388  10.346  19.234  0.00  0.00    +0.000 A 
ATOM     15  C   UNL     1       9.775  11.219  18.215  0.00  0.00    +0.000 A 
ENDBRANCH   8  14
ENDBRANCH   7   8
ENDBRANCH   1   7
BRANCH   4  16
ATOM     16  C   UNL     1       5.184   3.781  18.121  0.00  0.00    +0.000 C 
BRANCH  16  17
ATOM     17  N   UNL     1       3.752   4.041  18.028  0.00  0.00    +0.000 N 
ATOM     18  H   UNL     1       3.356   3.682  17.163  0.00  0.00    +0.000 HD
BRANCH  17  19
ATOM     19  C   UNL     1       2.944   3.767  19.138  0.00  0.00    +0.000 A 
ATOM     20  C   UNL     1       1.576   4.056  19.193  0.00  0.00    +0.000 A 
ATOM     21  C   UNL     1       0.809   3.676  20.294  0.00  0.00    +0.000 A 
ATOM     22  C   UNL     1       1.424   2.985  21.322  0.00  0.00    +0.000 A 
ATOM     23  N   UNL     1       2.728   2.648  21.311  0.00  0.00    +0.000 NA
ATOM     24  C   UNL     1       3.439   3.027  20.217  0.00  0.00    +0.000 A 
ENDBRANCH  17  19
ENDBRANCH  16  17
ENDBRANCH   4  16
TORSDOF 6
ENDMDL
MODEL 4
REMARK VINA RESULT:      -7.3      5.606      8.435
REMARK  Name = 
REMARK  6 active torsions:
REMARK  status: ('A' for Active; 'I' for Inactive)
REMARK    1  A    between atoms: C_5  and  N_6
REMARK    2  A    between atoms: N_6  and  C_7
REMARK    3  A    between atoms: C_7  and  C_8
REMARK    4  A    between atoms: C_11  and  C_12
REMARK    5  A    between atoms: C_12  and  N_13
REMARK    6  A    between atoms: N_13  and  C_14
REMARK                            x       y       z     vdW  Elec       q    Type
REMARK                         _______ _______ _______ _____ _____    ______ ____
ROOT
ATOM      1  C   UNL     1       5.913   5.061  17.953  0.00  0.00    +0.000 A 
ATOM      2  C   UNL     1       7.087   5.248  18.695  0.00  0.00    +0.000 A 
ATOM      3  C   UNL     1       7.807   6.443  18.600  0.00  0.00    +0.000 A 
ATOM      4  C   UNL     1       7.354   7.488  17.782  0.00  0.00    +0.000 A 
ATOM      5  C   UNL     1       6.176   7.306  17.046  0.00  0.00    +0.000 A 
ATOM      6  C   UNL     1       5.459   6.107  17.137  0.00  0.00    +0.000 A 
ENDROOT
BRANCH   1   7
ATOM      7  C   UNL     1       5.158   3.755  18.023  0.00  0.00    +0.000 C 
BRANCH   7   8
ATOM      8  N   UNL     1       3.724   3.989  17.975  0.00  0.00    +0.000 N 
ATOM      9  H   UNL     1       3.287   3.680  17.110  0.00  0.00    +0.000 HD
BRANCH   8  14
ATOM     10  C   UNL     1       0.840   3.744  20.332  0.00  0.00    +0.000 A 
ATOM     11  C   UNL     1       1.455   3.009  21.328  0.00  0.00    +0.000 A 
ATOM     12  N   UNL     1       2.741   2.614  21.272  0.00  0.00    +0.000 NA
ATOM     13  C   UNL     1       3.436   2.980  20.161  0.00  0.00    +0.000 A 
ATOM     14  C   UNL     1       2.935   3.745  19.103  0.00  0.00    +0.000 A 
ATOM     15  C   UNL     1       1.588   4.098  19.207  0.00  0.00    +0.000 A 
ENDBRANCH   8  14
ENDBRANCH   7   8
ENDBRANCH   1   7
BRANCH   4  16
ATOM     16  C   UNL     1       8.130   8.783  17.703  0.00  0.00    +0.000 C 
BRANCH  16  17
ATOM     17  N   UNL     1       8.809   9.039  18.969  0.00  0.00    +0.000 N 
ATOM     18  H   UNL     1       9.438   8.281  19.222  0.00  0.00    +0.000 HD
BRANCH  17  19
ATOM     19  C   UNL     1       9.377  10.299  19.186  0.00  0.00    +0.000 A 
ATOM     20  C   UNL     1       9.758  11.168  18.158  0.00  0.00    +0.000 A 
ATOM     21  C   UNL     1      10.236  12.447  18.443  0.00  0.00    +0.000 A 
ATOM     22  C   UNL     1      10.303  12.849  19.764  0.00  0.00    +0.000 A 
ATOM     23  N   UNL     1       9.918  12.072  20.795  0.00  0.00    +0.000 NA
ATOM     24  C   UNL     1       9.449  10.838  20.476  0.00  0.00    +0.000 A 
ENDBRANCH  17  19
ENDBRANCH  16  17
ENDBRANCH   4  16
TORSDOF 6
ENDMDL
MODEL 5
REMARK VINA RESULT:      -7.3      5.900      8.026
REMARK  Name = 
REMARK  6 active torsions:
REMARK  status: ('A' for Active; 'I' for Inactive)
REMARK    1  A    between atoms: C_5  and  N_6
REMARK    2  A    between atoms: N_6  and  C_7
REMARK    3  A    between atoms: C_7  and  C_8
REMARK    4  A    between atoms: C_11  and  C_12
REMARK    5  A    between atoms: C_12  and  N_13
REMARK    6  A    between atoms: N_13  and  C_14
REMARK                            x       y       z     vdW  Elec       q    Type
REMARK                         _______ _______ _______ _____ _____    ______ ____
ROOT
ATOM      1  C   UNL     1       7.617   7.671  17.844  0.00  0.00    +0.000 A 
ATOM      2  C   UNL     1       8.120   6.633  18.640  0.00  0.00    +0.000 A 
ATOM      3  C   UNL     1       7.493   5.383  18.659  0.00  0.00    +0.000 A 
ATOM      4  C   UNL     1       6.366   5.136  17.862  0.00  0.00    +0.000 A 
ATOM      5  C   UNL     1       5.867   6.170  17.061  0.00  0.00    +0.000 A 
ATOM      6  C   UNL     1       6.491   7.423  17.046  0.00  0.00    +0.000 A 
ENDROOT
BRANCH   1   7
ATOM      7  C   UNL     1       8.267   9.034  17.856  0.00  0.00    +0.000 C 
BRANCH   7   8
ATOM      8  N   UNL     1       8.933   9.272  19.126  0.00  0.00    +0.000 N 
ATOM      9  H   UNL     1       9.535   8.507  19.422  0.00  0.00    +0.000 HD
BRANCH   8  14
ATOM     10  C   UNL     1      10.223  12.282  20.919  0.00  0.00    +0.000 A 
ATOM     11  C   UNL     1      10.741  12.959  19.830  0.00  0.00    +0.000 A 
ATOM     12  N   UNL     1      10.674  12.494  18.569  0.00  0.00    +0.000 NA
ATOM     13  C   UNL     1      10.057  11.294  18.399  0.00  0.00    +0.000 A 
ATOM     14  C   UNL     1       9.470  10.531  19.413  0.00  0.00    +0.000 A 
ATOM     15  C   UNL     1       9.598  11.051  20.703  0.00  0.00    +0.000 A 
ENDBRANCH   8  14
ENDBRANCH   7   8
ENDBRANCH   1   7
BRANCH   4  16
ATOM     16  C   UNL     1       5.709   3.773  17.877  0.00  0.00    +0.000 C 
BRANCH  16  17
ATOM     17  N   UNL     1       5.094   3.528  19.177  0.00  0.00    +0.000 N 
ATOM     18  H   UNL     1       5.476   4.135  19.898  0.00  0.00    +0.000 HD
BRANCH  17  19
ATOM     19  C   UNL     1       3.701   3.419  19.254  0.00  0.00    +0.000 A 
ATOM     20  C   UNL     1       2.837   3.743  18.202  0.00  0.00    +0.000 A 
ATOM     21  C   UNL     1       1.463   3.527  18.313  0.00  0.00    +0.000 A 
ATOM     22  C   UNL     1       0.974   2.964  19.477  0.00  0.00    +0.000 A 
ATOM     23  N   UNL     1       1.759   2.600  20.510  0.00  0.00    +0.000 NA
ATOM     24  C   UNL     1       3.091   2.816  20.359  0.00  0.00    +0.000 A 
ENDBRANCH  17  19
ENDBRANCH  16  17
ENDBRANCH   4  16
TORSDOF 6
ENDMDL
MODEL 6
REMARK VINA RESULT:      -7.3      6.057      8.210
REMARK  Name = 
REMARK  6 active torsions:
REMARK  status: ('A' for Active; 'I' for Inactive)
REMARK    1  A    between atoms: C_5  and  N_6
REMARK    2  A    between atoms: N_6  and  C_7
REMARK    3  A    between atoms: C_7  and  C_8
REMARK    4  A    between atoms: C_11  and  C_12
REMARK    5  A    between atoms: C_12  and  N_13
REMARK    6  A    between atoms: N_13  and  C_14
REMARK                            x       y       z     vdW  Elec       q    Type
REMARK                         _______ _______ _______ _____ _____    ______ ____
ROOT
ATOM      1  C   UNL     1       5.697   5.062  17.050  0.00  0.00    +0.000 A 
ATOM      2  C   UNL     1       6.742   4.684  17.905  0.00  0.00    +0.000 A 
ATOM      3  C   UNL     1       7.656   5.633  18.373  0.00  0.00    +0.000 A 
ATOM      4  C   UNL     1       7.529   6.984  18.020  0.00  0.00    +0.000 A 
ATOM      5  C   UNL     1       6.481   7.364  17.173  0.00  0.00    +0.000 A 
ATOM      6  C   UNL     1       5.569   6.413  16.699  0.00  0.00    +0.000 A 
ENDROOT
BRANCH   1   7
ATOM      7  C   UNL     1       4.734   4.031  16.509  0.00  0.00    +0.000 C 
BRANCH   7   8
ATOM      8  N   UNL     1       4.573   2.937  17.453  0.00  0.00    +0.000 N 
ATOM      9  H   UNL     1       5.443   2.643  17.890  0.00  0.00    +0.000 HD
BRANCH   8  14
ATOM     10  C   UNL     1       1.127   2.729  18.874  0.00  0.00    +0.000 A 
ATOM     11  C   UNL     1       1.463   2.710  20.215  0.00  0.00    +0.000 A 
ATOM     12  N   UNL     1       2.730   2.775  20.663  0.00  0.00    +0.000 NA
ATOM     13  C   UNL     1       3.702   2.866  19.715  0.00  0.00    +0.000 A 
ATOM     14  C   UNL     1       3.488   2.925  18.334  0.00  0.00    +0.000 A 
ATOM     15  C   UNL     1       2.154   2.822  17.932  0.00  0.00    +0.000 A 
ENDBRANCH   8  14
ENDBRANCH   7   8
ENDBRANCH   1   7
BRANCH   4  16
ATOM     16  C   UNL     1       8.513   8.004  18.550  0.00  0.00    +0.000 C 
BRANCH  16  17
ATOM     17  N   UNL     1       8.226   9.317  17.985  0.00  0.00    +0.000 N 
ATOM     18  H   UNL     1       7.232   9.448  17.814  0.00  0.00    +0.000 HD
BRANCH  17  19
ATOM     19  C   UNL     1       8.821  10.445  18.563  0.00  0.00    +0.000 A 
ATOM     20  C   UNL     1       9.508  10.421  19.782  0.00  0.00    +0.000 A 
ATOM     21  C   UNL     1      10.155  11.561  20.260  0.00  0.00    +0.000 A 
ATOM     22  C   UNL     1      10.124  12.710  19.491  0.00  0.00    +0.000 A 
ATOM     23  N   UNL     1       9.509  12.784  18.295  0.00  0.00    +0.000 NA
ATOM     24  C   UNL     1       8.900  11.651  17.859  0.00  0.00    +0.000 A 
ENDBRANCH  17  19
ENDBRANCH  16  17
ENDBRANCH   4  16
TORSDOF 6
ENDMDL
MODEL 7
REMARK VINA RESULT:      -7.3      5.797      8.589
REMARK  Name = 
REMARK  6 active torsions:
REMARK  status: ('A' for Active; 'I' for Inactive)
REMARK    1  A    between atoms: C_5  and  N_6
REMARK    2  A    between atoms: N_6  and  C_7
REMARK    3  A    between atoms: C_7  and  C_8
REMARK    4  A    between atoms: C_11  and  C_12
REMARK    5  A    between atoms: C_12  and  N_13
REMARK    6  A    between atoms: N_13  and  C_14
REMARK                            x       y       z     vdW  Elec       q    Type
REMARK                         _______ _______ _______ _____ _____    ______ ____
ROOT
ATOM      1  C   UNL     1       6.742   5.411  17.766  0.00  0.00    +0.000 A 
ATOM      2  C   UNL     1       7.720   5.713  18.723  0.00  0.00    +0.000 A 
ATOM      3  C   UNL     1       8.267   6.997  18.801  0.00  0.00    +0.000 A 
ATOM      4  C   UNL     1       7.829   8.015  17.941  0.00  0.00    +0.000 A 
ATOM      5  C   UNL     1       6.845   7.717  16.990  0.00  0.00    +0.000 A 
ATOM      6  C   UNL     1       6.302   6.429  16.908  0.00  0.00    +0.000 A 
ENDROOT
BRANCH   1   7
ATOM      7  C   UNL     1       6.182   4.013  17.653  0.00  0.00    +0.000 C 
BRANCH   7   8
ATOM      8  N   UNL     1       5.390   3.683  18.827  0.00  0.00    +0.000 N 
ATOM      9  H   UNL     1       5.679   4.178  19.667  0.00  0.00    +0.000 HD
BRANCH   8  14
ATOM     10  C   UNL     1       1.845   3.994  17.700  0.00  0.00    +0.000 A 
ATOM     11  C   UNL     1       1.291   3.018  18.507  0.00  0.00    +0.000 A 
ATOM     12  N   UNL     1       2.002   2.294  19.391  0.00  0.00    +0.000 NA
ATOM     13  C   UNL     1       3.333   2.568  19.463  0.00  0.00    +0.000 A 
ATOM     14  C   UNL     1       4.003   3.548  18.723  0.00  0.00    +0.000 A 
ATOM     15  C   UNL     1       3.216   4.244  17.803  0.00  0.00    +0.000 A 
ENDBRANCH   8  14
ENDBRANCH   7   8
ENDBRANCH   1   7
BRANCH   4  16
ATOM     16  C   UNL     1       8.414   9.406  18.049  0.00  0.00    +0.000 C 
BRANCH  16  17
ATOM     17  N   UNL     1       9.160   9.540  19.295  0.00  0.00    +0.000 N 
ATOM     18  H   UNL     1       9.844   8.796  19.410  0.00  0.00    +0.000 HD
BRANCH  17  19
ATOM     19  C   UNL     1       9.675  10.795  19.641  0.00  0.00    +0.000 A 
ATOM     20  C   UNL     1       9.513  11.380  20.901  0.00  0.00    +0.000 A 
ATOM     21  C   UNL     1      10.128  12.594  21.210  0.00  0.00    +0.000 A 
ATOM     22  C   UNL     1      10.920  13.197  20.251  0.00  0.00    +0.000 A 
ATOM     23  N   UNL     1      11.142  12.666  19.033  0.00  0.00    +0.000 NA
ATOM     24  C   UNL     1      10.535  11.479  18.774  0.00  0.00    +0.000 A 
ENDBRANCH  17  19
ENDBRANCH  16  17
ENDBRANCH   4  16
TORSDOF 6
ENDMDL
MODEL 8
REMARK VINA RESULT:      -7.2      6.089      8.183
REMARK  Name = 
REMARK  6 active torsions:
REMARK  status: ('A' for Active; 'I' for Inactive)
REMARK    1  A    between atoms: C_5  and  N_6
REMARK    2  A    between atoms: N_6  and  C_7
REMARK    3  A    between atoms: C_7  and  C_8
REMARK    4  A    between atoms: C_11  and  C_12
REMARK    5  A    between atoms: C_12  and  N_13
REMARK    6  A    between atoms: N_13  and  C_14
REMARK                            x       y       z     vdW  Elec       q    Type
REMARK                         _______ _______ _______ _____ _____    ______ ____
ROOT
ATOM      1  C   UNL     1       5.776   5.026  16.919  0.00  0.00    +0.000 A 
ATOM      2  C   UNL     1       5.604   6.392  16.654  0.00  0.00    +0.000 A 
ATOM      3  C   UNL     1       6.469   7.339  17.211  0.00  0.00    +0.000 A 
ATOM      4  C   UNL     1       7.541   6.940  18.022  0.00  0.00    +0.000 A 
ATOM      5  C   UNL     1       7.718   5.575  18.281  0.00  0.00    +0.000 A 
ATOM      6  C   UNL     1       6.849   4.627  17.729  0.00  0.00    +0.000 A 
ENDROOT
BRANCH   1   7
ATOM      7  C   UNL     1       4.816   4.006  16.353  0.00  0.00    +0.000 C 
BRANCH   7   8
ATOM      8  N   UNL     1       4.650   2.894  17.275  0.00  0.00    +0.000 N 
ATOM      9  H   UNL     1       5.518   2.589  17.709  0.00  0.00    +0.000 HD
BRANCH   8  14
ATOM     10  C   UNL     1       1.195   2.713  18.678  0.00  0.00    +0.000 A 
ATOM     11  C   UNL     1       1.526   2.612  20.017  0.00  0.00    +0.000 A 
ATOM     12  N   UNL     1       2.794   2.616  20.469  0.00  0.00    +0.000 NA
ATOM     13  C   UNL     1       3.770   2.729  19.529  0.00  0.00    +0.000 A 
ATOM     14  C   UNL     1       3.562   2.867  18.153  0.00  0.00    +0.000 A 
ATOM     15  C   UNL     1       2.228   2.826  17.744  0.00  0.00    +0.000 A 
ENDBRANCH   8  14
ENDBRANCH   7   8
ENDBRANCH   1   7
BRANCH   4  16
ATOM     16  C   UNL     1       8.481   7.972  18.602  0.00  0.00    +0.000 C 
BRANCH  16  17
ATOM     17  N   UNL     1       8.217   9.279  18.010  0.00  0.00    +0.000 N 
ATOM     18  H   UNL     1       7.225   9.425  17.840  0.00  0.00    +0.000 HD
BRANCH  17  19
ATOM     19  C   UNL     1       8.834  10.407  18.563  0.00  0.00    +0.000 A 
ATOM     20  C   UNL     1       9.497  10.404  19.796  0.00  0.00    +0.000 A 
ATOM     21  C   UNL     1      10.169  11.540  20.248  0.00  0.00    +0.000 A 
ATOM     22  C   UNL     1      10.187  12.663  19.443  0.00  0.00    +0.000 A 
ATOM     23  N   UNL     1       9.597  12.715  18.233  0.00  0.00    +0.000 NA
ATOM     24  C   UNL     1       8.962  11.587  17.823  0.00  0.00    +0.000 A 
ENDBRANCH  17  19
ENDBRANCH  16  17
ENDBRANCH   4  16
TORSDOF 6
ENDMDL
MODEL 9
REMARK VINA RESULT:      -7.2      5.697      8.051
REMARK  Name = 
REMARK  6 active torsions:
REMARK  status: ('A' for Active; 'I' for Inactive)
REMARK    1  A    between atoms: C_5  and  N_6
REMARK    2  A    between atoms: N_6  and  C_7
REMARK    3  A    between atoms: C_7  and  C_8
REMARK    4  A    between atoms: C_11  and  C_12
REMARK    5  A    between atoms: C_12  and  N_13
REMARK    6  A    between atoms: N_13  and  C_14
REMARK                            x       y       z     vdW  Elec       q    Type
REMARK                         _______ _______ _______ _____ _____    ______ ____
ROOT
ATOM      1  C   UNL     1       7.753   7.918  17.896  0.00  0.00    +0.000 A 
ATOM      2  C   UNL     1       6.716   7.653  16.991  0.00  0.00    +0.000 A 
ATOM      3  C   UNL     1       6.162   6.373  16.898  0.00  0.00    +0.000 A 
ATOM      4  C   UNL     1       6.614   5.336  17.728  0.00  0.00    +0.000 A 
ATOM      5  C   UNL     1       7.644   5.602  18.639  0.00  0.00    +0.000 A 
ATOM      6  C   UNL     1       8.202   6.882  18.727  0.00  0.00    +0.000 A 
ENDROOT
BRANCH   1   7
ATOM      7  C   UNL     1       8.381   9.290  17.966  0.00  0.00    +0.000 C 
BRANCH   7   8
ATOM      8  N   UNL     1       8.968   9.517  19.277  0.00  0.00    +0.000 N 
ATOM      9  H   UNL     1       9.395   8.687  19.683  0.00  0.00    +0.000 HD
BRANCH   8  14
ATOM     10  C   UNL     1      11.097  12.556  18.870  0.00  0.00    +0.000 A 
ATOM     11  C   UNL     1      10.918  13.098  20.129  0.00  0.00    +0.000 A 
ATOM     12  N   UNL     1      10.165  12.521  21.084  0.00  0.00    +0.000 NA
ATOM     13  C   UNL     1       9.568  11.345  20.754  0.00  0.00    +0.000 A 
ATOM     14  C   UNL     1       9.696  10.684  19.528  0.00  0.00    +0.000 A 
ATOM     15  C   UNL     1      10.465  11.347  18.569  0.00  0.00    +0.000 A 
ENDBRANCH   8  14
ENDBRANCH   7   8
ENDBRANCH   1   7
BRANCH   4  16
ATOM     16  C   UNL     1       5.993   3.960  17.632  0.00  0.00    +0.000 C 
BRANCH  16  17
ATOM     17  N   UNL     1       5.337   3.618  18.889  0.00  0.00    +0.000 N 
ATOM     18  H   UNL     1       5.765   4.091  19.682  0.00  0.00    +0.000 HD
BRANCH  17  19
ATOM     19  C   UNL     1       3.939   3.639  18.948  0.00  0.00    +0.000 A 
ATOM     20  C   UNL     1       3.124   4.076  17.897  0.00  0.00    +0.000 A 
ATOM     21  C   UNL     1       1.734   3.987  17.986  0.00  0.00    +0.000 A 
ATOM     22  C   UNL     1       1.178   3.434  19.124  0.00  0.00    +0.000 A 
ATOM     23  N   UNL     1       1.911   2.965  20.153  0.00  0.00    +0.000 NA
ATOM     24  C   UNL     1       3.259   3.060  20.025  0.00  0.00    +0.000 A 
ENDBRANCH  17  19
ENDBRANCH  16  17
ENDBRANCH   4  16
TORSDOF 6
ENDMDL
