MODEL 1
REMARK VINA RESULT:      -7.2      0.000      0.000
REMARK  Name = 
REMARK  3 active torsions:
REMARK  status: ('A' for Active; 'I' for Inactive)
REMARK    1  A    between atoms: C_1  and  C_2
REMARK    2  A    between atoms: C_5  and  C_6
REMARK    3  A    between atoms: N_8  and  C_9
REMARK                            x       y       z     vdW  Elec       q    Type
REMARK                         _______ _______ _______ _____ _____    ______ ____
ROOT
ATOM      1  C   UNL     1       5.839   4.714  16.641  0.00  0.00    +0.000 C 
ATOM      2  O   UNL     1       6.422   4.319  17.647  0.00  0.00    +0.000 OA
ATOM      3  N   UNL     1       4.486   5.026  16.593  0.00  0.00    +0.000 N 
ATOM      4  H   UNL     1       4.114   5.231  15.671  0.00  0.00    +0.000 HD
ENDROOT
BRANCH   3   5
ATOM      5  C   UNL     1       3.560   4.975  17.655  0.00  0.00    +0.000 A 
ATOM      6  C   UNL     1       3.500   5.928  18.678  0.00  0.00    +0.000 A 
ATOM      7  C   UNL     1       2.573   5.797  19.716  0.00  0.00    +0.000 A 
ATOM      8  C   UNL     1       1.708   4.711  19.737  0.00  0.00    +0.000 A 
ATOM      9  F   UNL     1       0.840   4.595  20.753  0.00  0.00    +0.000 F 
ATOM     10  C   UNL     1       1.747   3.763  18.719  0.00  0.00    +0.000 A 
ATOM     11 CL   UNL     1       0.689   2.404  18.744  0.00  0.00    +0.000 Cl
ATOM     12  C   UNL     1       2.661   3.900  17.672  0.00  0.00    +0.000 A 
ENDBRANCH   3   5
BRANCH   1  17
ATOM     13  C   UNL     1       7.462   4.708  11.836  0.00  0.00    +0.000 C 
ATOM     14  C   UNL     1       7.268   4.885  13.294  0.00  0.00    +0.000 A 
ATOM     15  N   UNL     1       8.157   5.578  14.019  0.00  0.00    +0.000 NA
ATOM     16  O   UNL     1       7.680   5.557  15.315  0.00  0.00    +0.000 OA
ATOM     17  C   UNL     1       6.509   4.855  15.370  0.00  0.00    +0.000 A 
ATOM     18  C   UNL     1       6.208   4.410  14.104  0.00  0.00    +0.000 A 
ATOM     19 CL   UNL     1       4.879   3.506  13.570  0.00  0.00    +0.000 Cl
ENDBRANCH   1  17
TORSDOF 2
ENDMDL
MODEL 2
REMARK VINA RESULT:      -7.1      3.370      6.802
REMARK  Name = 
REMARK  3 active torsions:
REMARK  status: ('A' for Active; 'I' for Inactive)
REMARK    1  A    between atoms: C_1  and  C_2
REMARK    2  A    between atoms: C_5  and  C_6
REMARK    3  A    between atoms: N_8  and  C_9
REMARK                            x       y       z     vdW  Elec       q    Type
REMARK                         _______ _______ _______ _____ _____    ______ ____
ROOT
ATOM      1  C   UNL     1       5.457   3.958  18.482  0.00  0.00    +0.000 C 
ATOM      2  O   UNL     1       6.455   4.579  18.837  0.00  0.00    +0.000 OA
ATOM      3  N   UNL     1       5.123   3.709  17.156  0.00  0.00    +0.000 N 
ATOM      4  H   UNL     1       4.214   3.283  17.004  0.00  0.00    +0.000 HD
ENDROOT
BRANCH   3   5
ATOM      5  C   UNL     1       5.849   4.083  16.007  0.00  0.00    +0.000 A 
ATOM      6  C   UNL     1       6.931   4.970  16.028  0.00  0.00    +0.000 A 
ATOM      7  C   UNL     1       7.586   5.319  14.844  0.00  0.00    +0.000 A 
ATOM      8  C   UNL     1       7.158   4.788  13.635  0.00  0.00    +0.000 A 
ATOM      9  F   UNL     1       7.788   5.152  12.509  0.00  0.00    +0.000 F 
ATOM     10  C   UNL     1       6.091   3.894  13.600  0.00  0.00    +0.000 A 
ATOM     11 CL   UNL     1       5.542   3.241  12.104  0.00  0.00    +0.000 Cl
ATOM     12  C   UNL     1       5.446   3.530  14.784  0.00  0.00    +0.000 A 
ENDBRANCH   3   5
BRANCH   1  17
ATOM     13  C   UNL     1       1.466   2.801  21.388  0.00  0.00    +0.000 C 
ATOM     14  C   UNL     1       2.786   2.907  20.724  0.00  0.00    +0.000 A 
ATOM     15  N   UNL     1       3.804   2.124  21.106  0.00  0.00    +0.000 NA
ATOM     16  O   UNL     1       4.866   2.468  20.294  0.00  0.00    +0.000 OA
ATOM     17  C   UNL     1       4.489   3.453  19.426  0.00  0.00    +0.000 A 
ATOM     18  C   UNL     1       3.171   3.763  19.664  0.00  0.00    +0.000 A 
ATOM     19 CL   UNL     1       2.175   4.893  18.888  0.00  0.00    +0.000 Cl
ENDBRANCH   1  17
TORSDOF 2
ENDMDL
MODEL 3
REMARK VINA RESULT:      -7.1      1.186      1.700
REMARK  Name = 
REMARK  3 active torsions:
REMARK  status: ('A' for Active; 'I' for Inactive)
REMARK    1  A    between atoms: C_1  and  C_2
REMARK    2  A    between atoms: C_5  and  C_6
REMARK    3  A    between atoms: N_8  and  C_9
REMARK                            x       y       z     vdW  Elec       q    Type
REMARK                         _______ _______ _______ _____ _____    ______ ____
ROOT
ATOM      1  C   UNL     1       5.686   4.372  16.571  0.00  0.00    +0.000 C 
ATOM      2  O   UNL     1       6.262   4.258  17.649  0.00  0.00    +0.000 OA
ATOM      3  N   UNL     1       4.319   4.198  16.394  0.00  0.00    +0.000 N 
ATOM      4  H   UNL     1       3.995   4.211  15.431  0.00  0.00    +0.000 HD
ENDROOT
BRANCH   3   5
ATOM      5  C   UNL     1       3.361   3.894  17.382  0.00  0.00    +0.000 A 
ATOM      6  C   UNL     1       2.673   2.677  17.446  0.00  0.00    +0.000 A 
ATOM      7  C   UNL     1       1.714   2.455  18.438  0.00  0.00    +0.000 A 
ATOM      8  C   UNL     1       1.436   3.451  19.365  0.00  0.00    +0.000 A 
ATOM      9  F   UNL     1       0.497   3.224  20.296  0.00  0.00    +0.000 F 
ATOM     10  C   UNL     1       2.122   4.661  19.322  0.00  0.00    +0.000 A 
ATOM     11 CL   UNL     1       1.774   5.908  20.457  0.00  0.00    +0.000 Cl
ATOM     12  C   UNL     1       3.093   4.879  18.342  0.00  0.00    +0.000 A 
ENDBRANCH   3   5
BRANCH   1  17
ATOM     13  C   UNL     1       7.474   4.904  11.856  0.00  0.00    +0.000 C 
ATOM     14  C   UNL     1       7.224   4.925  13.315  0.00  0.00    +0.000 A 
ATOM     15  N   UNL     1       8.064   5.564  14.140  0.00  0.00    +0.000 NA
ATOM     16  O   UNL     1       7.544   5.397  15.408  0.00  0.00    +0.000 OA
ATOM     17  C   UNL     1       6.395   4.662  15.347  0.00  0.00    +0.000 A 
ATOM     18  C   UNL     1       6.152   4.340  14.032  0.00  0.00    +0.000 A 
ATOM     19 CL   UNL     1       4.871   3.459  13.359  0.00  0.00    +0.000 Cl
ENDBRANCH   1  17
TORSDOF 2
ENDMDL
MODEL 4
REMARK VINA RESULT:      -6.9      4.963      7.935
REMARK  Name = 
REMARK  3 active torsions:
REMARK  status: ('A' for Active; 'I' for Inactive)
REMARK    1  A    between atoms: C_1  and  C_2
REMARK    2  A    between atoms: C_5  and  C_6
REMARK    3  A    between atoms: N_8  and  C_9
REMARK                            x       y       z     vdW  Elec       q    Type
REMARK                         _______ _______ _______ _____ _____    ______ ____
ROOT
ATOM      1  C   UNL     1       1.634   7.980  20.248  0.00  0.00    +0.000 C 
ATOM      2  O   UNL     1       1.932   8.334  19.111  0.00  0.00    +0.000 OA
ATOM      3  N   UNL     1       1.826   6.695  20.741  0.00  0.00    +0.000 N 
ATOM      4  H   UNL     1       1.431   6.512  21.658  0.00  0.00    +0.000 HD
ENDROOT
BRANCH   3   5
ATOM      5  C   UNL     1       2.401   5.599  20.067  0.00  0.00    +0.000 A 
ATOM      6  C   UNL     1       3.743   5.548  19.671  0.00  0.00    +0.000 A 
ATOM      7  C   UNL     1       4.238   4.439  18.980  0.00  0.00    +0.000 A 
ATOM      8  C   UNL     1       3.392   3.380  18.677  0.00  0.00    +0.000 A 
ATOM      9  F   UNL     1       3.883   2.335  17.995  0.00  0.00    +0.000 F 
ATOM     10  C   UNL     1       2.059   3.410  19.075  0.00  0.00    +0.000 A 
ATOM     11 CL   UNL     1       0.999   2.109  18.692  0.00  0.00    +0.000 Cl
ATOM     12  C   UNL     1       1.566   4.510  19.782  0.00  0.00    +0.000 A 
ENDBRANCH   3   5
BRANCH   1  17
ATOM     13  C   UNL     1      -1.103  11.394  22.811  0.00  0.00    +0.000 C 
ATOM     14  C   UNL     1      -0.160  10.345  22.360  0.00  0.00    +0.000 A 
ATOM     15  N   UNL     1       0.674   9.760  23.230  0.00  0.00    +0.000 NA
ATOM     16  O   UNL     1       1.397   8.841  22.496  0.00  0.00    +0.000 OA
ATOM     17  C   UNL     1       1.000   8.871  21.190  0.00  0.00    +0.000 A 
ATOM     18  C   UNL     1       0.009   9.815  21.057  0.00  0.00    +0.000 A 
ATOM     19 CL   UNL     1      -0.861  10.274  19.678  0.00  0.00    +0.000 Cl
ENDBRANCH   1  17
TORSDOF 2
ENDMDL
MODEL 5
REMARK VINA RESULT:      -6.8      3.307      6.785
REMARK  Name = 
REMARK  3 active torsions:
REMARK  status: ('A' for Active; 'I' for Inactive)
REMARK    1  A    between atoms: C_1  and  C_2
REMARK    2  A    between atoms: C_5  and  C_6
REMARK    3  A    between atoms: N_8  and  C_9
REMARK                            x       y       z     vdW  Elec       q    Type
REMARK                         _______ _______ _______ _____ _____    ______ ____
ROOT
ATOM      1  C   UNL     1       3.880   5.134  17.945  0.00  0.00    +0.000 C 
ATOM      2  O   UNL     1       3.622   6.233  17.463  0.00  0.00    +0.000 OA
ATOM      3  N   UNL     1       4.807   4.246  17.413  0.00  0.00    +0.000 N 
ATOM      4  H   UNL     1       4.837   3.329  17.848  0.00  0.00    +0.000 HD
ENDROOT
BRANCH   3   5
ATOM      5  C   UNL     1       5.617   4.436  16.275  0.00  0.00    +0.000 A 
ATOM      6  C   UNL     1       6.825   5.142  16.292  0.00  0.00    +0.000 A 
ATOM      7  C   UNL     1       7.562   5.316  15.118  0.00  0.00    +0.000 A 
ATOM      8  C   UNL     1       7.091   4.792  13.922  0.00  0.00    +0.000 A 
ATOM      9  F   UNL     1       7.804   4.988  12.803  0.00  0.00    +0.000 F 
ATOM     10  C   UNL     1       5.897   4.076  13.892  0.00  0.00    +0.000 A 
ATOM     11 CL   UNL     1       5.296   3.433  12.411  0.00  0.00    +0.000 Cl
ATOM     12  C   UNL     1       5.167   3.885  15.067  0.00  0.00    +0.000 A 
ENDBRANCH   3   5
BRANCH   1  17
ATOM     13  C   UNL     1       1.514   2.523  21.592  0.00  0.00    +0.000 C 
ATOM     14  C   UNL     1       2.164   3.543  20.737  0.00  0.00    +0.000 A 
ATOM     15  N   UNL     1       2.281   4.809  21.158  0.00  0.00    +0.000 NA
ATOM     16  O   UNL     1       2.928   5.484  20.142  0.00  0.00    +0.000 OA
ATOM     17  C   UNL     1       3.200   4.627  19.114  0.00  0.00    +0.000 A 
ATOM     18  C   UNL     1       2.732   3.379  19.450  0.00  0.00    +0.000 A 
ATOM     19 CL   UNL     1       2.802   1.932  18.573  0.00  0.00    +0.000 Cl
ENDBRANCH   1  17
TORSDOF 2
ENDMDL
MODEL 6
REMARK VINA RESULT:      -6.8      3.275      6.725
REMARK  Name = 
REMARK  3 active torsions:
REMARK  status: ('A' for Active; 'I' for Inactive)
REMARK    1  A    between atoms: C_1  and  C_2
REMARK    2  A    between atoms: C_5  and  C_6
REMARK    3  A    between atoms: N_8  and  C_9
REMARK                            x       y       z     vdW  Elec       q    Type
REMARK                         _______ _______ _______ _____ _____    ______ ____
ROOT
ATOM      1  C   UNL     1       5.226   4.239  18.016  0.00  0.00    +0.000 C 
ATOM      2  O   UNL     1       6.399   4.276  18.374  0.00  0.00    +0.000 OA
ATOM      3  N   UNL     1       4.809   4.324  16.694  0.00  0.00    +0.000 N 
ATOM      4  H   UNL     1       3.806   4.394  16.551  0.00  0.00    +0.000 HD
ENDROOT
BRANCH   3   5
ATOM      5  C   UNL     1       5.622   4.439  15.547  0.00  0.00    +0.000 A 
ATOM      6  C   UNL     1       6.753   5.260  15.478  0.00  0.00    +0.000 A 
ATOM      7  C   UNL     1       7.496   5.347  14.297  0.00  0.00    +0.000 A 
ATOM      8  C   UNL     1       7.108   4.618  13.182  0.00  0.00    +0.000 A 
ATOM      9  F   UNL     1       7.823   4.732  12.053  0.00  0.00    +0.000 F 
ATOM     10  C   UNL     1       5.993   3.786  13.240  0.00  0.00    +0.000 A 
ATOM     11 CL   UNL     1       5.494   2.889  11.857  0.00  0.00    +0.000 Cl
ATOM     12  C   UNL     1       5.259   3.684  14.424  0.00  0.00    +0.000 A 
ENDBRANCH   3   5
BRANCH   1  17
ATOM     13  C   UNL     1       1.312   3.024  21.003  0.00  0.00    +0.000 C 
ATOM     14  C   UNL     1       2.432   3.675  20.285  0.00  0.00    +0.000 A 
ATOM     15  N   UNL     1       2.781   4.937  20.570  0.00  0.00    +0.000 NA
ATOM     16  O   UNL     1       3.846   5.227  19.740  0.00  0.00    +0.000 OA
ATOM     17  C   UNL     1       4.137   4.146  18.959  0.00  0.00    +0.000 A 
ATOM     18  C   UNL     1       3.261   3.133  19.273  0.00  0.00    +0.000 A 
ATOM     19 CL   UNL     1       3.158   1.565  18.639  0.00  0.00    +0.000 Cl
ENDBRANCH   1  17
TORSDOF 2
ENDMDL
MODEL 7
REMARK VINA RESULT:      -6.7      3.421      7.001
REMARK  Name = 
REMARK  3 active torsions:
REMARK  status: ('A' for Active; 'I' for Inactive)
REMARK    1  A    between atoms: C_1  and  C_2
REMARK    2  A    between atoms: C_5  and  C_6
REMARK    3  A    between atoms: N_8  and  C_9
REMARK                            x       y       z     vdW  Elec       q    Type
REMARK                         _______ _______ _______ _____ _____    ______ ____
ROOT
ATOM      1  C   UNL     1       3.769   4.311  17.701  0.00  0.00    +0.000 C 
ATOM      2  O   UNL     1       3.426   5.438  17.356  0.00  0.00    +0.000 OA
ATOM      3  N   UNL     1       4.813   3.601  17.122  0.00  0.00    +0.000 N 
ATOM      4  H   UNL     1       4.915   2.638  17.429  0.00  0.00    +0.000 HD
ENDROOT
BRANCH   3   5
ATOM      5  C   UNL     1       5.664   4.028  16.082  0.00  0.00    +0.000 A 
ATOM      6  C   UNL     1       6.733   4.912  16.267  0.00  0.00    +0.000 A 
ATOM      7  C   UNL     1       7.517   5.316  15.183  0.00  0.00    +0.000 A 
ATOM      8  C   UNL     1       7.231   4.842  13.910  0.00  0.00    +0.000 A 
ATOM      9  F   UNL     1       7.985   5.258  12.881  0.00  0.00    +0.000 F 
ATOM     10  C   UNL     1       6.180   3.952  13.712  0.00  0.00    +0.000 A 
ATOM     11 CL   UNL     1       5.809   3.369  12.134  0.00  0.00    +0.000 Cl
ATOM     12  C   UNL     1       5.405   3.533  14.796  0.00  0.00    +0.000 A 
ENDBRANCH   3   5
BRANCH   1  17
ATOM     13  C   UNL     1       1.247   2.595  21.752  0.00  0.00    +0.000 C 
ATOM     14  C   UNL     1       1.985   2.773  20.481  0.00  0.00    +0.000 A 
ATOM     15  N   UNL     1       2.248   1.722  19.693  0.00  0.00    +0.000 NA
ATOM     16  O   UNL     1       2.931   2.230  18.606  0.00  0.00    +0.000 OA
ATOM     17  C   UNL     1       3.080   3.580  18.738  0.00  0.00    +0.000 A 
ATOM     18  C   UNL     1       2.491   3.971  19.918  0.00  0.00    +0.000 A 
ATOM     19 CL   UNL     1       2.356   5.519  20.592  0.00  0.00    +0.000 Cl
ENDBRANCH   1  17
TORSDOF 2
ENDMDL
MODEL 8
REMARK VINA RESULT:      -6.7      1.544      1.585
REMARK  Name = 
REMARK  3 active torsions:
REMARK  status: ('A' for Active; 'I' for Inactive)
REMARK    1  A    between atoms: C_1  and  C_2
REMARK    2  A    between atoms: C_5  and  C_6
REMARK    3  A    between atoms: N_8  and  C_9
REMARK                            x       y       z     vdW  Elec       q    Type
REMARK                         _______ _______ _______ _____ _____    ______ ____
ROOT
ATOM      1  C   UNL     1       5.435   4.984  16.544  0.00  0.00    +0.000 C 
ATOM      2  O   UNL     1       5.174   6.004  17.175  0.00  0.00    +0.000 OA
ATOM      3  N   UNL     1       5.030   3.709  16.918  0.00  0.00    +0.000 N 
ATOM      4  H   UNL     1       5.411   2.946  16.366  0.00  0.00    +0.000 HD
ENDROOT
BRANCH   3   5
ATOM      5  C   UNL     1       4.250   3.354  18.038  0.00  0.00    +0.000 A 
ATOM      6  C   UNL     1       4.759   3.260  19.338  0.00  0.00    +0.000 A 
ATOM      7  C   UNL     1       3.933   2.873  20.397  0.00  0.00    +0.000 A 
ATOM      8  C   UNL     1       2.599   2.574  20.159  0.00  0.00    +0.000 A 
ATOM      9  F   UNL     1       1.829   2.186  21.186  0.00  0.00    +0.000 F 
ATOM     10  C   UNL     1       2.075   2.676  18.873  0.00  0.00    +0.000 A 
ATOM     11 CL   UNL     1       0.425   2.293  18.564  0.00  0.00    +0.000 Cl
ATOM     12  C   UNL     1       2.894   3.079  17.816  0.00  0.00    +0.000 A 
ENDBRANCH   3   5
BRANCH   1  17
ATOM     13  C   UNL     1       7.550   4.578  11.953  0.00  0.00    +0.000 C 
ATOM     14  C   UNL     1       7.215   4.859  13.368  0.00  0.00    +0.000 A 
ATOM     15  N   UNL     1       8.063   5.547  14.144  0.00  0.00    +0.000 NA
ATOM     16  O   UNL     1       7.453   5.637  15.379  0.00  0.00    +0.000 OA
ATOM     17  C   UNL     1       6.242   5.006  15.347  0.00  0.00    +0.000 A 
ATOM     18  C   UNL     1       6.049   4.496  14.084  0.00  0.00    +0.000 A 
ATOM     19 CL   UNL     1       4.730   3.634  13.463  0.00  0.00    +0.000 Cl
ENDBRANCH   1  17
TORSDOF 2
ENDMDL
MODEL 9
REMARK VINA RESULT:      -6.6      5.065      8.054
REMARK  Name = 
REMARK  3 active torsions:
REMARK  status: ('A' for Active; 'I' for Inactive)
REMARK    1  A    between atoms: C_1  and  C_2
REMARK    2  A    between atoms: C_5  and  C_6
REMARK    3  A    between atoms: N_8  and  C_9
REMARK                            x       y       z     vdW  Elec       q    Type
REMARK                         _______ _______ _______ _____ _____    ______ ____
ROOT
ATOM      1  C   UNL     1       1.703   8.162  19.855  0.00  0.00    +0.000 C 
ATOM      2  O   UNL     1       1.875   8.638  18.737  0.00  0.00    +0.000 OA
ATOM      3  N   UNL     1       2.035   6.860  20.209  0.00  0.00    +0.000 N 
ATOM      4  H   UNL     1       1.734   6.564  21.133  0.00  0.00    +0.000 HD
ENDROOT
BRANCH   3   5
ATOM      5  C   UNL     1       2.633   5.879  19.392  0.00  0.00    +0.000 A 
ATOM      6  C   UNL     1       1.908   4.935  18.656  0.00  0.00    +0.000 A 
ATOM      7  C   UNL     1       2.570   3.971  17.890  0.00  0.00    +0.000 A 
ATOM      8  C   UNL     1       3.957   3.944  17.862  0.00  0.00    +0.000 A 
ATOM      9  F   UNL     1       4.572   2.999  17.136  0.00  0.00    +0.000 F 
ATOM     10  C   UNL     1       4.692   4.885  18.579  0.00  0.00    +0.000 A 
ATOM     11 CL   UNL     1       6.413   4.851  18.563  0.00  0.00    +0.000 Cl
ATOM     12  C   UNL     1       4.033   5.860  19.331  0.00  0.00    +0.000 A 
ENDBRANCH   3   5
BRANCH   1  17
ATOM     13  C   UNL     1      -1.044  11.116  22.928  0.00  0.00    +0.000 C 
ATOM     14  C   UNL     1      -0.075  10.181  22.312  0.00  0.00    +0.000 A 
ATOM     15  N   UNL     1       0.850   9.567  23.062  0.00  0.00    +0.000 NA
ATOM     16  O   UNL     1       1.573   8.776  22.192  0.00  0.00    +0.000 OA
ATOM     17  C   UNL     1       1.086   8.911  20.924  0.00  0.00    +0.000 A 
ATOM     18  C   UNL     1       0.034   9.796  20.953  0.00  0.00    +0.000 A 
ATOM     19 CL   UNL     1      -0.956  10.333  19.687  0.00  0.00    +0.000 Cl
ENDBRANCH   1  17
TORSDOF 2
ENDMDL
